MODEL 1
REMARK VINA RESULT:      -6.5      0.000      0.000
REMARK  Name = 
REMARK  2 active torsions:
REMARK  status: ('A' for Active; 'I' for Inactive)
REMARK    1  A    between atoms: O_1  and  C_2
REMARK    2  A    between atoms: C_15  and  O_16
REMARK                            x       y       z     vdW  Elec       q    Type
REMARK                         _______ _______ _______ _____ _____    ______ ____
ROOT
ATOM      1  C   UNL     1       9.580  -0.063  22.177  0.00  0.00    +0.128 A 
ATOM      2  C   UNL     1       9.186  -0.875  23.256  0.00  0.00    +0.075 A 
ATOM      3  C   UNL     1       8.612  -2.237  23.060  0.00  0.00    +0.202 C 
ATOM      4  C   UNL     1       8.218  -3.050  24.244  0.00  0.00    +0.075 A 
ATOM      5  C   UNL     1       7.677  -4.344  24.122  0.00  0.00    +0.128 A 
ATOM      6  C   UNL     1       7.312  -5.084  25.252  0.00  0.00    +0.046 A 
ATOM      7  C   UNL     1       7.483  -4.545  26.523  0.00  0.00    +0.004 A 
ATOM      8  C   UNL     1       8.019  -3.267  26.661  0.00  0.00    +0.012 A 
ATOM      9  C   UNL     1       8.384  -2.524  25.526  0.00  0.00    +0.037 A 
ATOM     10  C   UNL     1       8.947  -1.176  25.721  0.00  0.00    +0.195 C 
ATOM     11  O   UNL     1       9.087  -0.724  26.854  0.00  0.00    -0.287 OA
ATOM     12  O   UNL     1       8.463  -2.684  21.931  0.00  0.00    -0.286 OA
ATOM     13  C   UNL     1       9.340  -0.375  24.550  0.00  0.00    +0.037 A 
ATOM     14  C   UNL     1       9.874   0.907  24.764  0.00  0.00    +0.012 A 
ATOM     15  C   UNL     1      10.259   1.699  23.686  0.00  0.00    +0.004 A 
ATOM     16  C   UNL     1      10.112   1.213  22.390  0.00  0.00    +0.046 A 
ENDROOT
BRANCH   1  17
ATOM     17  O   UNL     1       9.459  -0.495  20.886  0.00  0.00    -0.506 OA
ATOM     18  H   UNL     1       8.839   0.060  20.390  0.00  0.00    +0.292 HD
ENDBRANCH   1  17
BRANCH   5  19
ATOM     19  O   UNL     1       7.490  -4.917  22.896  0.00  0.00    -0.506 OA
ATOM     20  H   UNL     1       6.766  -4.488  22.417  0.00  0.00    +0.292 HD
ENDBRANCH   5  19
TORSDOF 2
ENDMDL
MODEL 2
REMARK VINA RESULT:      -6.5      0.045      4.728
REMARK  Name = 
REMARK  2 active torsions:
REMARK  status: ('A' for Active; 'I' for Inactive)
REMARK    1  A    between atoms: O_1  and  C_2
REMARK    2  A    between atoms: C_15  and  O_16
REMARK                            x       y       z     vdW  Elec       q    Type
REMARK                         _______ _______ _______ _____ _____    ______ ____
ROOT
ATOM      1  C   UNL     1       7.728  -4.366  24.150  0.00  0.00    +0.128 A 
ATOM      2  C   UNL     1       8.257  -3.066  24.261  0.00  0.00    +0.075 A 
ATOM      3  C   UNL     1       8.649  -2.261  23.069  0.00  0.00    +0.202 C 
ATOM      4  C   UNL     1       9.199  -0.889  23.253  0.00  0.00    +0.075 A 
ATOM      5  C   UNL     1       9.580  -0.080  22.166  0.00  0.00    +0.128 A 
ATOM      6  C   UNL     1      10.097   1.205  22.368  0.00  0.00    +0.046 A 
ATOM      7  C   UNL     1      10.239   1.703  23.658  0.00  0.00    +0.004 A 
ATOM      8  C   UNL     1       9.864   0.917  24.745  0.00  0.00    +0.012 A 
ATOM      9  C   UNL     1       9.347  -0.374  24.541  0.00  0.00    +0.037 A 
ATOM     10  C   UNL     1       8.964  -1.170  25.721  0.00  0.00    +0.195 C 
ATOM     11  O   UNL     1       9.100  -0.706  26.849  0.00  0.00    -0.287 OA
ATOM     12  O   UNL     1       8.523  -2.727  21.945  0.00  0.00    -0.286 OA
ATOM     13  C   UNL     1       8.417  -2.525  25.538  0.00  0.00    +0.037 A 
ATOM     14  C   UNL     1       8.059  -3.263  26.679  0.00  0.00    +0.012 A 
ATOM     15  C   UNL     1       7.539  -4.547  26.552  0.00  0.00    +0.004 A 
ATOM     16  C   UNL     1       7.373  -5.100  25.286  0.00  0.00    +0.046 A 
ENDROOT
BRANCH   1  17
ATOM     17  O   UNL     1       7.544  -4.951  22.929  0.00  0.00    -0.506 OA
ATOM     18  H   UNL     1       7.051  -5.781  23.011  0.00  0.00    +0.292 HD
ENDBRANCH   1  17
BRANCH   5  19
ATOM     19  O   UNL     1       9.459  -0.524  20.879  0.00  0.00    -0.506 OA
ATOM     20  H   UNL     1       9.105   0.170  20.303  0.00  0.00    +0.292 HD
ENDBRANCH   5  19
TORSDOF 2
ENDMDL
MODEL 3
REMARK VINA RESULT:      -6.5      2.008      5.051
REMARK  Name = 
REMARK  2 active torsions:
REMARK  status: ('A' for Active; 'I' for Inactive)
REMARK    1  A    between atoms: O_1  and  C_2
REMARK    2  A    between atoms: C_15  and  O_16
REMARK                            x       y       z     vdW  Elec       q    Type
REMARK                         _______ _______ _______ _____ _____    ______ ____
ROOT
ATOM      1  C   UNL     1       8.741  -4.694  25.943  0.00  0.00    +0.128 A 
ATOM      2  C   UNL     1       8.446  -3.494  25.270  0.00  0.00    +0.075 A 
ATOM      3  C   UNL     1       9.332  -2.937  24.209  0.00  0.00    +0.202 C 
ATOM      4  C   UNL     1       8.962  -1.664  23.529  0.00  0.00    +0.075 A 
ATOM      5  C   UNL     1       9.756  -1.093  22.517  0.00  0.00    +0.128 A 
ATOM      6  C   UNL     1       9.385   0.105  21.897  0.00  0.00    +0.046 A 
ATOM      7  C   UNL     1       8.214   0.753  22.278  0.00  0.00    +0.004 A 
ATOM      8  C   UNL     1       7.416   0.201  23.277  0.00  0.00    +0.012 A 
ATOM      9  C   UNL     1       7.790  -1.003  23.899  0.00  0.00    +0.037 A 
ATOM     10  C   UNL     1       6.914  -1.549  24.951  0.00  0.00    +0.195 C 
ATOM     11  O   UNL     1       5.887  -0.957  25.268  0.00  0.00    -0.287 OA
ATOM     12  O   UNL     1      10.362  -3.521  23.900  0.00  0.00    -0.286 OA
ATOM     13  C   UNL     1       7.279  -2.810  25.619  0.00  0.00    +0.037 A 
ATOM     14  C   UNL     1       6.427  -3.310  26.618  0.00  0.00    +0.012 A 
ATOM     15  C   UNL     1       6.734  -4.497  27.276  0.00  0.00    +0.004 A 
ATOM     16  C   UNL     1       7.892  -5.190  26.938  0.00  0.00    +0.046 A 
ENDROOT
BRANCH   1  17
ATOM     17  O   UNL     1       9.864  -5.412  25.646  0.00  0.00    -0.506 OA
ATOM     18  H   UNL     1      10.125  -5.975  26.390  0.00  0.00    +0.292 HD
ENDBRANCH   1  17
BRANCH   5  19
ATOM     19  O   UNL     1      10.914  -1.691  22.107  0.00  0.00    -0.506 OA
ATOM     20  H   UNL     1      11.343  -1.177  21.408  0.00  0.00    +0.292 HD
ENDBRANCH   5  19
TORSDOF 2
ENDMDL
MODEL 4
REMARK VINA RESULT:      -6.3      2.220      2.703
REMARK  Name = 
REMARK  2 active torsions:
REMARK  status: ('A' for Active; 'I' for Inactive)
REMARK    1  A    between atoms: O_1  and  C_2
REMARK    2  A    between atoms: C_15  and  O_16
REMARK                            x       y       z     vdW  Elec       q    Type
REMARK                         _______ _______ _______ _____ _____    ______ ____
ROOT
ATOM      1  C   UNL     1       7.227   0.779  22.696  0.00  0.00    +0.128 A 
ATOM      2  C   UNL     1       7.688  -0.448  23.209  0.00  0.00    +0.075 A 
ATOM      3  C   UNL     1       6.857  -1.300  24.105  0.00  0.00    +0.202 C 
ATOM      4  C   UNL     1       7.400  -2.591  24.611  0.00  0.00    +0.075 A 
ATOM      5  C   UNL     1       6.660  -3.440  25.455  0.00  0.00    +0.128 A 
ATOM      6  C   UNL     1       7.196  -4.646  25.918  0.00  0.00    +0.046 A 
ATOM      7  C   UNL     1       8.482  -5.025  25.546  0.00  0.00    +0.004 A 
ATOM      8  C   UNL     1       9.228  -4.197  24.710  0.00  0.00    +0.012 A 
ATOM      9  C   UNL     1       8.688  -2.985  24.246  0.00  0.00    +0.037 A 
ATOM     10  C   UNL     1       9.514  -2.142  23.364  0.00  0.00    +0.195 C 
ATOM     11  O   UNL     1      10.646  -2.500  23.051  0.00  0.00    -0.287 OA
ATOM     12  O   UNL     1       5.732  -0.939  24.426  0.00  0.00    -0.286 OA
ATOM     13  C   UNL     1       8.974  -0.868  22.860  0.00  0.00    +0.037 A 
ATOM     14  C   UNL     1       9.782  -0.083  22.020  0.00  0.00    +0.012 A 
ATOM     15  C   UNL     1       9.311   1.129  21.522  0.00  0.00    +0.004 A 
ATOM     16  C   UNL     1       8.032   1.560  21.860  0.00  0.00    +0.046 A 
ENDROOT
BRANCH   1  17
ATOM     17  O   UNL     1       5.978   1.244  22.996  0.00  0.00    -0.506 OA
ATOM     18  H   UNL     1       5.831   2.121  22.611  0.00  0.00    +0.292 HD
ENDBRANCH   1  17
BRANCH   5  19
ATOM     19  O   UNL     1       5.392  -3.113  25.848  0.00  0.00    -0.506 OA
ATOM     20  H   UNL     1       5.405  -2.408  26.512  0.00  0.00    +0.292 HD
ENDBRANCH   5  19
TORSDOF 2
ENDMDL
MODEL 5
REMARK VINA RESULT:      -6.2      2.260      5.362
REMARK  Name = 
REMARK  2 active torsions:
REMARK  status: ('A' for Active; 'I' for Inactive)
REMARK    1  A    between atoms: O_1  and  C_2
REMARK    2  A    between atoms: C_15  and  O_16
REMARK                            x       y       z     vdW  Elec       q    Type
REMARK                         _______ _______ _______ _____ _____    ______ ____
ROOT
ATOM      1  C   UNL     1       6.601  -3.367  25.566  0.00  0.00    +0.128 A 
ATOM      2  C   UNL     1       7.334  -2.545  24.689  0.00  0.00    +0.075 A 
ATOM      3  C   UNL     1       6.793  -1.260  24.163  0.00  0.00    +0.202 C 
ATOM      4  C   UNL     1       7.620  -0.432  23.241  0.00  0.00    +0.075 A 
ATOM      5  C   UNL     1       7.166   0.793  22.718  0.00  0.00    +0.128 A 
ATOM      6  C   UNL     1       7.963   1.549  21.852  0.00  0.00    +0.046 A 
ATOM      7  C   UNL     1       9.228   1.095  21.496  0.00  0.00    +0.004 A 
ATOM      8  C   UNL     1       9.694  -0.114  22.006  0.00  0.00    +0.012 A 
ATOM      9  C   UNL     1       8.892  -0.874  22.875  0.00  0.00    +0.037 A 
ATOM     10  C   UNL     1       9.427  -2.147  23.391  0.00  0.00    +0.195 C 
ATOM     11  O   UNL     1      10.547  -2.524  23.060  0.00  0.00    -0.287 OA
ATOM     12  O   UNL     1       5.672  -0.888  24.484  0.00  0.00    -0.286 OA
ATOM     13  C   UNL     1       8.610  -2.962  24.305  0.00  0.00    +0.037 A 
ATOM     14  C   UNL     1       9.143  -4.171  24.782  0.00  0.00    +0.012 A 
ATOM     15  C   UNL     1       8.405  -4.973  25.648  0.00  0.00    +0.004 A 
ATOM     16  C   UNL     1       7.132  -4.571  26.040  0.00  0.00    +0.046 A 
ENDROOT
BRANCH   1  17
ATOM     17  O   UNL     1       5.348  -3.014  25.982  0.00  0.00    -0.506 OA
ATOM     18  H   UNL     1       5.361  -2.702  26.899  0.00  0.00    +0.292 HD
ENDBRANCH   1  17
BRANCH   5  19
ATOM     19  O   UNL     1       5.931   1.283  23.038  0.00  0.00    -0.506 OA
ATOM     20  H   UNL     1       5.354   1.310  22.261  0.00  0.00    +0.292 HD
ENDBRANCH   5  19
TORSDOF 2
ENDMDL
MODEL 6
REMARK VINA RESULT:      -6.2      2.564      5.229
REMARK  Name = 
REMARK  2 active torsions:
REMARK  status: ('A' for Active; 'I' for Inactive)
REMARK    1  A    between atoms: O_1  and  C_2
REMARK    2  A    between atoms: C_15  and  O_16
REMARK                            x       y       z     vdW  Elec       q    Type
REMARK                         _______ _______ _______ _____ _____    ______ ____
ROOT
ATOM      1  C   UNL     1       9.349  -2.569  23.780  0.00  0.00    +0.128 A 
ATOM      2  C   UNL     1       8.538  -1.425  23.671  0.00  0.00    +0.075 A 
ATOM      3  C   UNL     1       8.949  -0.229  22.882  0.00  0.00    +0.202 C 
ATOM      4  C   UNL     1       8.043   0.951  22.802  0.00  0.00    +0.075 A 
ATOM      5  C   UNL     1       8.374   2.105  22.067  0.00  0.00    +0.128 A 
ATOM      6  C   UNL     1       7.505   3.200  22.011  0.00  0.00    +0.046 A 
ATOM      7  C   UNL     1       6.290   3.160  22.687  0.00  0.00    +0.004 A 
ATOM      8  C   UNL     1       5.946   2.025  23.417  0.00  0.00    +0.012 A 
ATOM      9  C   UNL     1       6.820   0.926  23.473  0.00  0.00    +0.037 A 
ATOM     10  C   UNL     1       6.414  -0.254  24.258  0.00  0.00    +0.195 C 
ATOM     11  O   UNL     1       5.335  -0.263  24.845  0.00  0.00    -0.287 OA
ATOM     12  O   UNL     1      10.028  -0.215  22.305  0.00  0.00    -0.286 OA
ATOM     13  C   UNL     1       7.308  -1.421  24.333  0.00  0.00    +0.037 A 
ATOM     14  C   UNL     1       6.897  -2.533  25.088  0.00  0.00    +0.012 A 
ATOM     15  C   UNL     1       7.712  -3.657  25.186  0.00  0.00    +0.004 A 
ATOM     16  C   UNL     1       8.939  -3.676  24.531  0.00  0.00    +0.046 A 
ENDROOT
BRANCH   1  17
ATOM     17  O   UNL     1      10.561  -2.637  23.154  0.00  0.00    -0.506 OA
ATOM     18  H   UNL     1      10.504  -2.305  22.246  0.00  0.00    +0.292 HD
ENDBRANCH   1  17
BRANCH   5  19
ATOM     19  O   UNL     1       9.555   2.193  21.386  0.00  0.00    -0.506 OA
ATOM     20  H   UNL     1       9.751   3.110  21.145  0.00  0.00    +0.292 HD
ENDBRANCH   5  19
TORSDOF 2
ENDMDL
MODEL 7
REMARK VINA RESULT:      -5.9      2.175      5.230
REMARK  Name = 
REMARK  2 active torsions:
REMARK  status: ('A' for Active; 'I' for Inactive)
REMARK    1  A    between atoms: O_1  and  C_2
REMARK    2  A    between atoms: C_15  and  O_16
REMARK                            x       y       z     vdW  Elec       q    Type
REMARK                         _______ _______ _______ _____ _____    ______ ____
ROOT
ATOM      1  C   UNL     1       9.845  -1.934  23.652  0.00  0.00    +0.128 A 
ATOM      2  C   UNL     1       9.332  -0.739  24.191  0.00  0.00    +0.075 A 
ATOM      3  C   UNL     1       9.641   0.596  23.605  0.00  0.00    +0.202 C 
ATOM      4  C   UNL     1       9.062   1.824  24.220  0.00  0.00    +0.075 A 
ATOM      5  C   UNL     1       9.313   3.110  23.707  0.00  0.00    +0.128 A 
ATOM      6  C   UNL     1       8.759   4.247  24.306  0.00  0.00    +0.046 A 
ATOM      7  C   UNL     1       7.944   4.117  25.426  0.00  0.00    +0.004 A 
ATOM      8  C   UNL     1       7.685   2.851  25.944  0.00  0.00    +0.012 A 
ATOM      9  C   UNL     1       8.243   1.710  25.343  0.00  0.00    +0.037 A 
ATOM     10  C   UNL     1       7.940   0.391  25.926  0.00  0.00    +0.195 C 
ATOM     11  O   UNL     1       7.218   0.304  26.915  0.00  0.00    -0.287 OA
ATOM     12  O   UNL     1      10.368   0.683  22.626  0.00  0.00    -0.286 OA
ATOM     13  C   UNL     1       8.508  -0.823  25.315  0.00  0.00    +0.037 A 
ATOM     14  C   UNL     1       8.204  -2.068  25.891  0.00  0.00    +0.012 A 
ATOM     15  C   UNL     1       8.720  -3.240  25.347  0.00  0.00    +0.004 A 
ATOM     16  C   UNL     1       9.542  -3.173  24.226  0.00  0.00    +0.046 A 
ENDROOT
BRANCH   1  17
ATOM     17  O   UNL     1      10.653  -1.921  22.551  0.00  0.00    -0.506 OA
ATOM     18  H   UNL     1      10.777  -1.019  22.220  0.00  0.00    +0.292 HD
ENDBRANCH   1  17
BRANCH   5  19
ATOM     19  O   UNL     1      10.106   3.291  22.609  0.00  0.00    -0.506 OA
ATOM     20  H   UNL     1       9.890   2.650  21.915  0.00  0.00    +0.292 HD
ENDBRANCH   5  19
TORSDOF 2
ENDMDL
MODEL 8
REMARK VINA RESULT:      -5.9      1.933      3.079
REMARK  Name = 
REMARK  2 active torsions:
REMARK  status: ('A' for Active; 'I' for Inactive)
REMARK    1  A    between atoms: O_1  and  C_2
REMARK    2  A    between atoms: C_15  and  O_16
REMARK                            x       y       z     vdW  Elec       q    Type
REMARK                         _______ _______ _______ _____ _____    ______ ____
ROOT
ATOM      1  C   UNL     1       8.597  -2.132  23.223  0.00  0.00    +0.128 A 
ATOM      2  C   UNL     1       7.804  -3.060  23.924  0.00  0.00    +0.075 A 
ATOM      3  C   UNL     1       6.984  -4.093  23.229  0.00  0.00    +0.202 C 
ATOM      4  C   UNL     1       6.168  -5.050  24.029  0.00  0.00    +0.075 A 
ATOM      5  C   UNL     1       5.380  -6.050  23.429  0.00  0.00    +0.128 A 
ATOM      6  C   UNL     1       4.622  -6.934  24.204  0.00  0.00    +0.046 A 
ATOM      7  C   UNL     1       4.640  -6.835  25.591  0.00  0.00    +0.004 A 
ATOM      8  C   UNL     1       5.416  -5.853  26.201  0.00  0.00    +0.012 A 
ATOM      9  C   UNL     1       6.177  -4.964  25.421  0.00  0.00    +0.037 A 
ATOM     10  C   UNL     1       6.983  -3.941  26.110  0.00  0.00    +0.195 C 
ATOM     11  O   UNL     1       6.981  -3.876  27.336  0.00  0.00    -0.287 OA
ATOM     12  O   UNL     1       6.977  -4.152  22.007  0.00  0.00    -0.286 OA
ATOM     13  C   UNL     1       7.792  -2.998  25.319  0.00  0.00    +0.037 A 
ATOM     14  C   UNL     1       8.552  -2.032  26.001  0.00  0.00    +0.012 A 
ATOM     15  C   UNL     1       9.330  -1.121  25.292  0.00  0.00    +0.004 A 
ATOM     16  C   UNL     1       9.353  -1.171  23.902  0.00  0.00    +0.046 A 
ENDROOT
BRANCH   1  17
ATOM     17  O   UNL     1       8.654  -2.142  21.858  0.00  0.00    -0.506 OA
ATOM     18  H   UNL     1       8.926  -3.011  21.527  0.00  0.00    +0.292 HD
ENDBRANCH   1  17
BRANCH   5  19
ATOM     19  O   UNL     1       5.329  -6.188  22.070  0.00  0.00    -0.506 OA
ATOM     20  H   UNL     1       4.517  -6.638  21.796  0.00  0.00    +0.292 HD
ENDBRANCH   5  19
TORSDOF 2
ENDMDL
MODEL 9
REMARK VINA RESULT:      -5.9      2.861      6.241
REMARK  Name = 
REMARK  2 active torsions:
REMARK  status: ('A' for Active; 'I' for Inactive)
REMARK    1  A    between atoms: O_1  and  C_2
REMARK    2  A    between atoms: C_15  and  O_16
REMARK                            x       y       z     vdW  Elec       q    Type
REMARK                         _______ _______ _______ _____ _____    ______ ____
ROOT
ATOM      1  C   UNL     1       3.412  -5.747  24.015  0.00  0.00    +0.128 A 
ATOM      2  C   UNL     1       4.736  -5.361  24.298  0.00  0.00    +0.075 A 
ATOM      3  C   UNL     1       5.498  -4.427  23.422  0.00  0.00    +0.202 C 
ATOM      4  C   UNL     1       6.895  -4.053  23.779  0.00  0.00    +0.075 A 
ATOM      5  C   UNL     1       7.662  -3.171  22.995  0.00  0.00    +0.128 A 
ATOM      6  C   UNL     1       8.973  -2.839  23.353  0.00  0.00    +0.046 A 
ATOM      7  C   UNL     1       9.541  -3.383  24.500  0.00  0.00    +0.004 A 
ATOM      8  C   UNL     1       8.795  -4.257  25.288  0.00  0.00    +0.012 A 
ATOM      9  C   UNL     1       7.478  -4.590  24.928  0.00  0.00    +0.037 A 
ATOM     10  C   UNL     1       6.728  -5.518  25.792  0.00  0.00    +0.195 C 
ATOM     11  O   UNL     1       7.253  -5.984  26.800  0.00  0.00    -0.287 OA
ATOM     12  O   UNL     1       4.979  -3.970  22.413  0.00  0.00    -0.286 OA
ATOM     13  C   UNL     1       5.345  -5.882  25.441  0.00  0.00    +0.037 A 
ATOM     14  C   UNL     1       4.652  -6.769  26.282  0.00  0.00    +0.012 A 
ATOM     15  C   UNL     1       3.344  -7.141  25.987  0.00  0.00    +0.004 A 
ATOM     16  C   UNL     1       2.723  -6.630  24.852  0.00  0.00    +0.046 A 
ENDROOT
BRANCH   1  17
ATOM     17  O   UNL     1       2.758  -5.269  22.914  0.00  0.00    -0.506 OA
ATOM     18  H   UNL     1       3.284  -4.592  22.463  0.00  0.00    +0.292 HD
ENDBRANCH   1  17
BRANCH   5  19
ATOM     19  O   UNL     1       7.149  -2.609  21.859  0.00  0.00    -0.506 OA
ATOM     20  H   UNL     1       7.295  -1.652  21.848  0.00  0.00    +0.292 HD
ENDBRANCH   5  19
TORSDOF 2
ENDMDL
