MODEL 1
REMARK VINA RESULT:      -6.7      0.000      0.000
REMARK  Name = 
REMARK  14 active torsions:
REMARK  status: ('A' for Active; 'I' for Inactive)
REMARK    1  A    between atoms: N_10  and  C_11
REMARK    2  A    between atoms: C_14  and  C_16
REMARK    3  A    between atoms: C_16  and  O_17
REMARK    4  A    between atoms: O_17  and  P_18
REMARK    5  A    between atoms: P_18  and  O_19
REMARK    6  A    between atoms: P_18  and  O_21
REMARK    7  A    between atoms: O_21  and  P_22
REMARK    8  A    between atoms: P_22  and  O_23
REMARK    9  A    between atoms: P_22  and  O_24
REMARK   10  A    between atoms: C_26  and  O_28
REMARK   11  A    between atoms: O_28  and  P_29
REMARK   12  A    between atoms: P_29  and  O_30
REMARK   13  A    between atoms: P_29  and  O_31
REMARK   14  A    between atoms: C_33  and  O_35
REMARK                            x       y       z     vdW  Elec       q    Type
REMARK                         _______ _______ _______ _____ _____    ______ ____
ROOT
ATOM      1  C   UNL     1       9.327  -3.790  24.533  0.00  0.00    +0.253 C 
ATOM      2  C   UNL     1       8.988  -4.683  25.754  0.00  0.00    +0.196 C 
ATOM      3  C   UNL     1       7.521  -5.123  25.543  0.00  0.00    +0.194 C 
ATOM      4  C   UNL     1       7.155  -4.513  24.192  0.00  0.00    +0.179 C 
ATOM      5  O   UNL     1       8.408  -4.286  23.517  0.00  0.00    -0.346 OA
ENDROOT
BRANCH   1  13
ATOM      6  N   UNL     1       9.395   2.265  24.024  0.00  0.00    -0.341 N 
ATOM      7  H   UNL     1       8.860   2.369  24.874  0.00  0.00    +0.144 HD
ATOM      8  H   UNL     1       9.339   2.971  23.304  0.00  0.00    +0.144 HD
ATOM      9  C   UNL     1       9.464   0.972  23.521  0.00  0.00    +0.147 A 
ATOM     10  C   UNL     1       9.199  -0.177  24.291  0.00  0.00    +0.147 A 
ATOM     11  N   UNL     1       8.835  -0.356  25.610  0.00  0.00    -0.231 NA
ATOM     12  C   UNL     1       8.814  -1.663  25.779  0.00  0.00    +0.203 A 
ATOM     13  N   UNL     1       9.166  -2.344  24.638  0.00  0.00    -0.286 N 
ATOM     14  C   UNL     1       9.340  -1.405  23.657  0.00  0.00    +0.167 A 
ATOM     15  N   UNL     1       9.686  -1.613  22.380  0.00  0.00    -0.216 NA
ATOM     16  C   UNL     1       9.940  -0.443  21.748  0.00  0.00    +0.225 A 
ATOM     17  N   UNL     1       9.814   0.814  22.226  0.00  0.00    -0.219 NA
ENDBRANCH   1  13
BRANCH   2  18
ATOM     18  O   UNL     1       9.819  -5.860  25.725  0.00  0.00    -0.385 OA
ATOM     19  H   UNL     1       9.285  -6.637  25.971  0.00  0.00    +0.210 HD
ENDBRANCH   2  18
BRANCH   3  20
ATOM     20  O   UNL     1       6.607  -4.709  26.569  0.00  0.00    -0.278 OA
BRANCH  20  21
ATOM     21  P   UNL     1       6.693  -5.755  27.944  0.00  0.00    +0.473 P 
ATOM     22  O   UNL     1       6.770  -6.692  29.175  0.00  0.00    -0.228 OA
BRANCH  21  23
ATOM     23  O   UNL     1       5.695  -6.700  27.061  0.00  0.00    -0.303 OA
ATOM     24  H   UNL     1       4.955  -6.135  26.776  0.00  0.00    +0.222 HD
ENDBRANCH  21  23
BRANCH  21  25
ATOM     25  O   UNL     1       5.473  -4.836  28.534  0.00  0.00    -0.303 OA
ATOM     26  H   UNL     1       4.732  -5.372  28.863  0.00  0.00    +0.222 HD
ENDBRANCH  21  25
ENDBRANCH  20  21
ENDBRANCH   3  20
BRANCH   4  27
ATOM     27  C   UNL     1       6.196  -5.363  23.373  0.00  0.00    +0.206 C 
BRANCH  27  28
ATOM     28  O   UNL     1       5.301  -5.970  24.294  0.00  0.00    -0.284 OA
BRANCH  28  29
ATOM     29  P   UNL     1       3.699  -5.956  23.979  0.00  0.00    +0.483 P 
ATOM     30  O   UNL     1       3.499  -5.982  22.457  0.00  0.00    -0.227 OA
BRANCH  29  31
ATOM     31  O   UNL     1       3.713  -7.686  23.939  0.00  0.00    -0.302 OA
ATOM     32  H   UNL     1       2.776  -7.931  23.806  0.00  0.00    +0.222 HD
ENDBRANCH  29  31
BRANCH  29  33
ATOM     33  O   UNL     1       3.683  -4.226  24.019  0.00  0.00    -0.186 OA
BRANCH  33  34
ATOM     34  P   UNL     1       3.340  -3.524  25.413  0.00  0.00    +0.481 P 
ATOM     35  O   UNL     1       2.022  -2.825  25.446  0.00  0.00    -0.227 OA
BRANCH  34  36
ATOM     36  O   UNL     1       4.648  -2.657  25.688  0.00  0.00    -0.302 OA
ATOM     37  H   UNL     1       4.431  -1.833  26.180  0.00  0.00    +0.222 HD
ENDBRANCH  34  36
BRANCH  34  38
ATOM     38  O   UNL     1       3.519  -4.755  26.409  0.00  0.00    -0.302 OA
ATOM     39  H   UNL     1       3.474  -5.617  25.967  0.00  0.00    +0.222 HD
ENDBRANCH  34  38
ENDBRANCH  33  34
ENDBRANCH  29  33
ENDBRANCH  28  29
ENDBRANCH  27  28
ENDBRANCH   4  27
TORSDOF 14
ENDMDL
MODEL 2
REMARK VINA RESULT:      -6.7      1.786      3.217
REMARK  Name = 
REMARK  14 active torsions:
REMARK  status: ('A' for Active; 'I' for Inactive)
REMARK    1  A    between atoms: N_10  and  C_11
REMARK    2  A    between atoms: C_14  and  C_16
REMARK    3  A    between atoms: C_16  and  O_17
REMARK    4  A    between atoms: O_17  and  P_18
REMARK    5  A    between atoms: P_18  and  O_19
REMARK    6  A    between atoms: P_18  and  O_21
REMARK    7  A    between atoms: O_21  and  P_22
REMARK    8  A    between atoms: P_22  and  O_23
REMARK    9  A    between atoms: P_22  and  O_24
REMARK   10  A    between atoms: C_26  and  O_28
REMARK   11  A    between atoms: O_28  and  P_29
REMARK   12  A    between atoms: P_29  and  O_30
REMARK   13  A    between atoms: P_29  and  O_31
REMARK   14  A    between atoms: C_33  and  O_35
REMARK                            x       y       z     vdW  Elec       q    Type
REMARK                         _______ _______ _______ _____ _____    ______ ____
ROOT
ATOM      1  C   UNL     1       7.250  -2.574  22.486  0.00  0.00    +0.253 C 
ATOM      2  C   UNL     1       7.592  -3.919  23.176  0.00  0.00    +0.196 C 
ATOM      3  C   UNL     1       7.068  -3.781  24.623  0.00  0.00    +0.194 C 
ATOM      4  C   UNL     1       6.405  -2.406  24.634  0.00  0.00    +0.179 C 
ATOM      5  O   UNL     1       6.104  -2.110  23.255  0.00  0.00    -0.346 OA
ENDROOT
BRANCH   1  13
ATOM      6  N   UNL     1      10.525   2.509  21.885  0.00  0.00    -0.341 N 
ATOM      7  H   UNL     1      11.367   2.031  22.171  0.00  0.00    +0.144 HD
ATOM      8  H   UNL     1      10.430   3.501  22.045  0.00  0.00    +0.144 HD
ATOM      9  C   UNL     1       9.347   1.804  22.089  0.00  0.00    +0.147 A 
ATOM     10  C   UNL     1       9.296   0.409  22.273  0.00  0.00    +0.147 A 
ATOM     11  N   UNL     1      10.271  -0.566  22.307  0.00  0.00    -0.231 NA
ATOM     12  C   UNL     1       9.611  -1.700  22.428  0.00  0.00    +0.203 A 
ATOM     13  N   UNL     1       8.249  -1.512  22.455  0.00  0.00    -0.286 N 
ATOM     14  C   UNL     1       8.038  -0.159  22.435  0.00  0.00    +0.167 A 
ATOM     15  N   UNL     1       6.864   0.485  22.450  0.00  0.00    -0.216 NA
ATOM     16  C   UNL     1       7.034   1.810  22.239  0.00  0.00    +0.225 A 
ATOM     17  N   UNL     1       8.188   2.498  22.099  0.00  0.00    -0.219 NA
ENDBRANCH   1  13
BRANCH   2  18
ATOM     18  O   UNL     1       6.862  -4.982  22.532  0.00  0.00    -0.385 OA
ATOM     19  H   UNL     1       6.282  -5.415  23.185  0.00  0.00    +0.210 HD
ENDBRANCH   2  18
BRANCH   3  20
ATOM     20  O   UNL     1       8.068  -3.888  25.647  0.00  0.00    -0.278 OA
BRANCH  20  21
ATOM     21  P   UNL     1       7.618  -5.054  26.843  0.00  0.00    +0.473 P 
ATOM     22  O   UNL     1       7.217  -6.099  27.913  0.00  0.00    -0.228 OA
BRANCH  21  23
ATOM     23  O   UNL     1       8.882  -5.895  26.238  0.00  0.00    -0.303 OA
ATOM     24  H   UNL     1       8.878  -5.750  25.274  0.00  0.00    +0.222 HD
ENDBRANCH  21  23
BRANCH  21  25
ATOM     25  O   UNL     1       6.575  -5.599  25.706  0.00  0.00    -0.303 OA
ATOM     26  H   UNL     1       5.757  -5.955  26.094  0.00  0.00    +0.222 HD
ENDBRANCH  21  25
ENDBRANCH  20  21
ENDBRANCH   3  20
BRANCH   4  27
ATOM     27  C   UNL     1       5.179  -2.320  25.530  0.00  0.00    +0.206 C 
BRANCH  27  28
ATOM     28  O   UNL     1       4.663  -3.638  25.642  0.00  0.00    -0.284 OA
BRANCH  28  29
ATOM     29  P   UNL     1       3.071  -3.898  25.384  0.00  0.00    +0.483 P 
ATOM     30  O   UNL     1       2.417  -4.290  26.717  0.00  0.00    -0.227 OA
BRANCH  29  31
ATOM     31  O   UNL     1       2.758  -2.246  25.793  0.00  0.00    -0.302 OA
ATOM     32  H   UNL     1       2.355  -2.291  26.684  0.00  0.00    +0.222 HD
ENDBRANCH  29  31
BRANCH  29  33
ATOM     33  O   UNL     1       3.383  -5.549  24.974  0.00  0.00    -0.186 OA
BRANCH  33  34
ATOM     34  P   UNL     1       3.554  -5.906  23.425  0.00  0.00    +0.481 P 
ATOM     35  O   UNL     1       2.332  -6.472  22.782  0.00  0.00    -0.227 OA
BRANCH  34  36
ATOM     36  O   UNL     1       4.875  -6.796  23.425  0.00  0.00    -0.302 OA
ATOM     37  H   UNL     1       5.284  -6.825  24.320  0.00  0.00    +0.222 HD
ENDBRANCH  34  36
BRANCH  34  38
ATOM     38  O   UNL     1       4.073  -4.508  22.864  0.00  0.00    -0.302 OA
ATOM     39  H   UNL     1       4.861  -4.177  23.321  0.00  0.00    +0.222 HD
ENDBRANCH  34  38
ENDBRANCH  33  34
ENDBRANCH  29  33
ENDBRANCH  28  29
ENDBRANCH  27  28
ENDBRANCH   4  27
TORSDOF 14
ENDMDL
MODEL 3
REMARK VINA RESULT:      -6.7      2.016      3.417
REMARK  Name = 
REMARK  14 active torsions:
REMARK  status: ('A' for Active; 'I' for Inactive)
REMARK    1  A    between atoms: N_10  and  C_11
REMARK    2  A    between atoms: C_14  and  C_16
REMARK    3  A    between atoms: C_16  and  O_17
REMARK    4  A    between atoms: O_17  and  P_18
REMARK    5  A    between atoms: P_18  and  O_19
REMARK    6  A    between atoms: P_18  and  O_21
REMARK    7  A    between atoms: O_21  and  P_22
REMARK    8  A    between atoms: P_22  and  O_23
REMARK    9  A    between atoms: P_22  and  O_24
REMARK   10  A    between atoms: C_26  and  O_28
REMARK   11  A    between atoms: O_28  and  P_29
REMARK   12  A    between atoms: P_29  and  O_30
REMARK   13  A    between atoms: P_29  and  O_31
REMARK   14  A    between atoms: C_33  and  O_35
REMARK                            x       y       z     vdW  Elec       q    Type
REMARK                         _______ _______ _______ _____ _____    ______ ____
ROOT
ATOM      1  C   UNL     1       6.367  -3.095  22.484  0.00  0.00    +0.253 C 
ATOM      2  C   UNL     1       7.110  -4.446  22.645  0.00  0.00    +0.196 C 
ATOM      3  C   UNL     1       6.447  -5.135  23.858  0.00  0.00    +0.194 C 
ATOM      4  C   UNL     1       5.334  -4.168  24.255  0.00  0.00    +0.179 C 
ATOM      5  O   UNL     1       5.068  -3.379  23.078  0.00  0.00    -0.346 OA
ENDROOT
BRANCH   1  13
ATOM      6  N   UNL     1       9.705   1.382  24.881  0.00  0.00    -0.341 N 
ATOM      7  H   UNL     1       8.879   1.852  25.220  0.00  0.00    +0.144 HD
ATOM      8  H   UNL     1      10.535   1.915  24.663  0.00  0.00    +0.144 HD
ATOM      9  C   UNL     1       9.472   0.343  23.989  0.00  0.00    +0.147 A 
ATOM     10  C   UNL     1       8.230  -0.310  23.863  0.00  0.00    +0.147 A 
ATOM     11  N   UNL     1       7.017  -0.143  24.498  0.00  0.00    -0.231 NA
ATOM     12  C   UNL     1       6.251  -1.101  24.019  0.00  0.00    +0.203 A 
ATOM     13  N   UNL     1       6.913  -1.899  23.115  0.00  0.00    -0.286 N 
ATOM     14  C   UNL     1       8.159  -1.354  22.949  0.00  0.00    +0.167 A 
ATOM     15  N   UNL     1       9.145  -1.797  22.160  0.00  0.00    -0.216 NA
ATOM     16  C   UNL     1      10.292  -1.116  22.386  0.00  0.00    +0.225 A 
ATOM     17  N   UNL     1      10.498  -0.067  23.212  0.00  0.00    -0.219 NA
ENDBRANCH   1  13
BRANCH   2  18
ATOM     18  O   UNL     1       6.871  -5.259  21.479  0.00  0.00    -0.385 OA
ATOM     19  H   UNL     1       6.245  -5.971  21.706  0.00  0.00    +0.210 HD
ENDBRANCH   2  18
BRANCH   3  20
ATOM     20  O   UNL     1       7.324  -5.405  24.961  0.00  0.00    -0.278 OA
BRANCH  20  21
ATOM     21  P   UNL     1       8.876  -4.681  24.719  0.00  0.00    +0.473 P 
ATOM     22  O   UNL     1      10.266  -4.033  24.502  0.00  0.00    -0.228 OA
BRANCH  21  23
ATOM     23  O   UNL     1       9.406  -5.954  25.594  0.00  0.00    -0.303 OA
ATOM     24  H   UNL     1      10.000  -6.464  25.014  0.00  0.00    +0.222 HD
ENDBRANCH  21  23
BRANCH  21  25
ATOM     25  O   UNL     1       8.504  -3.791  26.042  0.00  0.00    -0.303 OA
ATOM     26  H   UNL     1       9.102  -3.969  26.788  0.00  0.00    +0.222 HD
ENDBRANCH  21  25
ENDBRANCH  20  21
ENDBRANCH   3  20
BRANCH   4  27
ATOM     27  C   UNL     1       4.086  -4.853  24.793  0.00  0.00    +0.206 C 
BRANCH  27  28
ATOM     28  O   UNL     1       4.468  -6.174  25.148  0.00  0.00    -0.284 OA
BRANCH  28  29
ATOM     29  P   UNL     1       4.064  -6.755  26.620  0.00  0.00    +0.483 P 
ATOM     30  O   UNL     1       2.783  -6.051  27.090  0.00  0.00    -0.227 OA
BRANCH  29  31
ATOM     31  O   UNL     1       3.055  -7.934  25.853  0.00  0.00    -0.302 OA
ATOM     32  H   UNL     1       2.160  -7.539  25.882  0.00  0.00    +0.222 HD
ENDBRANCH  29  31
BRANCH  29  33
ATOM     33  O   UNL     1       5.073  -5.578  27.387  0.00  0.00    -0.186 OA
BRANCH  33  34
ATOM     34  P   UNL     1       6.041  -6.084  28.554  0.00  0.00    +0.481 P 
ATOM     35  O   UNL     1       5.897  -5.344  29.842  0.00  0.00    -0.227 OA
BRANCH  34  36
ATOM     36  O   UNL     1       7.467  -6.070  27.843  0.00  0.00    -0.302 OA
ATOM     37  H   UNL     1       7.376  -6.090  26.863  0.00  0.00    +0.222 HD
ENDBRANCH  34  36
BRANCH  34  38
ATOM     38  O   UNL     1       5.678  -7.636  28.578  0.00  0.00    -0.302 OA
ATOM     39  H   UNL     1       6.444  -8.213  28.441  0.00  0.00    +0.222 HD
ENDBRANCH  34  38
ENDBRANCH  33  34
ENDBRANCH  29  33
ENDBRANCH  28  29
ENDBRANCH  27  28
ENDBRANCH   4  27
TORSDOF 14
ENDMDL
MODEL 4
REMARK VINA RESULT:      -6.6      4.508      6.851
REMARK  Name = 
REMARK  14 active torsions:
REMARK  status: ('A' for Active; 'I' for Inactive)
REMARK    1  A    between atoms: N_10  and  C_11
REMARK    2  A    between atoms: C_14  and  C_16
REMARK    3  A    between atoms: C_16  and  O_17
REMARK    4  A    between atoms: O_17  and  P_18
REMARK    5  A    between atoms: P_18  and  O_19
REMARK    6  A    between atoms: P_18  and  O_21
REMARK    7  A    between atoms: O_21  and  P_22
REMARK    8  A    between atoms: P_22  and  O_23
REMARK    9  A    between atoms: P_22  and  O_24
REMARK   10  A    between atoms: C_26  and  O_28
REMARK   11  A    between atoms: O_28  and  P_29
REMARK   12  A    between atoms: P_29  and  O_30
REMARK   13  A    between atoms: P_29  and  O_31
REMARK   14  A    between atoms: C_33  and  O_35
REMARK                            x       y       z     vdW  Elec       q    Type
REMARK                         _______ _______ _______ _____ _____    ______ ____
ROOT
ATOM      1  C   UNL     1       6.715  -1.725  24.419  0.00  0.00    +0.253 C 
ATOM      2  C   UNL     1       7.926  -2.127  25.300  0.00  0.00    +0.196 C 
ATOM      3  C   UNL     1       9.144  -2.120  24.349  0.00  0.00    +0.194 C 
ATOM      4  C   UNL     1       8.558  -1.648  23.021  0.00  0.00    +0.179 C 
ATOM      5  O   UNL     1       7.344  -0.948  23.359  0.00  0.00    -0.346 OA
ENDROOT
BRANCH   1  13
ATOM      6  N   UNL     1       3.553  -6.679  22.874  0.00  0.00    -0.341 N 
ATOM      7  H   UNL     1       3.369  -6.306  21.954  0.00  0.00    +0.144 HD
ATOM      8  H   UNL     1       2.906  -7.332  23.291  0.00  0.00    +0.144 HD
ATOM      9  C   UNL     1       4.083  -5.774  23.784  0.00  0.00    +0.147 A 
ATOM     10  C   UNL     1       4.716  -4.573  23.408  0.00  0.00    +0.147 A 
ATOM     11  N   UNL     1       4.971  -3.994  22.182  0.00  0.00    -0.231 NA
ATOM     12  C   UNL     1       5.669  -2.911  22.460  0.00  0.00    +0.203 A 
ATOM     13  N   UNL     1       5.898  -2.766  23.808  0.00  0.00    -0.286 N 
ATOM     14  C   UNL     1       5.226  -3.784  24.432  0.00  0.00    +0.167 A 
ATOM     15  N   UNL     1       5.165  -4.037  25.746  0.00  0.00    -0.216 NA
ATOM     16  C   UNL     1       4.561  -5.224  25.984  0.00  0.00    +0.225 A 
ATOM     17  N   UNL     1       3.995  -6.072  25.098  0.00  0.00    -0.219 NA
ENDBRANCH   1  13
BRANCH   2  18
ATOM     18  O   UNL     1       8.135  -1.117  26.308  0.00  0.00    -0.385 OA
ATOM     19  H   UNL     1       8.605  -0.361  25.911  0.00  0.00    +0.210 HD
ENDBRANCH   2  18
BRANCH   3  20
ATOM     20  O   UNL     1       9.813  -3.381  24.207  0.00  0.00    -0.278 OA
BRANCH  20  21
ATOM     21  P   UNL     1       9.044  -4.610  25.151  0.00  0.00    +0.473 P 
ATOM     22  O   UNL     1       8.355  -5.710  25.996  0.00  0.00    -0.228 OA
BRANCH  21  23
ATOM     23  O   UNL     1      10.503  -5.340  25.061  0.00  0.00    -0.303 OA
ATOM     24  H   UNL     1      10.343  -6.245  24.737  0.00  0.00    +0.222 HD
ENDBRANCH  21  23
BRANCH  21  25
ATOM     25  O   UNL     1       8.542  -5.197  23.707  0.00  0.00    -0.303 OA
ATOM     26  H   UNL     1       8.995  -6.024  23.467  0.00  0.00    +0.222 HD
ENDBRANCH  21  25
ENDBRANCH  20  21
ENDBRANCH   3  20
BRANCH   4  27
ATOM     27  C   UNL     1       9.511  -0.797  22.195  0.00  0.00    +0.206 C 
BRANCH  27  28
ATOM     28  O   UNL     1      10.158   0.084  23.101  0.00  0.00    -0.284 OA
BRANCH  28  29
ATOM     29  P   UNL     1       9.678   1.644  23.180  0.00  0.00    +0.483 P 
ATOM     30  O   UNL     1      10.870   2.500  23.633  0.00  0.00    -0.227 OA
BRANCH  29  31
ATOM     31  O   UNL     1      10.221   1.870  21.552  0.00  0.00    -0.302 OA
ATOM     32  H   UNL     1      10.603   1.004  21.304  0.00  0.00    +0.222 HD
ENDBRANCH  29  31
BRANCH  29  33
ATOM     33  O   UNL     1       9.135   1.419  24.806  0.00  0.00    -0.186 OA
BRANCH  33  34
ATOM     34  P   UNL     1       7.925   2.332  25.313  0.00  0.00    +0.481 P 
ATOM     35  O   UNL     1       8.190   3.799  25.254  0.00  0.00    -0.227 OA
BRANCH  34  36
ATOM     36  O   UNL     1       7.589   1.694  26.734  0.00  0.00    -0.302 OA
ATOM     37  H   UNL     1       7.849   0.746  26.768  0.00  0.00    +0.222 HD
ENDBRANCH  34  36
BRANCH  34  38
ATOM     38  O   UNL     1       6.744   1.782  24.394  0.00  0.00    -0.302 OA
ATOM     39  H   UNL     1       7.045   1.172  23.704  0.00  0.00    +0.222 HD
ENDBRANCH  34  38
ENDBRANCH  33  34
ENDBRANCH  29  33
ENDBRANCH  28  29
ENDBRANCH  27  28
ENDBRANCH   4  27
TORSDOF 14
ENDMDL
MODEL 5
REMARK VINA RESULT:      -6.6      1.979      3.125
REMARK  Name = 
REMARK  14 active torsions:
REMARK  status: ('A' for Active; 'I' for Inactive)
REMARK    1  A    between atoms: N_10  and  C_11
REMARK    2  A    between atoms: C_14  and  C_16
REMARK    3  A    between atoms: C_16  and  O_17
REMARK    4  A    between atoms: O_17  and  P_18
REMARK    5  A    between atoms: P_18  and  O_19
REMARK    6  A    between atoms: P_18  and  O_21
REMARK    7  A    between atoms: O_21  and  P_22
REMARK    8  A    between atoms: P_22  and  O_23
REMARK    9  A    between atoms: P_22  and  O_24
REMARK   10  A    between atoms: C_26  and  O_28
REMARK   11  A    between atoms: O_28  and  P_29
REMARK   12  A    between atoms: P_29  and  O_30
REMARK   13  A    between atoms: P_29  and  O_31
REMARK   14  A    between atoms: C_33  and  O_35
REMARK                            x       y       z     vdW  Elec       q    Type
REMARK                         _______ _______ _______ _____ _____    ______ ____
ROOT
ATOM      1  C   UNL     1       5.961  -3.007  22.956  0.00  0.00    +0.253 C 
ATOM      2  C   UNL     1       6.772  -4.120  22.244  0.00  0.00    +0.196 C 
ATOM      3  C   UNL     1       7.001  -5.208  23.318  0.00  0.00    +0.194 C 
ATOM      4  C   UNL     1       6.249  -4.674  24.535  0.00  0.00    +0.179 C 
ATOM      5  O   UNL     1       5.281  -3.741  24.014  0.00  0.00    -0.346 OA
ENDROOT
BRANCH   1  13
ATOM      6  N   UNL     1       9.883   1.161  25.000  0.00  0.00    -0.341 N 
ATOM      7  H   UNL     1       9.153   1.636  25.510  0.00  0.00    +0.144 HD
ATOM      8  H   UNL     1      10.687   1.678  24.673  0.00  0.00    +0.144 HD
ATOM      9  C   UNL     1       9.446   0.198  24.100  0.00  0.00    +0.147 A 
ATOM     10  C   UNL     1       8.171  -0.398  24.155  0.00  0.00    +0.147 A 
ATOM     11  N   UNL     1       7.097  -0.232  25.006  0.00  0.00    -0.231 NA
ATOM     12  C   UNL     1       6.213  -1.125  24.610  0.00  0.00    +0.203 A 
ATOM     13  N   UNL     1       6.668  -1.880  23.554  0.00  0.00    -0.286 N 
ATOM     14  C   UNL     1       7.890  -1.370  23.205  0.00  0.00    +0.167 A 
ATOM     15  N   UNL     1       8.700  -1.793  22.226  0.00  0.00    -0.216 NA
ATOM     16  C   UNL     1       9.901  -1.172  22.287  0.00  0.00    +0.225 A 
ATOM     17  N   UNL     1      10.299  -0.193  23.128  0.00  0.00    -0.219 NA
ENDBRANCH   1  13
BRANCH   2  18
ATOM     18  O   UNL     1       5.970  -4.690  21.190  0.00  0.00    -0.385 OA
ATOM     19  H   UNL     1       6.555  -5.108  20.532  0.00  0.00    +0.210 HD
ENDBRANCH   2  18
BRANCH   3  20
ATOM     20  O   UNL     1       8.376  -5.478  23.629  0.00  0.00    -0.278 OA
BRANCH  20  21
ATOM     21  P   UNL     1       8.798  -4.859  25.188  0.00  0.00    +0.473 P 
ATOM     22  O   UNL     1       9.177  -4.305  26.584  0.00  0.00    -0.228 OA
BRANCH  21  23
ATOM     23  O   UNL     1       9.805  -3.897  24.334  0.00  0.00    -0.303 OA
ATOM     24  H   UNL     1      10.195  -3.268  24.967  0.00  0.00    +0.222 HD
ENDBRANCH  21  23
BRANCH  21  25
ATOM     25  O   UNL     1       9.856  -6.107  25.233  0.00  0.00    -0.303 OA
ATOM     26  H   UNL     1       9.435  -6.940  25.506  0.00  0.00    +0.222 HD
ENDBRANCH  21  25
ENDBRANCH  20  21
ENDBRANCH   3  20
BRANCH   4  27
ATOM     27  C   UNL     1       5.612  -5.759  25.390  0.00  0.00    +0.206 C 
BRANCH  27  28
ATOM     28  O   UNL     1       4.529  -6.286  24.638  0.00  0.00    -0.284 OA
BRANCH  28  29
ATOM     29  P   UNL     1       3.274  -6.979  25.422  0.00  0.00    +0.483 P 
ATOM     30  O   UNL     1       3.323  -8.495  25.180  0.00  0.00    -0.227 OA
BRANCH  29  31
ATOM     31  O   UNL     1       4.300  -7.233  26.793  0.00  0.00    -0.302 OA
ATOM     32  H   UNL     1       5.152  -7.518  26.406  0.00  0.00    +0.222 HD
ENDBRANCH  29  31
BRANCH  29  33
ATOM     33  O   UNL     1       2.248  -6.726  24.053  0.00  0.00    -0.186 OA
BRANCH  33  34
ATOM     34  P   UNL     1       2.027  -5.219  23.566  0.00  0.00    +0.481 P 
ATOM     35  O   UNL     1       0.674  -4.945  22.998  0.00  0.00    -0.227 OA
BRANCH  34  36
ATOM     36  O   UNL     1       3.290  -4.976  22.627  0.00  0.00    -0.302 OA
ATOM     37  H   UNL     1       3.535  -5.797  22.141  0.00  0.00    +0.222 HD
ENDBRANCH  34  36
BRANCH  34  38
ATOM     38  O   UNL     1       2.418  -4.427  24.892  0.00  0.00    -0.302 OA
ATOM     39  H   UNL     1       2.977  -3.653  24.727  0.00  0.00    +0.222 HD
ENDBRANCH  34  38
ENDBRANCH  33  34
ENDBRANCH  29  33
ENDBRANCH  28  29
ENDBRANCH  27  28
ENDBRANCH   4  27
TORSDOF 14
ENDMDL
MODEL 6
REMARK VINA RESULT:      -6.5      0.962      1.842
REMARK  Name = 
REMARK  14 active torsions:
REMARK  status: ('A' for Active; 'I' for Inactive)
REMARK    1  A    between atoms: N_10  and  C_11
REMARK    2  A    between atoms: C_14  and  C_16
REMARK    3  A    between atoms: C_16  and  O_17
REMARK    4  A    between atoms: O_17  and  P_18
REMARK    5  A    between atoms: P_18  and  O_19
REMARK    6  A    between atoms: P_18  and  O_21
REMARK    7  A    between atoms: O_21  and  P_22
REMARK    8  A    between atoms: P_22  and  O_23
REMARK    9  A    between atoms: P_22  and  O_24
REMARK   10  A    between atoms: C_26  and  O_28
REMARK   11  A    between atoms: O_28  and  P_29
REMARK   12  A    between atoms: P_29  and  O_30
REMARK   13  A    between atoms: P_29  and  O_31
REMARK   14  A    between atoms: C_33  and  O_35
REMARK                            x       y       z     vdW  Elec       q    Type
REMARK                         _______ _______ _______ _____ _____    ______ ____
ROOT
ATOM      1  C   UNL     1       9.501  -3.499  24.596  0.00  0.00    +0.253 C 
ATOM      2  C   UNL     1       9.083  -4.378  25.803  0.00  0.00    +0.196 C 
ATOM      3  C   UNL     1       7.652  -4.862  25.479  0.00  0.00    +0.194 C 
ATOM      4  C   UNL     1       7.386  -4.289  24.089  0.00  0.00    +0.179 C 
ATOM      5  O   UNL     1       8.685  -4.040  23.517  0.00  0.00    -0.346 OA
ENDROOT
BRANCH   1  13
ATOM      6  N   UNL     1       9.333   2.532  23.868  0.00  0.00    -0.341 N 
ATOM      7  H   UNL     1       8.833   2.649  24.737  0.00  0.00    +0.144 HD
ATOM      8  H   UNL     1       9.219   3.208  23.127  0.00  0.00    +0.144 HD
ATOM      9  C   UNL     1       9.424   1.224  23.410  0.00  0.00    +0.147 A 
ATOM     10  C   UNL     1       9.235   0.096  24.231  0.00  0.00    +0.147 A 
ATOM     11  N   UNL     1       8.937  -0.046  25.571  0.00  0.00    -0.231 NA
ATOM     12  C   UNL     1       8.969  -1.345  25.787  0.00  0.00    +0.203 A 
ATOM     13  N   UNL     1       9.294  -2.057  24.656  0.00  0.00    -0.286 N 
ATOM     14  C   UNL     1       9.391  -1.149  23.635  0.00  0.00    +0.167 A 
ATOM     15  N   UNL     1       9.687  -1.392  22.352  0.00  0.00    -0.216 NA
ATOM     16  C   UNL     1       9.870  -0.239  21.668  0.00  0.00    +0.225 A 
ATOM     17  N   UNL     1       9.722   1.030  22.106  0.00  0.00    -0.219 NA
ENDBRANCH   1  13
BRANCH   2  18
ATOM     18  O   UNL     1       9.945  -5.532  25.869  0.00  0.00    -0.385 OA
ATOM     19  H   UNL     1      10.372  -5.563  26.744  0.00  0.00    +0.210 HD
ENDBRANCH   2  18
BRANCH   3  20
ATOM     20  O   UNL     1       6.644  -4.455  26.415  0.00  0.00    -0.278 OA
BRANCH  20  21
ATOM     21  P   UNL     1       6.458  -5.617  27.682  0.00  0.00    +0.473 P 
ATOM     22  O   UNL     1       6.292  -6.659  28.816  0.00  0.00    -0.228 OA
BRANCH  21  23
ATOM     23  O   UNL     1       6.050  -6.619  26.457  0.00  0.00    -0.303 OA
ATOM     24  H   UNL     1       5.773  -7.460  26.865  0.00  0.00    +0.222 HD
ENDBRANCH  21  23
BRANCH  21  25
ATOM     25  O   UNL     1       4.948  -5.003  27.824  0.00  0.00    -0.303 OA
ATOM     26  H   UNL     1       4.264  -5.695  27.812  0.00  0.00    +0.222 HD
ENDBRANCH  21  25
ENDBRANCH  20  21
ENDBRANCH   3  20
BRANCH   4  27
ATOM     27  C   UNL     1       6.523  -5.181  23.210  0.00  0.00    +0.206 C 
BRANCH  27  28
ATOM     28  O   UNL     1       5.437  -5.618  24.015  0.00  0.00    -0.284 OA
BRANCH  28  29
ATOM     29  P   UNL     1       3.964  -4.942  23.806  0.00  0.00    +0.483 P 
ATOM     30  O   UNL     1       4.008  -3.500  24.332  0.00  0.00    -0.227 OA
BRANCH  29  31
ATOM     31  O   UNL     1       4.487  -4.329  22.275  0.00  0.00    -0.302 OA
ATOM     32  H   UNL     1       4.961  -3.502  22.496  0.00  0.00    +0.222 HD
ENDBRANCH  29  31
BRANCH  29  33
ATOM     33  O   UNL     1       3.441  -5.556  25.337  0.00  0.00    -0.186 OA
BRANCH  33  34
ATOM     34  P   UNL     1       2.845  -7.039  25.372  0.00  0.00    +0.481 P 
ATOM     35  O   UNL     1       1.401  -7.134  25.009  0.00  0.00    -0.227 OA
BRANCH  34  36
ATOM     36  O   UNL     1       3.283  -7.546  26.817  0.00  0.00    -0.302 OA
ATOM     37  H   UNL     1       2.662  -7.227  27.510  0.00  0.00    +0.222 HD
ENDBRANCH  34  36
BRANCH  34  38
ATOM     38  O   UNL     1       3.873  -7.786  24.411  0.00  0.00    -0.302 OA
ATOM     39  H   UNL     1       4.047  -7.307  23.586  0.00  0.00    +0.222 HD
ENDBRANCH  34  38
ENDBRANCH  33  34
ENDBRANCH  29  33
ENDBRANCH  28  29
ENDBRANCH  27  28
ENDBRANCH   4  27
TORSDOF 14
ENDMDL
MODEL 7
REMARK VINA RESULT:      -6.5      1.530      2.127
REMARK  Name = 
REMARK  14 active torsions:
REMARK  status: ('A' for Active; 'I' for Inactive)
REMARK    1  A    between atoms: N_10  and  C_11
REMARK    2  A    between atoms: C_14  and  C_16
REMARK    3  A    between atoms: C_16  and  O_17
REMARK    4  A    between atoms: O_17  and  P_18
REMARK    5  A    between atoms: P_18  and  O_19
REMARK    6  A    between atoms: P_18  and  O_21
REMARK    7  A    between atoms: O_21  and  P_22
REMARK    8  A    between atoms: P_22  and  O_23
REMARK    9  A    between atoms: P_22  and  O_24
REMARK   10  A    between atoms: C_26  and  O_28
REMARK   11  A    between atoms: O_28  and  P_29
REMARK   12  A    between atoms: P_29  and  O_30
REMARK   13  A    between atoms: P_29  and  O_31
REMARK   14  A    between atoms: C_33  and  O_35
REMARK                            x       y       z     vdW  Elec       q    Type
REMARK                         _______ _______ _______ _____ _____    ______ ____
ROOT
ATOM      1  C   UNL     1       9.216  -2.933  23.751  0.00  0.00    +0.253 C 
ATOM      2  C   UNL     1       9.164  -3.963  24.909  0.00  0.00    +0.196 C 
ATOM      3  C   UNL     1       7.668  -4.086  25.279  0.00  0.00    +0.194 C 
ATOM      4  C   UNL     1       6.973  -3.179  24.266  0.00  0.00    +0.179 C 
ATOM      5  O   UNL     1       7.890  -3.057  23.161  0.00  0.00    -0.346 OA
ENDROOT
BRANCH   1  13
ATOM      6  N   UNL     1      10.457   3.015  23.846  0.00  0.00    -0.341 N 
ATOM      7  H   UNL     1      10.391   3.039  24.853  0.00  0.00    +0.144 HD
ATOM      8  H   UNL     1      10.254   3.845  23.308  0.00  0.00    +0.144 HD
ATOM      9  C   UNL     1       9.995   1.849  23.251  0.00  0.00    +0.147 A 
ATOM     10  C   UNL     1       9.837   0.631  23.942  0.00  0.00    +0.147 A 
ATOM     11  N   UNL     1      10.061   0.265  25.253  0.00  0.00    -0.231 NA
ATOM     12  C   UNL     1       9.813  -1.029  25.287  0.00  0.00    +0.203 A 
ATOM     13  N   UNL     1       9.458  -1.528  24.056  0.00  0.00    -0.286 N 
ATOM     14  C   UNL     1       9.395  -0.458  23.202  0.00  0.00    +0.167 A 
ATOM     15  N   UNL     1       9.085  -0.471  21.900  0.00  0.00    -0.216 NA
ATOM     16  C   UNL     1       9.299   0.741  21.337  0.00  0.00    +0.225 A 
ATOM     17  N   UNL     1       9.692   1.887  21.935  0.00  0.00    -0.219 NA
ENDBRANCH   1  13
BRANCH   2  18
ATOM     18  O   UNL     1       9.614  -5.244  24.423  0.00  0.00    -0.385 OA
ATOM     19  H   UNL     1      10.111  -5.698  25.129  0.00  0.00    +0.210 HD
ENDBRANCH   2  18
BRANCH   3  20
ATOM     20  O   UNL     1       7.341  -3.714  26.626  0.00  0.00    -0.278 OA
BRANCH  20  21
ATOM     21  P   UNL     1       6.849  -5.089  27.553  0.00  0.00    +0.473 P 
ATOM     22  O   UNL     1       6.408  -6.320  28.383  0.00  0.00    -0.228 OA
BRANCH  21  23
ATOM     23  O   UNL     1       7.243  -5.916  26.200  0.00  0.00    -0.303 OA
ATOM     24  H   UNL     1       7.982  -6.506  26.439  0.00  0.00    +0.222 HD
ENDBRANCH  21  23
BRANCH  21  25
ATOM     25  O   UNL     1       5.345  -4.725  27.020  0.00  0.00    -0.303 OA
ATOM     26  H   UNL     1       4.665  -5.303  27.406  0.00  0.00    +0.222 HD
ENDBRANCH  21  25
ENDBRANCH  20  21
ENDBRANCH   3  20
BRANCH   4  27
ATOM     27  C   UNL     1       5.602  -3.675  23.835  0.00  0.00    +0.206 C 
BRANCH  27  28
ATOM     28  O   UNL     1       5.652  -5.094  23.871  0.00  0.00    -0.284 OA
BRANCH  28  29
ATOM     29  P   UNL     1       5.548  -5.933  22.473  0.00  0.00    +0.483 P 
ATOM     30  O   UNL     1       5.632  -4.944  21.301  0.00  0.00    -0.227 OA
BRANCH  29  31
ATOM     31  O   UNL     1       7.276  -6.028  22.428  0.00  0.00    -0.302 OA
ATOM     32  H   UNL     1       7.486  -6.827  22.954  0.00  0.00    +0.222 HD
ENDBRANCH  29  31
BRANCH  29  33
ATOM     33  O   UNL     1       3.822  -5.838  22.518  0.00  0.00    -0.186 OA
BRANCH  33  34
ATOM     34  P   UNL     1       3.063  -6.707  23.624  0.00  0.00    +0.481 P 
ATOM     35  O   UNL     1       1.852  -7.423  23.126  0.00  0.00    -0.227 OA
BRANCH  34  36
ATOM     36  O   UNL     1       2.874  -5.659  24.809  0.00  0.00    -0.302 OA
ATOM     37  H   UNL     1       3.732  -5.457  25.245  0.00  0.00    +0.222 HD
ENDBRANCH  34  36
BRANCH  34  38
ATOM     38  O   UNL     1       4.263  -7.615  24.149  0.00  0.00    -0.302 OA
ATOM     39  H   UNL     1       3.978  -8.489  24.457  0.00  0.00    +0.222 HD
ENDBRANCH  34  38
ENDBRANCH  33  34
ENDBRANCH  29  33
ENDBRANCH  28  29
ENDBRANCH  27  28
ENDBRANCH   4  27
TORSDOF 14
ENDMDL
MODEL 8
REMARK VINA RESULT:      -6.5      4.514      7.413
REMARK  Name = 
REMARK  14 active torsions:
REMARK  status: ('A' for Active; 'I' for Inactive)
REMARK    1  A    between atoms: N_10  and  C_11
REMARK    2  A    between atoms: C_14  and  C_16
REMARK    3  A    between atoms: C_16  and  O_17
REMARK    4  A    between atoms: O_17  and  P_18
REMARK    5  A    between atoms: P_18  and  O_19
REMARK    6  A    between atoms: P_18  and  O_21
REMARK    7  A    between atoms: O_21  and  P_22
REMARK    8  A    between atoms: P_22  and  O_23
REMARK    9  A    between atoms: P_22  and  O_24
REMARK   10  A    between atoms: C_26  and  O_28
REMARK   11  A    between atoms: O_28  and  P_29
REMARK   12  A    between atoms: P_29  and  O_30
REMARK   13  A    between atoms: P_29  and  O_31
REMARK   14  A    between atoms: C_33  and  O_35
REMARK                            x       y       z     vdW  Elec       q    Type
REMARK                         _______ _______ _______ _____ _____    ______ ____
ROOT
ATOM      1  C   UNL     1       7.279  -5.281  26.180  0.00  0.00    +0.253 C 
ATOM      2  C   UNL     1       7.406  -5.044  24.653  0.00  0.00    +0.196 C 
ATOM      3  C   UNL     1       6.987  -3.573  24.432  0.00  0.00    +0.194 C 
ATOM      4  C   UNL     1       6.723  -3.060  25.846  0.00  0.00    +0.179 C 
ATOM      5  O   UNL     1       7.455  -3.940  26.721  0.00  0.00    -0.346 OA
ENDROOT
BRANCH   1  13
ATOM      6  N   UNL     1       2.793  -7.831  29.390  0.00  0.00    -0.341 N 
ATOM      7  H   UNL     1       2.167  -7.789  28.599  0.00  0.00    +0.144 HD
ATOM      8  H   UNL     1       2.420  -7.812  30.328  0.00  0.00    +0.144 HD
ATOM      9  C   UNL     1       3.970  -7.108  29.253  0.00  0.00    +0.147 A 
ATOM     10  C   UNL     1       4.488  -6.693  28.011  0.00  0.00    +0.147 A 
ATOM     11  N   UNL     1       4.046  -6.849  26.713  0.00  0.00    -0.231 NA
ATOM     12  C   UNL     1       4.993  -6.318  25.968  0.00  0.00    +0.203 A 
ATOM     13  N   UNL     1       6.043  -5.839  26.717  0.00  0.00    -0.286 N 
ATOM     14  C   UNL     1       5.694  -6.004  28.031  0.00  0.00    +0.167 A 
ATOM     15  N   UNL     1       6.413  -5.677  29.113  0.00  0.00    -0.216 NA
ATOM     16  C   UNL     1       5.834  -6.149  30.242  0.00  0.00    +0.225 A 
ATOM     17  N   UNL     1       4.658  -6.800  30.374  0.00  0.00    -0.219 NA
ENDBRANCH   1  13
BRANCH   2  18
ATOM     18  O   UNL     1       8.787  -5.183  24.266  0.00  0.00    -0.385 OA
ATOM     19  H   UNL     1       9.085  -6.091  24.457  0.00  0.00    +0.210 HD
ENDBRANCH   2  18
BRANCH   3  20
ATOM     20  O   UNL     1       5.844  -3.385  23.585  0.00  0.00    -0.278 OA
BRANCH  20  21
ATOM     21  P   UNL     1       5.759  -4.610  22.366  0.00  0.00    +0.473 P 
ATOM     22  O   UNL     1       5.683  -5.706  21.275  0.00  0.00    -0.228 OA
BRANCH  21  23
ATOM     23  O   UNL     1       5.656  -3.336  21.349  0.00  0.00    -0.303 OA
ATOM     24  H   UNL     1       5.269  -2.601  21.859  0.00  0.00    +0.222 HD
ENDBRANCH  21  23
BRANCH  21  25
ATOM     25  O   UNL     1       4.155  -4.615  22.692  0.00  0.00    -0.303 OA
ATOM     26  H   UNL     1       3.827  -3.736  22.949  0.00  0.00    +0.222 HD
ENDBRANCH  21  25
ENDBRANCH  20  21
ENDBRANCH   3  20
BRANCH   4  27
ATOM     27  C   UNL     1       7.091  -1.598  26.048  0.00  0.00    +0.206 C 
BRANCH  27  28
ATOM     28  O   UNL     1       7.932  -1.235  24.963  0.00  0.00    -0.284 OA
BRANCH  28  29
ATOM     29  P   UNL     1       9.285  -0.369  25.255  0.00  0.00    +0.483 P 
ATOM     30  O   UNL     1       8.920   1.123  25.257  0.00  0.00    -0.227 OA
BRANCH  29  31
ATOM     31  O   UNL     1       8.910  -0.394  26.944  0.00  0.00    -0.302 OA
ATOM     32  H   UNL     1       9.642  -0.904  27.346  0.00  0.00    +0.222 HD
ENDBRANCH  29  31
BRANCH  29  33
ATOM     33  O   UNL     1       9.662  -0.344  23.567  0.00  0.00    -0.186 OA
BRANCH  33  34
ATOM     34  P   UNL     1       9.771  -1.750  22.814  0.00  0.00    +0.481 P 
ATOM     35  O   UNL     1      10.279  -2.868  23.662  0.00  0.00    -0.227 OA
BRANCH  34  36
ATOM     36  O   UNL     1      10.599  -1.372  21.506  0.00  0.00    -0.302 OA
ATOM     37  H   UNL     1      10.906  -0.438  21.538  0.00  0.00    +0.222 HD
ENDBRANCH  34  36
BRANCH  34  38
ATOM     38  O   UNL     1       8.284  -1.895  22.258  0.00  0.00    -0.302 OA
ATOM     39  H   UNL     1       7.611  -1.550  22.864  0.00  0.00    +0.222 HD
ENDBRANCH  34  38
ENDBRANCH  33  34
ENDBRANCH  29  33
ENDBRANCH  28  29
ENDBRANCH  27  28
ENDBRANCH   4  27
TORSDOF 14
ENDMDL
MODEL 9
REMARK VINA RESULT:      -6.5      2.219      3.632
REMARK  Name = 
REMARK  14 active torsions:
REMARK  status: ('A' for Active; 'I' for Inactive)
REMARK    1  A    between atoms: N_10  and  C_11
REMARK    2  A    between atoms: C_14  and  C_16
REMARK    3  A    between atoms: C_16  and  O_17
REMARK    4  A    between atoms: O_17  and  P_18
REMARK    5  A    between atoms: P_18  and  O_19
REMARK    6  A    between atoms: P_18  and  O_21
REMARK    7  A    between atoms: O_21  and  P_22
REMARK    8  A    between atoms: P_22  and  O_23
REMARK    9  A    between atoms: P_22  and  O_24
REMARK   10  A    between atoms: C_26  and  O_28
REMARK   11  A    between atoms: O_28  and  P_29
REMARK   12  A    between atoms: P_29  and  O_30
REMARK   13  A    between atoms: P_29  and  O_31
REMARK   14  A    between atoms: C_33  and  O_35
REMARK                            x       y       z     vdW  Elec       q    Type
REMARK                         _______ _______ _______ _____ _____    ______ ____
ROOT
ATOM      1  C   UNL     1       5.993  -2.866  22.780  0.00  0.00    +0.253 C 
ATOM      2  C   UNL     1       6.786  -4.002  22.086  0.00  0.00    +0.196 C 
ATOM      3  C   UNL     1       6.925  -5.113  23.151  0.00  0.00    +0.194 C 
ATOM      4  C   UNL     1       6.145  -4.565  24.343  0.00  0.00    +0.179 C 
ATOM      5  O   UNL     1       5.239  -3.586  23.797  0.00  0.00    -0.346 OA
ENDROOT
BRANCH   1  13
ATOM      6  N   UNL     1       9.985   1.146  24.991  0.00  0.00    -0.341 N 
ATOM      7  H   UNL     1       9.265   1.610  25.524  0.00  0.00    +0.144 HD
ATOM      8  H   UNL     1      10.797   1.664  24.684  0.00  0.00    +0.144 HD
ATOM      9  C   UNL     1       9.531   0.230  24.052  0.00  0.00    +0.147 A 
ATOM     10  C   UNL     1       8.247  -0.347  24.085  0.00  0.00    +0.147 A 
ATOM     11  N   UNL     1       7.178  -0.201  24.945  0.00  0.00    -0.231 NA
ATOM     12  C   UNL     1       6.279  -1.062  24.514  0.00  0.00    +0.203 A 
ATOM     13  N   UNL     1       6.718  -1.777  23.425  0.00  0.00    -0.286 N 
ATOM     14  C   UNL     1       7.948  -1.273  23.094  0.00  0.00    +0.167 A 
ATOM     15  N   UNL     1       8.749  -1.665  22.094  0.00  0.00    -0.216 NA
ATOM     16  C   UNL     1       9.959  -1.066  22.179  0.00  0.00    +0.225 A 
ATOM     17  N   UNL     1      10.375  -0.132  23.061  0.00  0.00    -0.219 NA
ENDBRANCH   1  13
BRANCH   2  18
ATOM     18  O   UNL     1       6.007  -4.523  20.991  0.00  0.00    -0.385 OA
ATOM     19  H   UNL     1       5.116  -4.128  21.014  0.00  0.00    +0.210 HD
ENDBRANCH   2  18
BRANCH   3  20
ATOM     20  O   UNL     1       8.273  -5.444  23.515  0.00  0.00    -0.278 OA
BRANCH  20  21
ATOM     21  P   UNL     1       8.678  -4.804  25.070  0.00  0.00    +0.473 P 
ATOM     22  O   UNL     1       9.040  -4.230  26.462  0.00  0.00    -0.228 OA
BRANCH  21  23
ATOM     23  O   UNL     1       9.681  -3.840  24.213  0.00  0.00    -0.303 OA
ATOM     24  H   UNL     1       9.782  -3.017  24.724  0.00  0.00    +0.222 HD
ENDBRANCH  21  23
BRANCH  21  25
ATOM     25  O   UNL     1       9.749  -6.039  25.136  0.00  0.00    -0.303 OA
ATOM     26  H   UNL     1      10.012  -6.349  24.252  0.00  0.00    +0.222 HD
ENDBRANCH  21  25
ENDBRANCH  20  21
ENDBRANCH   3  20
BRANCH   4  27
ATOM     27  C   UNL     1       5.429  -5.634  25.154  0.00  0.00    +0.206 C 
BRANCH  27  28
ATOM     28  O   UNL     1       4.997  -6.624  24.232  0.00  0.00    -0.284 OA
BRANCH  28  29
ATOM     29  P   UNL     1       3.403  -6.776  23.910  0.00  0.00    +0.483 P 
ATOM     30  O   UNL     1       2.633  -5.748  24.753  0.00  0.00    -0.227 OA
BRANCH  29  31
ATOM     31  O   UNL     1       3.556  -5.560  22.689  0.00  0.00    -0.302 OA
ATOM     32  H   UNL     1       4.390  -5.099  22.912  0.00  0.00    +0.222 HD
ENDBRANCH  29  31
BRANCH  29  33
ATOM     33  O   UNL     1       3.249  -7.992  25.131  0.00  0.00    -0.186 OA
BRANCH  33  34
ATOM     34  P   UNL     1       1.817  -8.679  25.312  0.00  0.00    +0.481 P 
ATOM     35  O   UNL     1       1.022  -8.158  26.463  0.00  0.00    -0.227 OA
BRANCH  34  36
ATOM     36  O   UNL     1       2.181 -10.231  25.301  0.00  0.00    -0.302 OA
ATOM     37  H   UNL     1       2.881 -10.426  24.638  0.00  0.00    +0.222 HD
ENDBRANCH  34  36
BRANCH  34  38
ATOM     38  O   UNL     1       1.203  -8.453  23.860  0.00  0.00    -0.302 OA
ATOM     39  H   UNL     1       1.374  -9.187  23.250  0.00  0.00    +0.222 HD
ENDBRANCH  34  38
ENDBRANCH  33  34
ENDBRANCH  29  33
ENDBRANCH  28  29
ENDBRANCH  27  28
ENDBRANCH   4  27
TORSDOF 14
ENDMDL
