MODEL 1
REMARK VINA RESULT:      -4.6      0.000      0.000
REMARK  Name = 
REMARK  10 active torsions:
REMARK  status: ('A' for Active; 'I' for Inactive)
REMARK    1  A    between atoms: C_1  and  C_2
REMARK    2  A    between atoms: C_2  and  O_3
REMARK    3  A    between atoms: C_2  and  C_4
REMARK    4  A    between atoms: C_2  and  C_13
REMARK    5  A    between atoms: C_4  and  C_6
REMARK    6  A    between atoms: C_4  and  C_10
REMARK    7  A    between atoms: C_6  and  C_7
REMARK    8  A    between atoms: C_7  and  O_8
REMARK    9  A    between atoms: C_10  and  O_11
REMARK   10  A    between atoms: C_13  and  O_14
REMARK                            x       y       z     vdW  Elec       q    Type
REMARK                         _______ _______ _______ _____ _____    ______ ____
ROOT
ATOM      1  C   UNL     1       5.966  -5.627  24.085  0.00  0.00    +0.150 C 
ENDROOT
BRANCH   1   3
ATOM      2  C   UNL     1       5.922  -3.301  22.925  0.00  0.00    +0.054 C 
ATOM      3  C   UNL     1       5.600  -4.794  22.832  0.00  0.00    +0.172 C 
BRANCH   3   4
ATOM      4  O   UNL     1       4.185  -4.902  22.535  0.00  0.00    -0.377 OA
ATOM      5  H   UNL     1       4.046  -4.768  21.572  0.00  0.00    +0.211 HD
ENDBRANCH   3   4
BRANCH   3   6
ATOM      6  C   UNL     1       6.311  -5.337  21.580  0.00  0.00    +0.337 C 
ATOM      7  O   UNL     1       5.910  -5.197  20.435  0.00  0.00    -0.248 OA
BRANCH   6   8
ATOM      8  O   UNL     1       7.423  -6.047  21.888  0.00  0.00    -0.479 OA
ATOM      9  H   UNL     1       7.280  -6.980  21.596  0.00  0.00    +0.295 HD
ENDBRANCH   6   8
ENDBRANCH   3   6
ENDBRANCH   1   3
BRANCH   1  10
ATOM     10  C   UNL     1       4.733  -6.340  24.609  0.00  0.00    +0.312 C 
ATOM     11  O   UNL     1       4.078  -5.900  25.545  0.00  0.00    -0.251 OA
BRANCH  10  12
ATOM     12  O   UNL     1       4.450  -7.534  24.053  0.00  0.00    -0.480 OA
ATOM     13  H   UNL     1       3.930  -7.556  23.231  0.00  0.00    +0.295 HD
ENDBRANCH  10  12
ENDBRANCH   1  10
BRANCH   1  14
ATOM     14  C   UNL     1       6.717  -4.891  25.209  0.00  0.00    +0.138 C 
BRANCH  14  15
ATOM     15  C   UNL     1       8.166  -5.323  25.290  0.00  0.00    +0.306 C 
ATOM     16  O   UNL     1       8.969  -5.209  24.378  0.00  0.00    -0.251 OA
BRANCH  15  17
ATOM     17  O   UNL     1       8.500  -5.821  26.495  0.00  0.00    -0.481 OA
ATOM     18  H   UNL     1       9.295  -6.385  26.518  0.00  0.00    +0.295 HD
ENDBRANCH  15  17
ENDBRANCH  14  15
ENDBRANCH   1  14
TORSDOF 9
ENDMDL
MODEL 2
REMARK VINA RESULT:      -4.6      5.650      7.033
REMARK  Name = 
REMARK  10 active torsions:
REMARK  status: ('A' for Active; 'I' for Inactive)
REMARK    1  A    between atoms: C_1  and  C_2
REMARK    2  A    between atoms: C_2  and  O_3
REMARK    3  A    between atoms: C_2  and  C_4
REMARK    4  A    between atoms: C_2  and  C_13
REMARK    5  A    between atoms: C_4  and  C_6
REMARK    6  A    between atoms: C_4  and  C_10
REMARK    7  A    between atoms: C_6  and  C_7
REMARK    8  A    between atoms: C_7  and  O_8
REMARK    9  A    between atoms: C_10  and  O_11
REMARK   10  A    between atoms: C_13  and  O_14
REMARK                            x       y       z     vdW  Elec       q    Type
REMARK                         _______ _______ _______ _____ _____    ______ ____
ROOT
ATOM      1  C   UNL     1       9.196  -0.263  23.209  0.00  0.00    +0.150 C 
ENDROOT
BRANCH   1   3
ATOM      2  C   UNL     1       7.396   1.538  22.686  0.00  0.00    +0.054 C 
ATOM      3  C   UNL     1       8.813   1.019  22.430  0.00  0.00    +0.172 C 
BRANCH   3   4
ATOM      4  O   UNL     1       8.934   0.812  21.001  0.00  0.00    -0.377 OA
ATOM      5  H   UNL     1       8.327   1.426  20.533  0.00  0.00    +0.211 HD
ENDBRANCH   3   4
BRANCH   3   6
ATOM      6  C   UNL     1       9.785   2.170  22.749  0.00  0.00    +0.337 C 
ATOM      7  O   UNL     1       9.843   2.756  23.819  0.00  0.00    -0.248 OA
BRANCH   6   8
ATOM      8  O   UNL     1      10.547   2.508  21.681  0.00  0.00    -0.479 OA
ATOM      9  H   UNL     1      10.267   3.406  21.379  0.00  0.00    +0.295 HD
ENDBRANCH   6   8
ENDBRANCH   3   6
ENDBRANCH   1   3
BRANCH   1  10
ATOM     10  C   UNL     1       9.277  -1.441  22.255  0.00  0.00    +0.312 C 
ATOM     11  O   UNL     1       8.315  -2.166  22.038  0.00  0.00    -0.251 OA
BRANCH  10  12
ATOM     12  O   UNL     1      10.489  -1.706  21.731  0.00  0.00    -0.480 OA
ATOM     13  H   UNL     1      11.221  -1.926  22.333  0.00  0.00    +0.295 HD
ENDBRANCH  10  12
ENDBRANCH   1  10
BRANCH   1  14
ATOM     14  C   UNL     1       8.351  -0.597  24.451  0.00  0.00    +0.138 C 
BRANCH  14  15
ATOM     15  C   UNL     1       9.151  -0.448  25.729  0.00  0.00    +0.306 C 
ATOM     16  O   UNL     1       8.875  -1.003  26.780  0.00  0.00    -0.251 OA
BRANCH  15  17
ATOM     17  O   UNL     1      10.232   0.339  25.584  0.00  0.00    -0.481 OA
ATOM     18  H   UNL     1      10.573   0.751  26.399  0.00  0.00    +0.295 HD
ENDBRANCH  15  17
ENDBRANCH  14  15
ENDBRANCH   1  14
TORSDOF 9
ENDMDL
MODEL 3
REMARK VINA RESULT:      -4.6      5.307      6.349
REMARK  Name = 
REMARK  10 active torsions:
REMARK  status: ('A' for Active; 'I' for Inactive)
REMARK    1  A    between atoms: C_1  and  C_2
REMARK    2  A    between atoms: C_2  and  O_3
REMARK    3  A    between atoms: C_2  and  C_4
REMARK    4  A    between atoms: C_2  and  C_13
REMARK    5  A    between atoms: C_4  and  C_6
REMARK    6  A    between atoms: C_4  and  C_10
REMARK    7  A    between atoms: C_6  and  C_7
REMARK    8  A    between atoms: C_7  and  O_8
REMARK    9  A    between atoms: C_10  and  O_11
REMARK   10  A    between atoms: C_13  and  O_14
REMARK                            x       y       z     vdW  Elec       q    Type
REMARK                         _______ _______ _______ _____ _____    ______ ____
ROOT
ATOM      1  C   UNL     1       8.604  -0.445  23.745  0.00  0.00    +0.150 C 
ENDROOT
BRANCH   1   3
ATOM      2  C   UNL     1      10.517   1.264  24.165  0.00  0.00    +0.054 C 
ATOM      3  C   UNL     1       9.245   0.919  23.389  0.00  0.00    +0.172 C 
BRANCH   3   4
ATOM      4  O   UNL     1       8.309   2.004  23.609  0.00  0.00    -0.377 OA
ATOM      5  H   UNL     1       8.235   2.539  22.789  0.00  0.00    +0.211 HD
ENDBRANCH   3   4
BRANCH   3   6
ATOM      6  C   UNL     1       9.591   0.992  21.890  0.00  0.00    +0.337 C 
ATOM      7  O   UNL     1       9.465   0.068  21.101  0.00  0.00    -0.248 OA
BRANCH   6   8
ATOM      8  O   UNL     1      10.110   2.193  21.541  0.00  0.00    -0.479 OA
ATOM      9  H   UNL     1      10.384   2.659  22.368  0.00  0.00    +0.295 HD
ENDBRANCH   6   8
ENDBRANCH   3   6
ENDBRANCH   1   3
BRANCH   1  10
ATOM     10  C   UNL     1       7.201  -0.230  24.286  0.00  0.00    +0.312 C 
ATOM     11  O   UNL     1       6.976  -0.134  25.485  0.00  0.00    -0.251 OA
BRANCH  10  12
ATOM     12  O   UNL     1       6.202  -0.247  23.382  0.00  0.00    -0.480 OA
ATOM     13  H   UNL     1       6.424  -0.170  22.438  0.00  0.00    +0.295 HD
ENDBRANCH  10  12
ENDBRANCH   1  10
BRANCH   1  14
ATOM     14  C   UNL     1       9.424  -1.378  24.653  0.00  0.00    +0.138 C 
BRANCH  14  15
ATOM     15  C   UNL     1       9.924  -2.594  23.900  0.00  0.00    +0.306 C 
ATOM     16  O   UNL     1       9.813  -3.742  24.298  0.00  0.00    -0.251 OA
BRANCH  15  17
ATOM     17  O   UNL     1      10.479  -2.286  22.714  0.00  0.00    -0.481 OA
ATOM     18  H   UNL     1      11.439  -2.441  22.639  0.00  0.00    +0.295 HD
ENDBRANCH  15  17
ENDBRANCH  14  15
ENDBRANCH   1  14
TORSDOF 9
ENDMDL
MODEL 4
REMARK VINA RESULT:      -4.6      1.802      4.780
REMARK  Name = 
REMARK  10 active torsions:
REMARK  status: ('A' for Active; 'I' for Inactive)
REMARK    1  A    between atoms: C_1  and  C_2
REMARK    2  A    between atoms: C_2  and  O_3
REMARK    3  A    between atoms: C_2  and  C_4
REMARK    4  A    between atoms: C_2  and  C_13
REMARK    5  A    between atoms: C_4  and  C_6
REMARK    6  A    between atoms: C_4  and  C_10
REMARK    7  A    between atoms: C_6  and  C_7
REMARK    8  A    between atoms: C_7  and  O_8
REMARK    9  A    between atoms: C_10  and  O_11
REMARK   10  A    between atoms: C_13  and  O_14
REMARK                            x       y       z     vdW  Elec       q    Type
REMARK                         _______ _______ _______ _____ _____    ______ ____
ROOT
ATOM      1  C   UNL     1       8.007  -4.610  24.402  0.00  0.00    +0.150 C 
ENDROOT
BRANCH   1   3
ATOM      2  C   UNL     1       5.884  -3.626  25.533  0.00  0.00    +0.054 C 
ATOM      3  C   UNL     1       7.245  -4.300  25.714  0.00  0.00    +0.172 C 
BRANCH   3   4
ATOM      4  O   UNL     1       8.030  -3.439  26.577  0.00  0.00    -0.377 OA
ATOM      5  H   UNL     1       7.782  -2.503  26.412  0.00  0.00    +0.211 HD
ENDBRANCH   3   4
BRANCH   3   6
ATOM      6  C   UNL     1       7.014  -5.581  26.535  0.00  0.00    +0.337 C 
ATOM      7  O   UNL     1       6.022  -6.290  26.456  0.00  0.00    -0.248 OA
BRANCH   6   8
ATOM      8  O   UNL     1       8.021  -5.819  27.410  0.00  0.00    -0.479 OA
ATOM      9  H   UNL     1       7.619  -6.078  28.274  0.00  0.00    +0.295 HD
ENDBRANCH   6   8
ENDBRANCH   3   6
ENDBRANCH   1   3
BRANCH   1  10
ATOM     10  C   UNL     1       9.487  -4.324  24.585  0.00  0.00    +0.312 C 
ATOM     11  O   UNL     1      10.014  -3.317  24.133  0.00  0.00    -0.251 OA
BRANCH  10  12
ATOM     12  O   UNL     1      10.212  -5.285  25.191  0.00  0.00    -0.480 OA
ATOM     13  H   UNL     1       9.759  -5.909  25.785  0.00  0.00    +0.295 HD
ENDBRANCH  10  12
ENDBRANCH   1  10
BRANCH   1  14
ATOM     14  C   UNL     1       7.461  -3.965  23.116  0.00  0.00    +0.138 C 
BRANCH  14  15
ATOM     15  C   UNL     1       6.899  -5.002  22.165  0.00  0.00    +0.306 C 
ATOM     16  O   UNL     1       7.393  -6.102  21.979  0.00  0.00    -0.251 OA
BRANCH  15  17
ATOM     17  O   UNL     1       5.764  -4.602  21.562  0.00  0.00    -0.481 OA
ATOM     18  H   UNL     1       4.966  -5.123  21.768  0.00  0.00    +0.295 HD
ENDBRANCH  15  17
ENDBRANCH  14  15
ENDBRANCH   1  14
TORSDOF 9
ENDMDL
MODEL 5
REMARK VINA RESULT:      -4.4      1.742      3.210
REMARK  Name = 
REMARK  10 active torsions:
REMARK  status: ('A' for Active; 'I' for Inactive)
REMARK    1  A    between atoms: C_1  and  C_2
REMARK    2  A    between atoms: C_2  and  O_3
REMARK    3  A    between atoms: C_2  and  C_4
REMARK    4  A    between atoms: C_2  and  C_13
REMARK    5  A    between atoms: C_4  and  C_6
REMARK    6  A    between atoms: C_4  and  C_10
REMARK    7  A    between atoms: C_6  and  C_7
REMARK    8  A    between atoms: C_7  and  O_8
REMARK    9  A    between atoms: C_10  and  O_11
REMARK   10  A    between atoms: C_13  and  O_14
REMARK                            x       y       z     vdW  Elec       q    Type
REMARK                         _______ _______ _______ _____ _____    ______ ____
ROOT
ATOM      1  C   UNL     1       6.696  -4.135  23.521  0.00  0.00    +0.150 C 
ENDROOT
BRANCH   1   3
ATOM      2  C   UNL     1       6.945  -6.115  21.855  0.00  0.00    +0.054 C 
ATOM      3  C   UNL     1       6.064  -4.985  22.391  0.00  0.00    +0.172 C 
BRANCH   3   4
ATOM      4  O   UNL     1       5.706  -4.156  21.258  0.00  0.00    -0.377 OA
ATOM      5  H   UNL     1       6.283  -3.361  21.243  0.00  0.00    +0.211 HD
ENDBRANCH   3   4
BRANCH   3   6
ATOM      6  C   UNL     1       4.740  -5.620  22.853  0.00  0.00    +0.337 C 
ATOM      7  O   UNL     1       3.644  -5.086  22.766  0.00  0.00    -0.248 OA
BRANCH   6   8
ATOM      8  O   UNL     1       4.924  -6.833  23.427  0.00  0.00    -0.479 OA
ATOM      9  H   UNL     1       4.139  -7.024  23.995  0.00  0.00    +0.295 HD
ENDBRANCH   6   8
ENDBRANCH   3   6
ENDBRANCH   1   3
BRANCH   1  10
ATOM     10  C   UNL     1       7.056  -2.758  22.990  0.00  0.00    +0.312 C 
ATOM     11  O   UNL     1       6.308  -1.798  23.121  0.00  0.00    -0.251 OA
BRANCH  10  12
ATOM     12  O   UNL     1       8.199  -2.669  22.283  0.00  0.00    -0.480 OA
ATOM     13  H   UNL     1       8.867  -2.015  22.554  0.00  0.00    +0.295 HD
ENDBRANCH  10  12
ENDBRANCH   1  10
BRANCH   1  14
ATOM     14  C   UNL     1       7.868  -4.770  24.291  0.00  0.00    +0.138 C 
BRANCH  14  15
ATOM     15  C   UNL     1       7.413  -5.381  25.599  0.00  0.00    +0.306 C 
ATOM     16  O   UNL     1       6.244  -5.513  25.926  0.00  0.00    -0.251 OA
BRANCH  15  17
ATOM     17  O   UNL     1       8.434  -5.804  26.366  0.00  0.00    -0.481 OA
ATOM     18  H   UNL     1       8.646  -6.754  26.308  0.00  0.00    +0.295 HD
ENDBRANCH  15  17
ENDBRANCH  14  15
ENDBRANCH   1  14
TORSDOF 9
ENDMDL
MODEL 6
REMARK VINA RESULT:      -4.4      1.977      3.490
REMARK  Name = 
REMARK  10 active torsions:
REMARK  status: ('A' for Active; 'I' for Inactive)
REMARK    1  A    between atoms: C_1  and  C_2
REMARK    2  A    between atoms: C_2  and  O_3
REMARK    3  A    between atoms: C_2  and  C_4
REMARK    4  A    between atoms: C_2  and  C_13
REMARK    5  A    between atoms: C_4  and  C_6
REMARK    6  A    between atoms: C_4  and  C_10
REMARK    7  A    between atoms: C_6  and  C_7
REMARK    8  A    between atoms: C_7  and  O_8
REMARK    9  A    between atoms: C_10  and  O_11
REMARK   10  A    between atoms: C_13  and  O_14
REMARK                            x       y       z     vdW  Elec       q    Type
REMARK                         _______ _______ _______ _____ _____    ______ ____
ROOT
ATOM      1  C   UNL     1       7.527  -4.726  24.246  0.00  0.00    +0.150 C 
ENDROOT
BRANCH   1   3
ATOM      2  C   UNL     1       7.214  -2.168  24.587  0.00  0.00    +0.054 C 
ATOM      3  C   UNL     1       7.962  -3.289  23.864  0.00  0.00    +0.172 C 
BRANCH   3   4
ATOM      4  O   UNL     1       7.796  -3.058  22.443  0.00  0.00    -0.377 OA
ATOM      5  H   UNL     1       7.353  -2.193  22.305  0.00  0.00    +0.211 HD
ENDBRANCH   3   4
BRANCH   3   6
ATOM      6  C   UNL     1       9.464  -3.079  24.127  0.00  0.00    +0.337 C 
ATOM      7  O   UNL     1      10.063  -2.030  23.945  0.00  0.00    -0.248 OA
BRANCH   6   8
ATOM      8  O   UNL     1      10.077  -4.214  24.540  0.00  0.00    -0.479 OA
ATOM      9  H   UNL     1      10.680  -4.515  23.819  0.00  0.00    +0.295 HD
ENDBRANCH   6   8
ENDBRANCH   3   6
ENDBRANCH   1   3
BRANCH   1  10
ATOM     10  C   UNL     1       6.901  -5.411  23.044  0.00  0.00    +0.312 C 
ATOM     11  O   UNL     1       7.562  -6.084  22.265  0.00  0.00    -0.251 OA
BRANCH  10  12
ATOM     12  O   UNL     1       5.596  -5.161  22.825  0.00  0.00    -0.480 OA
ATOM     13  H   UNL     1       5.350  -4.384  22.293  0.00  0.00    +0.295 HD
ENDBRANCH  10  12
ENDBRANCH   1  10
BRANCH   1  14
ATOM     14  C   UNL     1       6.651  -4.872  25.502  0.00  0.00    +0.138 C 
BRANCH  14  15
ATOM     15  C   UNL     1       7.463  -5.308  26.704  0.00  0.00    +0.306 C 
ATOM     16  O   UNL     1       7.106  -5.167  27.862  0.00  0.00    -0.251 OA
BRANCH  15  17
ATOM     17  O   UNL     1       8.619  -5.908  26.366  0.00  0.00    -0.481 OA
ATOM     18  H   UNL     1       9.298  -5.949  27.065  0.00  0.00    +0.295 HD
ENDBRANCH  15  17
ENDBRANCH  14  15
ENDBRANCH   1  14
TORSDOF 9
ENDMDL
MODEL 7
REMARK VINA RESULT:      -4.4      2.612      4.018
REMARK  Name = 
REMARK  10 active torsions:
REMARK  status: ('A' for Active; 'I' for Inactive)
REMARK    1  A    between atoms: C_1  and  C_2
REMARK    2  A    between atoms: C_2  and  O_3
REMARK    3  A    between atoms: C_2  and  C_4
REMARK    4  A    between atoms: C_2  and  C_13
REMARK    5  A    between atoms: C_4  and  C_6
REMARK    6  A    between atoms: C_4  and  C_10
REMARK    7  A    between atoms: C_6  and  C_7
REMARK    8  A    between atoms: C_7  and  O_8
REMARK    9  A    between atoms: C_10  and  O_11
REMARK   10  A    between atoms: C_13  and  O_14
REMARK                            x       y       z     vdW  Elec       q    Type
REMARK                         _______ _______ _______ _____ _____    ______ ____
ROOT
ATOM      1  C   UNL     1       8.113  -3.413  22.924  0.00  0.00    +0.150 C 
ENDROOT
BRANCH   1   3
ATOM      2  C   UNL     1       5.635  -2.956  22.284  0.00  0.00    +0.054 C 
ATOM      3  C   UNL     1       6.683  -3.976  22.734  0.00  0.00    +0.172 C 
BRANCH   3   4
ATOM      4  O   UNL     1       6.193  -4.570  23.962  0.00  0.00    -0.377 OA
ATOM      5  H   UNL     1       5.277  -4.896  23.821  0.00  0.00    +0.211 HD
ENDBRANCH   3   4
BRANCH   3   6
ATOM      6  C   UNL     1       6.673  -5.124  21.707  0.00  0.00    +0.337 C 
ATOM      7  O   UNL     1       5.988  -5.148  20.696  0.00  0.00    -0.248 OA
BRANCH   6   8
ATOM      8  O   UNL     1       7.479  -6.148  22.074  0.00  0.00    -0.479 OA
ATOM      9  H   UNL     1       6.997  -6.689  22.746  0.00  0.00    +0.295 HD
ENDBRANCH   6   8
ENDBRANCH   3   6
ENDBRANCH   1   3
BRANCH   1  10
ATOM     10  C   UNL     1       8.687  -3.899  24.243  0.00  0.00    +0.312 C 
ATOM     11  O   UNL     1       9.155  -5.022  24.372  0.00  0.00    -0.251 OA
BRANCH  10  12
ATOM     12  O   UNL     1       8.568  -3.062  25.292  0.00  0.00    -0.480 OA
ATOM     13  H   UNL     1       8.784  -2.121  25.167  0.00  0.00    +0.295 HD
ENDBRANCH  10  12
ENDBRANCH   1  10
BRANCH   1  14
ATOM     14  C   UNL     1       8.286  -1.894  22.755  0.00  0.00    +0.138 C 
BRANCH  14  15
ATOM     15  C   UNL     1       9.594  -1.552  22.071  0.00  0.00    +0.306 C 
ATOM     16  O   UNL     1      10.691  -1.902  22.474  0.00  0.00    -0.251 OA
BRANCH  15  17
ATOM     17  O   UNL     1       9.425  -0.843  20.940  0.00  0.00    -0.481 OA
ATOM     18  H   UNL     1       8.902  -0.025  21.023  0.00  0.00    +0.295 HD
ENDBRANCH  15  17
ENDBRANCH  14  15
ENDBRANCH   1  14
TORSDOF 9
ENDMDL
MODEL 8
REMARK VINA RESULT:      -4.4      5.927      7.354
REMARK  Name = 
REMARK  10 active torsions:
REMARK  status: ('A' for Active; 'I' for Inactive)
REMARK    1  A    between atoms: C_1  and  C_2
REMARK    2  A    between atoms: C_2  and  O_3
REMARK    3  A    between atoms: C_2  and  C_4
REMARK    4  A    between atoms: C_2  and  C_13
REMARK    5  A    between atoms: C_4  and  C_6
REMARK    6  A    between atoms: C_4  and  C_10
REMARK    7  A    between atoms: C_6  and  C_7
REMARK    8  A    between atoms: C_7  and  O_8
REMARK    9  A    between atoms: C_10  and  O_11
REMARK   10  A    between atoms: C_13  and  O_14
REMARK                            x       y       z     vdW  Elec       q    Type
REMARK                         _______ _______ _______ _____ _____    ______ ____
ROOT
ATOM      1  C   UNL     1       9.301   0.201  22.797  0.00  0.00    +0.150 C 
ENDROOT
BRANCH   1   3
ATOM      2  C   UNL     1       7.571   0.245  24.737  0.00  0.00    +0.054 C 
ATOM      3  C   UNL     1       7.817   0.128  23.232  0.00  0.00    +0.172 C 
BRANCH   3   4
ATOM      4  O   UNL     1       7.213  -1.118  22.802  0.00  0.00    -0.377 OA
ATOM      5  H   UNL     1       7.917  -1.732  22.501  0.00  0.00    +0.211 HD
ENDBRANCH   3   4
BRANCH   3   6
ATOM      6  C   UNL     1       6.986   1.228  22.547  0.00  0.00    +0.337 C 
ATOM      7  O   UNL     1       7.371   1.910  21.610  0.00  0.00    -0.248 OA
BRANCH   6   8
ATOM      8  O   UNL     1       5.779   1.403  23.137  0.00  0.00    -0.479 OA
ATOM      9  H   UNL     1       5.125   0.832  22.667  0.00  0.00    +0.295 HD
ENDBRANCH   6   8
ENDBRANCH   3   6
ENDBRANCH   1   3
BRANCH   1  10
ATOM     10  C   UNL     1       9.860  -1.201  22.631  0.00  0.00    +0.312 C 
ATOM     11  O   UNL     1      10.159  -1.898  23.592  0.00  0.00    -0.251 OA
BRANCH  10  12
ATOM     12  O   UNL     1      10.098  -1.605  21.368  0.00  0.00    -0.480 OA
ATOM     13  H   UNL     1      10.236  -0.931  20.680  0.00  0.00    +0.295 HD
ENDBRANCH  10  12
ENDBRANCH   1  10
BRANCH   1  14
ATOM     14  C   UNL     1      10.229   1.083  23.651  0.00  0.00    +0.138 C 
BRANCH  14  15
ATOM     15  C   UNL     1      10.579   2.376  22.944  0.00  0.00    +0.306 C 
ATOM     16  O   UNL     1      11.117   3.329  23.483  0.00  0.00    -0.251 OA
BRANCH  15  17
ATOM     17  O   UNL     1      10.269   2.359  21.635  0.00  0.00    -0.481 OA
ATOM     18  H   UNL     1       9.494   1.822  21.388  0.00  0.00    +0.295 HD
ENDBRANCH  15  17
ENDBRANCH  14  15
ENDBRANCH   1  14
TORSDOF 9
ENDMDL
MODEL 9
REMARK VINA RESULT:      -4.4      1.892      2.784
REMARK  Name = 
REMARK  10 active torsions:
REMARK  status: ('A' for Active; 'I' for Inactive)
REMARK    1  A    between atoms: C_1  and  C_2
REMARK    2  A    between atoms: C_2  and  O_3
REMARK    3  A    between atoms: C_2  and  C_4
REMARK    4  A    between atoms: C_2  and  C_13
REMARK    5  A    between atoms: C_4  and  C_6
REMARK    6  A    between atoms: C_4  and  C_10
REMARK    7  A    between atoms: C_6  and  C_7
REMARK    8  A    between atoms: C_7  and  O_8
REMARK    9  A    between atoms: C_10  and  O_11
REMARK   10  A    between atoms: C_13  and  O_14
REMARK                            x       y       z     vdW  Elec       q    Type
REMARK                         _______ _______ _______ _____ _____    ______ ____
ROOT
ATOM      1  C   UNL     1       6.977  -4.646  23.282  0.00  0.00    +0.150 C 
ENDROOT
BRANCH   1   3
ATOM      2  C   UNL     1       5.159  -3.009  24.159  0.00  0.00    +0.054 C 
ATOM      3  C   UNL     1       6.090  -3.406  23.012  0.00  0.00    +0.172 C 
BRANCH   3   4
ATOM      4  O   UNL     1       5.256  -3.611  21.845  0.00  0.00    -0.377 OA
ATOM      5  H   UNL     1       5.701  -4.239  21.235  0.00  0.00    +0.211 HD
ENDBRANCH   3   4
BRANCH   3   6
ATOM      6  C   UNL     1       6.950  -2.175  22.675  0.00  0.00    +0.337 C 
ATOM      7  O   UNL     1       8.108  -2.218  22.290  0.00  0.00    -0.248 OA
BRANCH   6   8
ATOM      8  O   UNL     1       6.294  -1.012  22.905  0.00  0.00    -0.479 OA
ATOM      9  H   UNL     1       6.008  -1.005  23.850  0.00  0.00    +0.295 HD
ENDBRANCH   6   8
ENDBRANCH   3   6
ENDBRANCH   1   3
BRANCH   1  10
ATOM     10  C   UNL     1       6.596  -5.769  22.333  0.00  0.00    +0.312 C 
ATOM     11  O   UNL     1       7.128  -5.901  21.239  0.00  0.00    -0.251 OA
BRANCH  10  12
ATOM     12  O   UNL     1       5.574  -6.557  22.718  0.00  0.00    -0.480 OA
ATOM     13  H   UNL     1       4.991  -6.934  22.036  0.00  0.00    +0.295 HD
ENDBRANCH  10  12
ENDBRANCH   1  10
BRANCH   1  14
ATOM     14  C   UNL     1       7.055  -5.137  24.738  0.00  0.00    +0.138 C 
BRANCH  14  15
ATOM     15  C   UNL     1       8.489  -5.258  25.212  0.00  0.00    +0.306 C 
ATOM     16  O   UNL     1       9.453  -4.837  24.595  0.00  0.00    -0.251 OA
BRANCH  15  17
ATOM     17  O   UNL     1       8.597  -5.853  26.414  0.00  0.00    -0.481 OA
ATOM     18  H   UNL     1       8.660  -5.255  27.182  0.00  0.00    +0.295 HD
ENDBRANCH  15  17
ENDBRANCH  14  15
ENDBRANCH   1  14
TORSDOF 9
ENDMDL
