MODEL 1
REMARK VINA RESULT:      -5.6      0.000      0.000
REMARK  Name = 
REMARK  19 active torsions:
REMARK  status: ('A' for Active; 'I' for Inactive)
REMARK    1  A    between atoms: C_1  and  C_2
REMARK    2  A    between atoms: C_2  and  C_3
REMARK    3  A    between atoms: C_3  and  C_4
REMARK    4  A    between atoms: C_4  and  C_5
REMARK    5  A    between atoms: C_5  and  C_6
REMARK    6  A    between atoms: C_6  and  S_7
REMARK    7  A    between atoms: S_7  and  C_8
REMARK    8  A    between atoms: C_8  and  C_9
REMARK    9  A    between atoms: C_9  and  N_11
REMARK   10  A    between atoms: C_9  and  C_25
REMARK   11  A    between atoms: C_12  and  C_14
REMARK   12  A    between atoms: C_14  and  C_15
REMARK   13  A    between atoms: C_15  and  C_16
REMARK   14  A    between atoms: C_16  and  N_18
REMARK   15  A    between atoms: C_16  and  C_22
REMARK   16  A    between atoms: C_22  and  O_23
REMARK   17  A    between atoms: N_27  and  CA_28
REMARK   18  A    between atoms: CA_28  and  C_29
REMARK   19  A    between atoms: C_29  and  O_30
REMARK                            x       y       z     vdW  Elec       q    Type
REMARK                         _______ _______ _______ _____ _____    ______ ____
ROOT
ATOM      1  C   UNK A   1       7.904  -3.838  25.626  0.00  0.00    +0.169 C 
ENDROOT
BRANCH   1   2
ATOM      2  N   UNK A   1       6.653  -4.283  26.249  0.00  0.00    -0.303 N 
ATOM      3  H   UNK A   1       5.797  -3.876  25.889  0.00  0.00    +0.149 HD
ATOM      4  C   UNK A   1       6.634  -5.199  27.263  0.00  0.00    +0.214 C 
ATOM      5  O   UNK A   1       7.634  -5.775  27.678  0.00  0.00    -0.276 OA
BRANCH   4   6
ATOM      6  C   UNK A   1       5.250  -5.552  27.761  0.00  0.00    +0.102 C 
BRANCH   6   7
ATOM      7  C   UNK A   1       4.802  -6.844  27.076  0.00  0.00    +0.075 C 
BRANCH   7   8
ATOM      8  C   UNK A   1       3.708  -6.650  26.030  0.00  0.00    +0.171 C 
BRANCH   8   9
ATOM      9  N   UNK A   1       2.903  -7.937  25.997  0.00  0.00    +0.229 N 
ATOM     10  H   UNK A   1       2.051  -7.919  26.568  0.00  0.00    +0.200 HD
ATOM     11  H   UNK A   1       3.504  -8.717  26.316  0.00  0.00    +0.200 HD
ATOM     12  H   UNK A   1       2.650  -8.189  25.030  0.00  0.00    +0.200 HD
ENDBRANCH   8   9
BRANCH   8  13
ATOM     13  C   UNK A   1       4.282  -6.417  24.634  0.00  0.00    +0.354 C 
ATOM     14  O   UNK A   1       4.526  -5.278  24.252  0.00  0.00    -0.245 OA
BRANCH  13  15
ATOM     15  O   UNK A   1       4.523  -7.507  23.893  0.00  0.00    -0.477 OA
ATOM     16  H   UNK A   1       4.610  -7.443  22.920  0.00  0.00    +0.295 HD
ENDBRANCH  13  15
ENDBRANCH   8  13
ENDBRANCH   7   8
ENDBRANCH   6   7
ENDBRANCH   4   6
ENDBRANCH   1   2
BRANCH   1  17
ATOM     17  C   UNK A   1       8.134  -4.729  24.393  0.00  0.00    +0.235 C 
ATOM     18  N   GLY A   2       7.297  -4.460  23.319  0.00  0.00    -0.303 N 
ATOM     19  H   GLY A   2       6.404  -4.035  23.555  0.00  0.00    +0.149 HD
ATOM     20  O   UNK A   1       9.073  -5.517  24.312  0.00  0.00    -0.274 OA
BRANCH  18  21
ATOM     21  CA  GLY A   2       7.345  -5.360  22.168  0.00  0.00    +0.224 C 
BRANCH  21  22
ATOM     22  C   GLY A   2       6.124  -5.267  21.263  0.00  0.00    +0.322 C 
ATOM     23  OXT GLY A   2       5.832  -4.279  20.611  0.00  0.00    -0.249 OA
BRANCH  22  24
ATOM     24  O   GLY A   2       5.316  -6.354  21.333  0.00  0.00    -0.480 OA
ATOM     25  H   GLY A   2       5.519  -7.003  20.630  0.00  0.00    +0.295 HD
ENDBRANCH  22  24
ENDBRANCH  21  22
ENDBRANCH  18  21
ENDBRANCH   1  17
BRANCH   1  26
ATOM     26  C   UNK A   1       7.829  -2.364  25.202  0.00  0.00    +0.100 C 
BRANCH  26  27
ATOM     27  S   UNK A   1       8.577  -1.223  26.428  0.00  0.00    -0.158 S 
BRANCH  27  28
ATOM     28  C   UNK A   1       9.537  -0.135  25.320  0.00  0.00    +0.069 C 
BRANCH  28  29
ATOM     29  C   UNK A   1       8.690   1.084  24.966  0.00  0.00    +0.011 C 
BRANCH  29  30
ATOM     30  C   UNK A   1       9.527   2.192  24.321  0.00  0.00    +0.001 C 
BRANCH  30  31
ATOM     31  C   UNK A   1      10.354   1.626  23.165  0.00  0.00    -0.000 C 
BRANCH  31  33
ATOM     32  C   UNK A   1       9.479   0.020  21.441  0.00  0.00    +0.004 C 
ATOM     33  C   UNK A   1       9.526   1.472  21.891  0.00  0.00    -0.003 C 
ENDBRANCH  31  33
ENDBRANCH  30  31
ENDBRANCH  29  30
ENDBRANCH  28  29
ENDBRANCH  27  28
ENDBRANCH  26  27
ENDBRANCH   1  26
TORSDOF 18
ENDMDL
MODEL 2
REMARK VINA RESULT:      -5.5      1.120      1.781
REMARK  Name = 
REMARK  19 active torsions:
REMARK  status: ('A' for Active; 'I' for Inactive)
REMARK    1  A    between atoms: C_1  and  C_2
REMARK    2  A    between atoms: C_2  and  C_3
REMARK    3  A    between atoms: C_3  and  C_4
REMARK    4  A    between atoms: C_4  and  C_5
REMARK    5  A    between atoms: C_5  and  C_6
REMARK    6  A    between atoms: C_6  and  S_7
REMARK    7  A    between atoms: S_7  and  C_8
REMARK    8  A    between atoms: C_8  and  C_9
REMARK    9  A    between atoms: C_9  and  N_11
REMARK   10  A    between atoms: C_9  and  C_25
REMARK   11  A    between atoms: C_12  and  C_14
REMARK   12  A    between atoms: C_14  and  C_15
REMARK   13  A    between atoms: C_15  and  C_16
REMARK   14  A    between atoms: C_16  and  N_18
REMARK   15  A    between atoms: C_16  and  C_22
REMARK   16  A    between atoms: C_22  and  O_23
REMARK   17  A    between atoms: N_27  and  CA_28
REMARK   18  A    between atoms: CA_28  and  C_29
REMARK   19  A    between atoms: C_29  and  O_30
REMARK                            x       y       z     vdW  Elec       q    Type
REMARK                         _______ _______ _______ _____ _____    ______ ____
ROOT
ATOM      1  C   UNK A   1       7.992  -3.936  25.417  0.00  0.00    +0.169 C 
ENDROOT
BRANCH   1   2
ATOM      2  N   UNK A   1       6.720  -4.280  26.060  0.00  0.00    -0.303 N 
ATOM      3  H   UNK A   1       5.886  -3.853  25.673  0.00  0.00    +0.149 HD
ATOM      4  C   UNK A   1       6.654  -5.133  27.127  0.00  0.00    +0.214 C 
ATOM      5  O   UNK A   1       7.624  -5.732  27.578  0.00  0.00    -0.276 OA
BRANCH   4   6
ATOM      6  C   UNK A   1       5.253  -5.385  27.639  0.00  0.00    +0.102 C 
BRANCH   6   7
ATOM      7  C   UNK A   1       4.285  -5.318  26.458  0.00  0.00    +0.075 C 
BRANCH   7   8
ATOM      8  C   UNK A   1       3.301  -6.483  26.390  0.00  0.00    +0.171 C 
BRANCH   8   9
ATOM      9  N   UNK A   1       3.386  -7.206  27.721  0.00  0.00    +0.229 N 
ATOM     10  H   UNK A   1       3.805  -8.142  27.669  0.00  0.00    +0.200 HD
ATOM     11  H   UNK A   1       2.435  -7.287  28.121  0.00  0.00    +0.200 HD
ATOM     12  H   UNK A   1       3.907  -6.647  28.412  0.00  0.00    +0.200 HD
ENDBRANCH   8   9
BRANCH   8  13
ATOM     13  C   UNK A   1       3.663  -7.477  25.288  0.00  0.00    +0.354 C 
ATOM     14  O   UNK A   1       4.603  -7.247  24.537  0.00  0.00    -0.245 OA
BRANCH  13  15
ATOM     15  O   UNK A   1       2.928  -8.597  25.223  0.00  0.00    -0.477 OA
ATOM     16  H   UNK A   1       3.056  -9.238  24.495  0.00  0.00    +0.295 HD
ENDBRANCH  13  15
ENDBRANCH   8  13
ENDBRANCH   7   8
ENDBRANCH   6   7
ENDBRANCH   4   6
ENDBRANCH   1   2
BRANCH   1  17
ATOM     17  C   UNK A   1       8.194  -4.930  24.259  0.00  0.00    +0.235 C 
ATOM     18  N   GLY A   2       7.245  -4.844  23.250  0.00  0.00    -0.303 N 
ATOM     19  H   GLY A   2       6.341  -4.471  23.528  0.00  0.00    +0.149 HD
ATOM     20  O   UNK A   1       9.189  -5.644  24.166  0.00  0.00    -0.274 OA
BRANCH  18  21
ATOM     21  CA  GLY A   2       7.274  -5.853  22.192  0.00  0.00    +0.224 C 
BRANCH  21  22
ATOM     22  C   GLY A   2       6.028  -5.863  21.317  0.00  0.00    +0.322 C 
ATOM     23  OXT GLY A   2       6.028  -5.594  20.127  0.00  0.00    -0.249 OA
BRANCH  22  24
ATOM     24  O   GLY A   2       4.884  -6.090  22.008  0.00  0.00    -0.480 OA
ATOM     25  H   GLY A   2       5.065  -6.339  22.937  0.00  0.00    +0.295 HD
ENDBRANCH  22  24
ENDBRANCH  21  22
ENDBRANCH  18  21
ENDBRANCH   1  17
BRANCH   1  26
ATOM     26  C   UNK A   1       7.980  -2.499  24.877  0.00  0.00    +0.100 C 
BRANCH  26  27
ATOM     27  S   UNK A   1       9.511  -2.060  23.966  0.00  0.00    -0.158 S 
BRANCH  27  28
ATOM     28  C   UNK A   1       8.821  -1.727  22.308  0.00  0.00    +0.069 C 
BRANCH  28  29
ATOM     29  C   UNK A   1       9.642  -0.627  21.642  0.00  0.00    +0.011 C 
BRANCH  29  30
ATOM     30  C   UNK A   1       9.052   0.761  21.903  0.00  0.00    +0.001 C 
BRANCH  30  31
ATOM     31  C   UNK A   1      10.171   1.779  22.131  0.00  0.00    -0.000 C 
BRANCH  31  33
ATOM     32  C   UNK A   1       9.323   1.785  24.497  0.00  0.00    +0.004 C 
ATOM     33  C   UNK A   1       9.933   2.620  23.382  0.00  0.00    -0.003 C 
ENDBRANCH  31  33
ENDBRANCH  30  31
ENDBRANCH  29  30
ENDBRANCH  28  29
ENDBRANCH  27  28
ENDBRANCH  26  27
ENDBRANCH   1  26
TORSDOF 18
ENDMDL
MODEL 3
REMARK VINA RESULT:      -5.5      2.051      3.229
REMARK  Name = 
REMARK  19 active torsions:
REMARK  status: ('A' for Active; 'I' for Inactive)
REMARK    1  A    between atoms: C_1  and  C_2
REMARK    2  A    between atoms: C_2  and  C_3
REMARK    3  A    between atoms: C_3  and  C_4
REMARK    4  A    between atoms: C_4  and  C_5
REMARK    5  A    between atoms: C_5  and  C_6
REMARK    6  A    between atoms: C_6  and  S_7
REMARK    7  A    between atoms: S_7  and  C_8
REMARK    8  A    between atoms: C_8  and  C_9
REMARK    9  A    between atoms: C_9  and  N_11
REMARK   10  A    between atoms: C_9  and  C_25
REMARK   11  A    between atoms: C_12  and  C_14
REMARK   12  A    between atoms: C_14  and  C_15
REMARK   13  A    between atoms: C_15  and  C_16
REMARK   14  A    between atoms: C_16  and  N_18
REMARK   15  A    between atoms: C_16  and  C_22
REMARK   16  A    between atoms: C_22  and  O_23
REMARK   17  A    between atoms: N_27  and  CA_28
REMARK   18  A    between atoms: CA_28  and  C_29
REMARK   19  A    between atoms: C_29  and  O_30
REMARK                            x       y       z     vdW  Elec       q    Type
REMARK                         _______ _______ _______ _____ _____    ______ ____
ROOT
ATOM      1  C   UNK A   1       7.719  -2.958  22.758  0.00  0.00    +0.169 C 
ENDROOT
BRANCH   1   2
ATOM      2  N   UNK A   1       7.844  -3.291  24.180  0.00  0.00    -0.303 N 
ATOM      3  H   UNK A   1       6.978  -3.398  24.698  0.00  0.00    +0.149 HD
ATOM      4  C   UNK A   1       9.060  -3.452  24.784  0.00  0.00    +0.214 C 
ATOM      5  O   UNK A   1      10.127  -3.410  24.182  0.00  0.00    -0.276 OA
BRANCH   4   6
ATOM      6  C   UNK A   1       8.986  -3.818  26.249  0.00  0.00    +0.102 C 
BRANCH   6   7
ATOM      7  C   UNK A   1       8.338  -5.197  26.373  0.00  0.00    +0.075 C 
BRANCH   7   8
ATOM      8  C   UNK A   1       7.045  -5.210  27.184  0.00  0.00    +0.171 C 
BRANCH   8   9
ATOM      9  N   UNK A   1       7.167  -6.345  28.183  0.00  0.00    +0.229 N 
ATOM     10  H   UNK A   1       7.436  -6.051  29.129  0.00  0.00    +0.200 HD
ATOM     11  H   UNK A   1       7.863  -7.027  27.834  0.00  0.00    +0.200 HD
ATOM     12  H   UNK A   1       6.289  -6.883  28.240  0.00  0.00    +0.200 HD
ENDBRANCH   8   9
BRANCH   8  13
ATOM     13  C   UNK A   1       5.822  -5.480  26.310  0.00  0.00    +0.354 C 
ATOM     14  O   UNK A   1       5.341  -4.581  25.631  0.00  0.00    -0.245 OA
BRANCH  13  15
ATOM     15  O   UNK A   1       5.346  -6.734  26.312  0.00  0.00    -0.477 OA
ATOM     16  H   UNK A   1       5.164  -7.200  27.153  0.00  0.00    +0.295 HD
ENDBRANCH  13  15
ENDBRANCH   8  13
ENDBRANCH   7   8
ENDBRANCH   6   7
ENDBRANCH   4   6
ENDBRANCH   1   2
BRANCH   1  17
ATOM     17  C   UNK A   1       6.550  -3.789  22.201  0.00  0.00    +0.235 C 
ATOM     18  N   GLY A   2       6.468  -5.081  22.703  0.00  0.00    -0.303 N 
ATOM     19  H   GLY A   2       7.343  -5.479  23.034  0.00  0.00    +0.149 HD
ATOM     20  O   UNK A   1       5.679  -3.308  21.481  0.00  0.00    -0.274 OA
BRANCH  18  21
ATOM     21  CA  GLY A   2       5.482  -5.986  22.113  0.00  0.00    +0.224 C 
BRANCH  21  22
ATOM     22  C   GLY A   2       4.207  -6.126  22.933  0.00  0.00    +0.322 C 
ATOM     23  OXT GLY A   2       3.339  -5.272  22.995  0.00  0.00    -0.249 OA
BRANCH  22  24
ATOM     24  O   GLY A   2       4.171  -7.252  23.688  0.00  0.00    -0.480 OA
ATOM     25  H   GLY A   2       4.329  -8.054  23.151  0.00  0.00    +0.295 HD
ENDBRANCH  22  24
ENDBRANCH  21  22
ENDBRANCH  18  21
ENDBRANCH   1  17
BRANCH   1  26
ATOM     26  C   UNK A   1       7.443  -1.461  22.551  0.00  0.00    +0.100 C 
BRANCH  26  27
ATOM     27  S   UNK A   1       6.555  -0.692  23.959  0.00  0.00    -0.158 S 
BRANCH  27  28
ATOM     28  C   UNK A   1       6.909   1.071  23.647  0.00  0.00    +0.069 C 
BRANCH  28  29
ATOM     29  C   UNK A   1       7.508   1.217  22.251  0.00  0.00    +0.011 C 
BRANCH  29  30
ATOM     30  C   UNK A   1       8.601   2.287  22.209  0.00  0.00    +0.001 C 
BRANCH  30  31
ATOM     31  C   UNK A   1       9.982   1.639  22.321  0.00  0.00    -0.000 C 
BRANCH  31  33
ATOM     32  C   UNK A   1      10.544   0.406  24.439  0.00  0.00    +0.004 C 
ATOM     33  C   UNK A   1      10.555   1.753  23.732  0.00  0.00    -0.003 C 
ENDBRANCH  31  33
ENDBRANCH  30  31
ENDBRANCH  29  30
ENDBRANCH  28  29
ENDBRANCH  27  28
ENDBRANCH  26  27
ENDBRANCH   1  26
TORSDOF 18
ENDMDL
MODEL 4
REMARK VINA RESULT:      -5.3      1.889      3.017
REMARK  Name = 
REMARK  19 active torsions:
REMARK  status: ('A' for Active; 'I' for Inactive)
REMARK    1  A    between atoms: C_1  and  C_2
REMARK    2  A    between atoms: C_2  and  C_3
REMARK    3  A    between atoms: C_3  and  C_4
REMARK    4  A    between atoms: C_4  and  C_5
REMARK    5  A    between atoms: C_5  and  C_6
REMARK    6  A    between atoms: C_6  and  S_7
REMARK    7  A    between atoms: S_7  and  C_8
REMARK    8  A    between atoms: C_8  and  C_9
REMARK    9  A    between atoms: C_9  and  N_11
REMARK   10  A    between atoms: C_9  and  C_25
REMARK   11  A    between atoms: C_12  and  C_14
REMARK   12  A    between atoms: C_14  and  C_15
REMARK   13  A    between atoms: C_15  and  C_16
REMARK   14  A    between atoms: C_16  and  N_18
REMARK   15  A    between atoms: C_16  and  C_22
REMARK   16  A    between atoms: C_22  and  O_23
REMARK   17  A    between atoms: N_27  and  CA_28
REMARK   18  A    between atoms: CA_28  and  C_29
REMARK   19  A    between atoms: C_29  and  O_30
REMARK                            x       y       z     vdW  Elec       q    Type
REMARK                         _______ _______ _______ _____ _____    ______ ____
ROOT
ATOM      1  C   UNK A   1       7.496  -3.658  23.099  0.00  0.00    +0.169 C 
ENDROOT
BRANCH   1   2
ATOM      2  N   UNK A   1       7.608  -3.906  24.539  0.00  0.00    -0.303 N 
ATOM      3  H   UNK A   1       6.998  -3.364  25.141  0.00  0.00    +0.149 HD
ATOM      4  C   UNK A   1       8.486  -4.820  25.052  0.00  0.00    +0.214 C 
ATOM      5  O   UNK A   1       9.186  -5.551  24.360  0.00  0.00    -0.276 OA
BRANCH   4   6
ATOM      6  C   UNK A   1       8.441  -4.954  26.558  0.00  0.00    +0.102 C 
BRANCH   6   7
ATOM      7  C   UNK A   1       7.132  -4.344  27.060  0.00  0.00    +0.075 C 
BRANCH   7   8
ATOM      8  C   UNK A   1       6.242  -5.318  27.828  0.00  0.00    +0.171 C 
BRANCH   8   9
ATOM      9  N   UNK A   1       7.145  -6.429  28.333  0.00  0.00    +0.229 N 
ATOM     10  H   UNK A   1       8.124  -6.151  28.470  0.00  0.00    +0.200 HD
ATOM     11  H   UNK A   1       7.111  -7.219  27.665  0.00  0.00    +0.200 HD
ATOM     12  H   UNK A   1       6.785  -6.824  29.214  0.00  0.00    +0.200 HD
ENDBRANCH   8   9
BRANCH   8  13
ATOM     13  C   UNK A   1       5.175  -5.948  26.934  0.00  0.00    +0.354 C 
ATOM     14  O   UNK A   1       5.504  -6.638  25.977  0.00  0.00    -0.245 OA
BRANCH  13  15
ATOM     15  O   UNK A   1       3.898  -5.728  27.277  0.00  0.00    -0.477 OA
ATOM     16  H   UNK A   1       3.419  -6.353  27.858  0.00  0.00    +0.295 HD
ENDBRANCH  13  15
ENDBRANCH   8  13
ENDBRANCH   7   8
ENDBRANCH   6   7
ENDBRANCH   4   6
ENDBRANCH   1   2
BRANCH   1  17
ATOM     17  C   UNK A   1       6.010  -3.817  22.729  0.00  0.00    +0.235 C 
ATOM     18  N   GLY A   2       5.203  -4.277  23.760  0.00  0.00    -0.303 N 
ATOM     19  H   GLY A   2       5.674  -4.828  24.473  0.00  0.00    +0.149 HD
ATOM     20  O   UNK A   1       5.551  -3.435  21.656  0.00  0.00    -0.274 OA
BRANCH  18  21
ATOM     21  CA  GLY A   2       3.811  -4.602  23.450  0.00  0.00    +0.224 C 
BRANCH  21  22
ATOM     22  C   GLY A   2       3.584  -6.067  23.105  0.00  0.00    +0.322 C 
ATOM     23  OXT GLY A   2       2.496  -6.541  22.823  0.00  0.00    -0.249 OA
BRANCH  22  24
ATOM     24  O   GLY A   2       4.692  -6.835  23.250  0.00  0.00    -0.480 OA
ATOM     25  H   GLY A   2       4.487  -7.788  23.171  0.00  0.00    +0.295 HD
ENDBRANCH  22  24
ENDBRANCH  21  22
ENDBRANCH  18  21
ENDBRANCH   1  17
BRANCH   1  26
ATOM     26  C   UNK A   1       7.980  -2.248  22.730  0.00  0.00    +0.100 C 
BRANCH  26  27
ATOM     27  S   UNK A   1       9.746  -1.965  23.136  0.00  0.00    -0.158 S 
BRANCH  27  28
ATOM     28  C   UNK A   1       9.577  -0.912  24.618  0.00  0.00    +0.069 C 
BRANCH  28  29
ATOM     29  C   UNK A   1      10.552   0.256  24.510  0.00  0.00    +0.011 C 
BRANCH  29  30
ATOM     30  C   UNK A   1       9.824   1.600  24.427  0.00  0.00    +0.001 C 
BRANCH  30  31
ATOM     31  C   UNK A   1      10.289   2.379  23.195  0.00  0.00    -0.000 C 
BRANCH  31  33
ATOM     32  C   UNK A   1       8.505   1.579  21.615  0.00  0.00    +0.004 C 
ATOM     33  C   UNK A   1       9.998   1.626  21.899  0.00  0.00    -0.003 C 
ENDBRANCH  31  33
ENDBRANCH  30  31
ENDBRANCH  29  30
ENDBRANCH  28  29
ENDBRANCH  27  28
ENDBRANCH  26  27
ENDBRANCH   1  26
TORSDOF 18
ENDMDL
MODEL 5
REMARK VINA RESULT:      -5.1      3.300      7.948
REMARK  Name = 
REMARK  19 active torsions:
REMARK  status: ('A' for Active; 'I' for Inactive)
REMARK    1  A    between atoms: C_1  and  C_2
REMARK    2  A    between atoms: C_2  and  C_3
REMARK    3  A    between atoms: C_3  and  C_4
REMARK    4  A    between atoms: C_4  and  C_5
REMARK    5  A    between atoms: C_5  and  C_6
REMARK    6  A    between atoms: C_6  and  S_7
REMARK    7  A    between atoms: S_7  and  C_8
REMARK    8  A    between atoms: C_8  and  C_9
REMARK    9  A    between atoms: C_9  and  N_11
REMARK   10  A    between atoms: C_9  and  C_25
REMARK   11  A    between atoms: C_12  and  C_14
REMARK   12  A    between atoms: C_14  and  C_15
REMARK   13  A    between atoms: C_15  and  C_16
REMARK   14  A    between atoms: C_16  and  N_18
REMARK   15  A    between atoms: C_16  and  C_22
REMARK   16  A    between atoms: C_22  and  O_23
REMARK   17  A    between atoms: N_27  and  CA_28
REMARK   18  A    between atoms: CA_28  and  C_29
REMARK   19  A    between atoms: C_29  and  O_30
REMARK                            x       y       z     vdW  Elec       q    Type
REMARK                         _______ _______ _______ _____ _____    ______ ____
ROOT
ATOM      1  C   UNK A   1       7.947  -2.846  22.778  0.00  0.00    +0.169 C 
ENDROOT
BRANCH   1   2
ATOM      2  N   UNK A   1       8.249  -1.507  22.263  0.00  0.00    -0.303 N 
ATOM      3  H   UNK A   1       7.460  -0.887  22.122  0.00  0.00    +0.149 HD
ATOM      4  C   UNK A   1       9.527  -1.109  21.985  0.00  0.00    +0.214 C 
ATOM      5  O   UNK A   1      10.517  -1.795  22.213  0.00  0.00    -0.276 OA
BRANCH   4   6
ATOM      6  C   UNK A   1       9.643   0.315  21.486  0.00  0.00    +0.102 C 
BRANCH   6   7
ATOM      7  C   UNK A   1       8.685   1.192  22.292  0.00  0.00    +0.075 C 
BRANCH   7   8
ATOM      8  C   UNK A   1       9.372   2.085  23.322  0.00  0.00    +0.171 C 
BRANCH   8   9
ATOM      9  N   UNK A   1      10.505   2.792  22.601  0.00  0.00    +0.229 N 
ATOM     10  H   UNK A   1      11.315   3.008  23.194  0.00  0.00    +0.200 HD
ATOM     11  H   UNK A   1      10.146   3.672  22.192  0.00  0.00    +0.200 HD
ATOM     12  H   UNK A   1      10.824   2.245  21.789  0.00  0.00    +0.200 HD
ENDBRANCH   8   9
BRANCH   8  13
ATOM     13  C   UNK A   1       9.974   1.279  24.471  0.00  0.00    +0.354 C 
ATOM     14  O   UNK A   1      11.180   1.069  24.509  0.00  0.00    -0.245 OA
BRANCH  13  15
ATOM     15  O   UNK A   1       9.125   0.859  25.420  0.00  0.00    -0.477 OA
ATOM     16  H   UNK A   1       8.258   0.474  25.183  0.00  0.00    +0.295 HD
ENDBRANCH  13  15
ENDBRANCH   8  13
ENDBRANCH   7   8
ENDBRANCH   6   7
ENDBRANCH   4   6
ENDBRANCH   1   2
BRANCH   1  17
ATOM     17  C   UNK A   1       7.649  -2.694  24.281  0.00  0.00    +0.235 C 
ATOM     18  N   GLY A   2       7.678  -3.880  25.000  0.00  0.00    -0.303 N 
ATOM     19  H   GLY A   2       7.484  -4.723  24.464  0.00  0.00    +0.149 HD
ATOM     20  O   UNK A   1       7.536  -1.599  24.825  0.00  0.00    -0.274 OA
BRANCH  18  21
ATOM     21  CA  GLY A   2       7.255  -3.846  26.399  0.00  0.00    +0.224 C 
BRANCH  21  22
ATOM     22  C   GLY A   2       7.470  -5.160  27.139  0.00  0.00    +0.322 C 
ATOM     23  OXT GLY A   2       6.943  -5.437  28.203  0.00  0.00    -0.249 OA
BRANCH  22  24
ATOM     24  O   GLY A   2       8.398  -5.960  26.560  0.00  0.00    -0.480 OA
ATOM     25  H   GLY A   2       9.003  -5.455  25.981  0.00  0.00    +0.295 HD
ENDBRANCH  22  24
ENDBRANCH  21  22
ENDBRANCH  18  21
ENDBRANCH   1  17
BRANCH   1  26
ATOM     26  C   UNK A   1       6.736  -3.464  22.064  0.00  0.00    +0.100 C 
BRANCH  26  27
ATOM     27  S   UNK A   1       6.889  -5.277  21.828  0.00  0.00    -0.158 S 
BRANCH  27  28
ATOM     28  C   UNK A   1       5.390  -5.849  22.699  0.00  0.00    +0.069 C 
BRANCH  28  29
ATOM     29  C   UNK A   1       4.572  -4.634  23.128  0.00  0.00    +0.011 C 
BRANCH  29  30
ATOM     30  C   UNK A   1       3.306  -5.039  23.886  0.00  0.00    +0.001 C 
BRANCH  30  31
ATOM     31  C   UNK A   1       3.445  -4.698  25.371  0.00  0.00    -0.000 C 
BRANCH  31  33
ATOM     32  C   UNK A   1       4.397  -6.898  26.125  0.00  0.00    +0.004 C 
ATOM     33  C   UNK A   1       3.240  -5.921  26.261  0.00  0.00    -0.003 C 
ENDBRANCH  31  33
ENDBRANCH  30  31
ENDBRANCH  29  30
ENDBRANCH  28  29
ENDBRANCH  27  28
ENDBRANCH  26  27
ENDBRANCH   1  26
TORSDOF 18
ENDMDL
MODEL 6
REMARK VINA RESULT:      -5.1      2.765      7.045
REMARK  Name = 
REMARK  19 active torsions:
REMARK  status: ('A' for Active; 'I' for Inactive)
REMARK    1  A    between atoms: C_1  and  C_2
REMARK    2  A    between atoms: C_2  and  C_3
REMARK    3  A    between atoms: C_3  and  C_4
REMARK    4  A    between atoms: C_4  and  C_5
REMARK    5  A    between atoms: C_5  and  C_6
REMARK    6  A    between atoms: C_6  and  S_7
REMARK    7  A    between atoms: S_7  and  C_8
REMARK    8  A    between atoms: C_8  and  C_9
REMARK    9  A    between atoms: C_9  and  N_11
REMARK   10  A    between atoms: C_9  and  C_25
REMARK   11  A    between atoms: C_12  and  C_14
REMARK   12  A    between atoms: C_14  and  C_15
REMARK   13  A    between atoms: C_15  and  C_16
REMARK   14  A    between atoms: C_16  and  N_18
REMARK   15  A    between atoms: C_16  and  C_22
REMARK   16  A    between atoms: C_22  and  O_23
REMARK   17  A    between atoms: N_27  and  CA_28
REMARK   18  A    between atoms: CA_28  and  C_29
REMARK   19  A    between atoms: C_29  and  O_30
REMARK                            x       y       z     vdW  Elec       q    Type
REMARK                         _______ _______ _______ _____ _____    ______ ____
ROOT
ATOM      1  C   UNK A   1       8.473  -3.103  24.734  0.00  0.00    +0.169 C 
ENDROOT
BRANCH   1   2
ATOM      2  N   UNK A   1       9.401  -1.989  24.516  0.00  0.00    -0.303 N 
ATOM      3  H   UNK A   1      10.087  -2.109  23.779  0.00  0.00    +0.149 HD
ATOM      4  C   UNK A   1       9.349  -0.845  25.262  0.00  0.00    +0.214 C 
ATOM      5  O   UNK A   1       8.490  -0.624  26.108  0.00  0.00    -0.276 OA
BRANCH   4   6
ATOM      6  C   UNK A   1      10.370   0.201  24.874  0.00  0.00    +0.102 C 
BRANCH   6   7
ATOM      7  C   UNK A   1       9.733   1.149  23.858  0.00  0.00    +0.075 C 
BRANCH   7   8
ATOM      8  C   UNK A   1      10.352   1.080  22.465  0.00  0.00    +0.171 C 
BRANCH   8   9
ATOM      9  N   UNK A   1      10.187   2.456  21.845  0.00  0.00    +0.229 N 
ATOM     10  H   UNK A   1      10.057   2.449  20.826  0.00  0.00    +0.200 HD
ATOM     11  H   UNK A   1      11.017   3.029  22.073  0.00  0.00    +0.200 HD
ATOM     12  H   UNK A   1       9.400   2.963  22.276  0.00  0.00    +0.200 HD
ENDBRANCH   8   9
BRANCH   8  13
ATOM     13  C   UNK A   1       9.638   0.070  21.568  0.00  0.00    +0.354 C 
ATOM     14  O   UNK A   1       8.718   0.433  20.845  0.00  0.00    -0.245 OA
BRANCH  13  15
ATOM     15  O   UNK A   1      10.093  -1.190  21.601  0.00  0.00    -0.477 OA
ATOM     16  H   UNK A   1      10.191  -1.710  20.777  0.00  0.00    +0.295 HD
ENDBRANCH  13  15
ENDBRANCH   8  13
ENDBRANCH   7   8
ENDBRANCH   6   7
ENDBRANCH   4   6
ENDBRANCH   1   2
BRANCH   1  17
ATOM     17  C   UNK A   1       8.001  -3.574  23.347  0.00  0.00    +0.235 C 
ATOM     18  N   GLY A   2       7.604  -4.903  23.292  0.00  0.00    -0.303 N 
ATOM     19  H   GLY A   2       8.020  -5.515  23.990  0.00  0.00    +0.149 HD
ATOM     20  O   UNK A   1       7.854  -2.805  22.401  0.00  0.00    -0.274 OA
BRANCH  18  21
ATOM     21  CA  GLY A   2       7.290  -5.472  21.982  0.00  0.00    +0.224 C 
BRANCH  21  22
ATOM     22  C   GLY A   2       5.860  -5.213  21.525  0.00  0.00    +0.322 C 
ATOM     23  OXT GLY A   2       4.906  -5.900  21.848  0.00  0.00    -0.249 OA
BRANCH  22  24
ATOM     24  O   GLY A   2       5.756  -4.206  20.624  0.00  0.00    -0.480 OA
ATOM     25  H   GLY A   2       6.041  -4.486  19.731  0.00  0.00    +0.295 HD
ENDBRANCH  22  24
ENDBRANCH  21  22
ENDBRANCH  18  21
ENDBRANCH   1  17
BRANCH   1  26
ATOM     26  C   UNK A   1       9.149  -4.262  25.481  0.00  0.00    +0.100 C 
BRANCH  26  27
ATOM     27  S   UNK A   1       8.101  -4.971  26.809  0.00  0.00    -0.158 S 
BRANCH  27  28
ATOM     28  C   UNK A   1       6.772  -3.722  26.879  0.00  0.00    +0.069 C 
BRANCH  28  29
ATOM     29  C   UNK A   1       5.471  -4.354  26.392  0.00  0.00    +0.011 C 
BRANCH  29  30
ATOM     30  C   UNK A   1       5.492  -5.879  26.530  0.00  0.00    +0.001 C 
BRANCH  30  31
ATOM     31  C   UNK A   1       4.937  -6.533  25.263  0.00  0.00    -0.000 C 
BRANCH  31  33
ATOM     32  C   UNK A   1       3.004  -6.874  26.833  0.00  0.00    +0.004 C 
ATOM     33  C   UNK A   1       3.443  -6.826  25.378  0.00  0.00    -0.003 C 
ENDBRANCH  31  33
ENDBRANCH  30  31
ENDBRANCH  29  30
ENDBRANCH  28  29
ENDBRANCH  27  28
ENDBRANCH  26  27
ENDBRANCH   1  26
TORSDOF 18
ENDMDL
MODEL 7
REMARK VINA RESULT:      -5.0      1.924      2.950
REMARK  Name = 
REMARK  19 active torsions:
REMARK  status: ('A' for Active; 'I' for Inactive)
REMARK    1  A    between atoms: C_1  and  C_2
REMARK    2  A    between atoms: C_2  and  C_3
REMARK    3  A    between atoms: C_3  and  C_4
REMARK    4  A    between atoms: C_4  and  C_5
REMARK    5  A    between atoms: C_5  and  C_6
REMARK    6  A    between atoms: C_6  and  S_7
REMARK    7  A    between atoms: S_7  and  C_8
REMARK    8  A    between atoms: C_8  and  C_9
REMARK    9  A    between atoms: C_9  and  N_11
REMARK   10  A    between atoms: C_9  and  C_25
REMARK   11  A    between atoms: C_12  and  C_14
REMARK   12  A    between atoms: C_14  and  C_15
REMARK   13  A    between atoms: C_15  and  C_16
REMARK   14  A    between atoms: C_16  and  N_18
REMARK   15  A    between atoms: C_16  and  C_22
REMARK   16  A    between atoms: C_22  and  O_23
REMARK   17  A    between atoms: N_27  and  CA_28
REMARK   18  A    between atoms: CA_28  and  C_29
REMARK   19  A    between atoms: C_29  and  O_30
REMARK                            x       y       z     vdW  Elec       q    Type
REMARK                         _______ _______ _______ _____ _____    ______ ____
ROOT
ATOM      1  C   UNK A   1       9.376  -2.906  23.450  0.00  0.00    +0.169 C 
ENDROOT
BRANCH   1   2
ATOM      2  N   UNK A   1       9.057  -3.247  24.840  0.00  0.00    -0.303 N 
ATOM      3  H   UNK A   1       8.772  -2.481  25.440  0.00  0.00    +0.149 HD
ATOM      4  C   UNK A   1       9.136  -4.528  25.309  0.00  0.00    +0.214 C 
ATOM      5  O   UNK A   1       9.400  -5.495  24.602  0.00  0.00    -0.276 OA
BRANCH   4   6
ATOM      6  C   UNK A   1       8.744  -4.687  26.761  0.00  0.00    +0.102 C 
BRANCH   6   7
ATOM      7  C   UNK A   1       7.291  -4.242  26.924  0.00  0.00    +0.075 C 
BRANCH   7   8
ATOM      8  C   UNK A   1       6.274  -5.182  26.281  0.00  0.00    +0.171 C 
BRANCH   8   9
ATOM      9  N   UNK A   1       5.374  -4.323  25.413  0.00  0.00    +0.229 N 
ATOM     10  H   UNK A   1       4.762  -4.853  24.782  0.00  0.00    +0.200 HD
ATOM     11  H   UNK A   1       5.961  -3.683  24.850  0.00  0.00    +0.200 HD
ATOM     12  H   UNK A   1       4.794  -3.695  25.989  0.00  0.00    +0.200 HD
ENDBRANCH   8   9
BRANCH   8  13
ATOM     13  C   UNK A   1       5.400  -5.879  27.321  0.00  0.00    +0.354 C 
ATOM     14  O   UNK A   1       4.328  -5.387  27.654  0.00  0.00    -0.245 OA
BRANCH  13  15
ATOM     15  O   UNK A   1       5.854  -7.044  27.805  0.00  0.00    -0.477 OA
ATOM     16  H   UNK A   1       6.799  -7.286  27.725  0.00  0.00    +0.295 HD
ENDBRANCH  13  15
ENDBRANCH   8  13
ENDBRANCH   7   8
ENDBRANCH   6   7
ENDBRANCH   4   6
ENDBRANCH   1   2
BRANCH   1  17
ATOM     17  C   UNK A   1       8.050  -2.909  22.669  0.00  0.00    +0.235 C 
ATOM     18  N   GLY A   2       7.439  -4.152  22.571  0.00  0.00    -0.303 N 
ATOM     19  H   GLY A   2       8.062  -4.953  22.639  0.00  0.00    +0.149 HD
ATOM     20  O   UNK A   1       7.505  -1.878  22.286  0.00  0.00    -0.274 OA
BRANCH  18  21
ATOM     21  CA  GLY A   2       6.258  -4.271  21.717  0.00  0.00    +0.224 C 
BRANCH  21  22
ATOM     22  C   GLY A   2       5.384  -5.475  22.040  0.00  0.00    +0.322 C 
ATOM     23  OXT GLY A   2       4.278  -5.398  22.548  0.00  0.00    -0.249 OA
BRANCH  22  24
ATOM     24  O   GLY A   2       5.997  -6.664  21.816  0.00  0.00    -0.480 OA
ATOM     25  H   GLY A   2       6.261  -6.766  20.879  0.00  0.00    +0.295 HD
ENDBRANCH  22  24
ENDBRANCH  21  22
ENDBRANCH  18  21
ENDBRANCH   1  17
BRANCH   1  26
ATOM     26  C   UNK A   1      10.042  -1.526  23.346  0.00  0.00    +0.100 C 
BRANCH  26  27
ATOM     27  S   UNK A   1       9.654  -0.431  24.766  0.00  0.00    -0.158 S 
BRANCH  27  28
ATOM     28  C   UNK A   1      10.863   0.908  24.487  0.00  0.00    +0.069 C 
BRANCH  28  29
ATOM     29  C   UNK A   1      10.153   2.088  23.830  0.00  0.00    +0.011 C 
BRANCH  29  30
ATOM     30  C   UNK A   1      10.097   1.943  22.307  0.00  0.00    +0.001 C 
BRANCH  30  31
ATOM     31  C   UNK A   1       8.644   1.884  21.833  0.00  0.00    -0.000 C 
BRANCH  31  33
ATOM     32  C   UNK A   1       6.359   2.827  22.289  0.00  0.00    +0.004 C 
ATOM     33  C   UNK A   1       7.851   3.117  22.262  0.00  0.00    -0.003 C 
ENDBRANCH  31  33
ENDBRANCH  30  31
ENDBRANCH  29  30
ENDBRANCH  28  29
ENDBRANCH  27  28
ENDBRANCH  26  27
ENDBRANCH   1  26
TORSDOF 18
ENDMDL
MODEL 8
REMARK VINA RESULT:      -4.9      2.942      5.041
REMARK  Name = 
REMARK  19 active torsions:
REMARK  status: ('A' for Active; 'I' for Inactive)
REMARK    1  A    between atoms: C_1  and  C_2
REMARK    2  A    between atoms: C_2  and  C_3
REMARK    3  A    between atoms: C_3  and  C_4
REMARK    4  A    between atoms: C_4  and  C_5
REMARK    5  A    between atoms: C_5  and  C_6
REMARK    6  A    between atoms: C_6  and  S_7
REMARK    7  A    between atoms: S_7  and  C_8
REMARK    8  A    between atoms: C_8  and  C_9
REMARK    9  A    between atoms: C_9  and  N_11
REMARK   10  A    between atoms: C_9  and  C_25
REMARK   11  A    between atoms: C_12  and  C_14
REMARK   12  A    between atoms: C_14  and  C_15
REMARK   13  A    between atoms: C_15  and  C_16
REMARK   14  A    between atoms: C_16  and  N_18
REMARK   15  A    between atoms: C_16  and  C_22
REMARK   16  A    between atoms: C_22  and  O_23
REMARK   17  A    between atoms: N_27  and  CA_28
REMARK   18  A    between atoms: CA_28  and  C_29
REMARK   19  A    between atoms: C_29  and  O_30
REMARK                            x       y       z     vdW  Elec       q    Type
REMARK                         _______ _______ _______ _____ _____    ______ ____
ROOT
ATOM      1  C   UNK A   1       6.994  -2.076  22.657  0.00  0.00    +0.169 C 
ENDROOT
BRANCH   1   2
ATOM      2  N   UNK A   1       6.839  -3.224  23.557  0.00  0.00    -0.303 N 
ATOM      3  H   UNK A   1       7.439  -3.244  24.374  0.00  0.00    +0.149 HD
ATOM      4  C   UNK A   1       5.934  -4.219  23.313  0.00  0.00    +0.214 C 
ATOM      5  O   UNK A   1       5.136  -4.198  22.383  0.00  0.00    -0.276 OA
BRANCH   4   6
ATOM      6  C   UNK A   1       5.901  -5.305  24.366  0.00  0.00    +0.102 C 
BRANCH   6   7
ATOM      7  C   UNK A   1       6.540  -4.762  25.644  0.00  0.00    +0.075 C 
BRANCH   7   8
ATOM      8  C   UNK A   1       7.737  -5.571  26.137  0.00  0.00    +0.171 C 
BRANCH   8   9
ATOM      9  N   UNK A   1       7.406  -6.023  27.548  0.00  0.00    +0.229 N 
ATOM     10  H   UNK A   1       7.728  -6.971  27.776  0.00  0.00    +0.200 HD
ATOM     11  H   UNK A   1       6.382  -5.976  27.685  0.00  0.00    +0.200 HD
ATOM     12  H   UNK A   1       7.788  -5.367  28.245  0.00  0.00    +0.200 HD
ENDBRANCH   8   9
BRANCH   8  13
ATOM     13  C   UNK A   1       9.011  -4.731  26.198  0.00  0.00    +0.354 C 
ATOM     14  O   UNK A   1       8.961  -3.563  26.563  0.00  0.00    -0.245 OA
BRANCH  13  15
ATOM     15  O   UNK A   1      10.154  -5.348  25.866  0.00  0.00    -0.477 OA
ATOM     16  H   UNK A   1      10.936  -4.835  25.577  0.00  0.00    +0.295 HD
ENDBRANCH  13  15
ENDBRANCH   8  13
ENDBRANCH   7   8
ENDBRANCH   6   7
ENDBRANCH   4   6
ENDBRANCH   1   2
BRANCH   1  17
ATOM     17  C   UNK A   1       6.700  -0.813  23.485  0.00  0.00    +0.235 C 
ATOM     18  N   GLY A   2       6.614  -1.024  24.854  0.00  0.00    -0.303 N 
ATOM     19  H   GLY A   2       6.348  -1.964  25.136  0.00  0.00    +0.149 HD
ATOM     20  O   UNK A   1       6.684   0.312  22.992  0.00  0.00    -0.274 OA
BRANCH  18  21
ATOM     21  CA  GLY A   2       6.186   0.092  25.696  0.00  0.00    +0.224 C 
BRANCH  21  22
ATOM     22  C   GLY A   2       7.242   0.553  26.691  0.00  0.00    +0.322 C 
ATOM     23  OXT GLY A   2       7.260   0.228  27.866  0.00  0.00    -0.249 OA
BRANCH  22  24
ATOM     24  O   GLY A   2       8.109   1.460  26.177  0.00  0.00    -0.480 OA
ATOM     25  H   GLY A   2       8.563   1.968  26.879  0.00  0.00    +0.295 HD
ENDBRANCH  22  24
ENDBRANCH  21  22
ENDBRANCH  18  21
ENDBRANCH   1  17
BRANCH   1  26
ATOM     26  C   UNK A   1       8.414  -2.004  22.075  0.00  0.00    +0.100 C 
BRANCH  26  27
ATOM     27  S   UNK A   1       9.723  -2.108  23.356  0.00  0.00    -0.158 S 
BRANCH  27  28
ATOM     28  C   UNK A   1      10.386  -0.408  23.285  0.00  0.00    +0.069 C 
BRANCH  28  29
ATOM     29  C   UNK A   1       9.985   0.225  21.956  0.00  0.00    +0.011 C 
BRANCH  29  30
ATOM     30  C   UNK A   1       9.958   1.753  22.038  0.00  0.00    +0.001 C 
BRANCH  30  31
ATOM     31  C   UNK A   1      10.335   2.216  23.447  0.00  0.00    -0.000 C 
BRANCH  31  33
ATOM     32  C   UNK A   1       8.630   4.034  23.772  0.00  0.00    +0.004 C 
ATOM     33  C   UNK A   1      10.111   3.714  23.637  0.00  0.00    -0.003 C 
ENDBRANCH  31  33
ENDBRANCH  30  31
ENDBRANCH  29  30
ENDBRANCH  28  29
ENDBRANCH  27  28
ENDBRANCH  26  27
ENDBRANCH   1  26
TORSDOF 18
ENDMDL
MODEL 9
REMARK VINA RESULT:      -4.9      2.630      3.762
REMARK  Name = 
REMARK  19 active torsions:
REMARK  status: ('A' for Active; 'I' for Inactive)
REMARK    1  A    between atoms: C_1  and  C_2
REMARK    2  A    between atoms: C_2  and  C_3
REMARK    3  A    between atoms: C_3  and  C_4
REMARK    4  A    between atoms: C_4  and  C_5
REMARK    5  A    between atoms: C_5  and  C_6
REMARK    6  A    between atoms: C_6  and  S_7
REMARK    7  A    between atoms: S_7  and  C_8
REMARK    8  A    between atoms: C_8  and  C_9
REMARK    9  A    between atoms: C_9  and  N_11
REMARK   10  A    between atoms: C_9  and  C_25
REMARK   11  A    between atoms: C_12  and  C_14
REMARK   12  A    between atoms: C_14  and  C_15
REMARK   13  A    between atoms: C_15  and  C_16
REMARK   14  A    between atoms: C_16  and  N_18
REMARK   15  A    between atoms: C_16  and  C_22
REMARK   16  A    between atoms: C_22  and  O_23
REMARK   17  A    between atoms: N_27  and  CA_28
REMARK   18  A    between atoms: CA_28  and  C_29
REMARK   19  A    between atoms: C_29  and  O_30
REMARK                            x       y       z     vdW  Elec       q    Type
REMARK                         _______ _______ _______ _____ _____    ______ ____
ROOT
ATOM      1  C   UNK A   1       8.689  -3.093  25.458  0.00  0.00    +0.169 C 
ENDROOT
BRANCH   1   2
ATOM      2  N   UNK A   1       7.409  -3.745  25.168  0.00  0.00    -0.303 N 
ATOM      3  H   UNK A   1       6.766  -3.237  24.571  0.00  0.00    +0.149 HD
ATOM      4  C   UNK A   1       7.090  -4.975  25.673  0.00  0.00    +0.214 C 
ATOM      5  O   UNK A   1       7.864  -5.658  26.334  0.00  0.00    -0.276 OA
BRANCH   4   6
ATOM      6  C   UNK A   1       5.736  -5.495  25.244  0.00  0.00    +0.102 C 
BRANCH   6   7
ATOM      7  C   UNK A   1       5.209  -4.606  24.119  0.00  0.00    +0.075 C 
BRANCH   7   8
ATOM      8  C   UNK A   1       4.960  -5.342  22.804  0.00  0.00    +0.171 C 
BRANCH   8   9
ATOM      9  N   UNK A   1       4.991  -6.825  23.122  0.00  0.00    +0.229 N 
ATOM     10  H   UNK A   1       5.721  -7.101  23.789  0.00  0.00    +0.200 HD
ATOM     11  H   UNK A   1       5.124  -7.354  22.242  0.00  0.00    +0.200 HD
ATOM     12  H   UNK A   1       4.078  -7.146  23.477  0.00  0.00    +0.200 HD
ENDBRANCH   8   9
BRANCH   8  13
ATOM     13  C   UNK A   1       6.050  -5.058  21.772  0.00  0.00    +0.354 C 
ATOM     14  O   UNK A   1       5.942  -5.487  20.630  0.00  0.00    -0.245 OA
BRANCH  13  15
ATOM     15  O   UNK A   1       7.082  -4.305  22.179  0.00  0.00    -0.477 OA
ATOM     16  H   UNK A   1       7.806  -4.071  21.563  0.00  0.00    +0.295 HD
ENDBRANCH  13  15
ENDBRANCH   8  13
ENDBRANCH   7   8
ENDBRANCH   6   7
ENDBRANCH   4   6
ENDBRANCH   1   2
BRANCH   1  17
ATOM     17  C   UNK A   1       9.278  -2.638  24.111  0.00  0.00    +0.235 C 
ATOM     18  N   GLY A   2       8.506  -1.709  23.426  0.00  0.00    -0.303 N 
ATOM     19  H   GLY A   2       7.511  -1.726  23.636  0.00  0.00    +0.149 HD
ATOM     20  O   UNK A   1      10.403  -2.960  23.737  0.00  0.00    -0.274 OA
BRANCH  18  21
ATOM     21  CA  GLY A   2       8.915  -1.342  22.071  0.00  0.00    +0.224 C 
BRANCH  21  22
ATOM     22  C   GLY A   2       9.572   0.028  21.976  0.00  0.00    +0.322 C 
ATOM     23  OXT GLY A   2      10.374   0.457  22.787  0.00  0.00    -0.249 OA
BRANCH  22  24
ATOM     24  O   GLY A   2       9.095   0.786  20.957  0.00  0.00    -0.480 OA
ATOM     25  H   GLY A   2       8.232   0.458  20.634  0.00  0.00    +0.295 HD
ENDBRANCH  22  24
ENDBRANCH  21  22
ENDBRANCH  18  21
ENDBRANCH   1  17
BRANCH   1  26
ATOM     26  C   UNK A   1       8.509  -1.883  26.387  0.00  0.00    +0.100 C 
BRANCH  26  27
ATOM     27  S   UNK A   1       6.755  -1.383  26.584  0.00  0.00    -0.158 S 
BRANCH  27  28
ATOM     28  C   UNK A   1       6.838   0.342  25.991  0.00  0.00    +0.069 C 
BRANCH  28  29
ATOM     29  C   UNK A   1       5.881   0.509  24.815  0.00  0.00    +0.011 C 
BRANCH  29  30
ATOM     30  C   UNK A   1       6.514   1.310  23.674  0.00  0.00    +0.001 C 
BRANCH  30  31
ATOM     31  C   UNK A   1       7.547   2.294  24.227  0.00  0.00    -0.000 C 
BRANCH  31  33
ATOM     32  C   UNK A   1       6.923   3.572  22.154  0.00  0.00    +0.004 C 
ATOM     33  C   UNK A   1       8.023   3.281  23.164  0.00  0.00    -0.003 C 
ENDBRANCH  31  33
ENDBRANCH  30  31
ENDBRANCH  29  30
ENDBRANCH  28  29
ENDBRANCH  27  28
ENDBRANCH  26  27
ENDBRANCH   1  26
TORSDOF 18
ENDMDL
