MODEL 1
REMARK VINA RESULT:      -8.5      0.000      0.000
REMARK  Name = 
REMARK  12 active torsions:
REMARK  status: ('A' for Active; 'I' for Inactive)
REMARK    1  A    between atoms: C_1  and  N_2
REMARK    2  A    between atoms: C_3  and  C_5
REMARK    3  A    between atoms: C_5  and  N_6
REMARK    4  A    between atoms: N_6  and  C_7
REMARK    5  A    between atoms: C_10  and  C_13
REMARK    6  A    between atoms: N_15  and  CA_16
REMARK    7  A    between atoms: CA_16  and  CB_18
REMARK    8  A    between atoms: CA_16  and  C_23
REMARK    9  A    between atoms: CB_18  and  CG_19
REMARK   10  A    between atoms: CG_19  and  CD_20
REMARK   11  A    between atoms: CD_20  and  OE1_21
REMARK   12  A    between atoms: C_23  and  O_24
REMARK                            x       y       z     vdW  Elec       q    Type
REMARK                         _______ _______ _______ _____ _____    ______ ____
ROOT
ATOM      1  C   UNK A   0       9.815  -0.950  23.218  0.00  0.00    +0.027 A 
ATOM      2  C   UNK A   0       9.737  -0.165  22.059  0.00  0.00    +0.023 A 
ATOM      3  C   UNK A   0      10.038   1.203  22.088  0.00  0.00    +0.015 A 
ATOM      4  C   UNK A   0      10.434   1.802  23.286  0.00  0.00    +0.037 A 
ATOM      5  C   UNK A   0      10.617   1.007  24.420  0.00  0.00    +0.015 A 
ATOM      6  C   UNK A   0      10.308  -0.355  24.381  0.00  0.00    +0.023 A 
ENDROOT
BRANCH   4   7
ATOM      7  C   UNK A   0      10.630   3.278  23.336  0.00  0.00    +0.245 C 
ATOM      8  N   GLU A   1       9.478   4.040  23.367  0.00  0.00    -0.298 N 
ATOM      9  H   GLU A   1       8.578   3.582  23.462  0.00  0.00    +0.150 HD
ATOM     10  O   UNK A   0      11.754   3.763  23.337  0.00  0.00    -0.270 OA
BRANCH   8  11
ATOM     11  CA  GLU A   1       9.497   5.501  23.553  0.00  0.00    +0.182 C 
BRANCH  11  12
ATOM     12  C   GLU A   1       8.113   6.060  23.175  0.00  0.00    +0.325 C 
ATOM     13  OXT GLU A   1       7.207   6.290  23.962  0.00  0.00    -0.249 OA
BRANCH  12  14
ATOM     14  O   GLU A   1       8.009   6.355  21.853  0.00  0.00    -0.479 OA
ATOM     15  H   GLU A   1       8.376   7.244  21.667  0.00  0.00    +0.295 HD
ENDBRANCH  12  14
ENDBRANCH  11  12
BRANCH  11  16
ATOM     16  CB  GLU A   1       9.859   5.889  24.992  0.00  0.00    +0.045 C 
BRANCH  16  17
ATOM     17  CG  GLU A   1      10.778   7.108  25.071  0.00  0.00    +0.123 C 
BRANCH  17  18
ATOM     18  CD  GLU A   1      12.200   6.731  25.405  0.00  0.00    +0.305 C 
ATOM     19  OE2 GLU A   1      12.751   6.929  26.475  0.00  0.00    -0.251 OA
BRANCH  18  20
ATOM     20  OE1 GLU A   1      12.814   6.104  24.374  0.00  0.00    -0.481 OA
ATOM     21  HE1 GLU A   1      12.906   6.661  23.577  0.00  0.00    +0.295 HD
ENDBRANCH  18  20
ENDBRANCH  17  18
ENDBRANCH  16  17
ENDBRANCH  11  16
ENDBRANCH   8  11
ENDBRANCH   4   7
BRANCH   1  22
ATOM     22  N   UNK A   0       9.391  -2.274  23.155  0.00  0.00    -0.342 N 
ATOM     23  H   UNK A   0      10.015  -2.907  23.649  0.00  0.00    +0.146 HD
BRANCH  22  24
ATOM     24  C   UNK A   0       7.963  -2.634  23.241  0.00  0.00    +0.125 C 
BRANCH  24  41
ATOM     25  C   UNK A   0       5.833  -4.745  23.323  0.00  0.00    +0.130 C 
ATOM     26  N   UNK A   0       6.713  -4.563  24.468  0.00  0.00    -0.320 N 
ATOM     27  C   UNK A   0       6.535  -5.286  25.687  0.00  0.00    +0.135 A 
ATOM     28  C   UNK A   0       5.358  -6.204  25.899  0.00  0.00    +0.276 A 
ATOM     29  N   UNK A   0       5.294  -6.807  27.120  0.00  0.00    -0.294 N 
ATOM     30  H   UNK A   0       4.483  -7.379  27.283  0.00  0.00    +0.172 HD
ATOM     31  C   UNK A   0       6.226  -6.624  28.082  0.00  0.00    +0.195 A 
ATOM     32  N   UNK A   0       7.259  -5.868  27.923  0.00  0.00    -0.199 NA
ATOM     33  N   UNK A   0       6.030  -7.293  29.246  0.00  0.00    -0.329 N 
ATOM     34  H   UNK A   0       6.860  -7.304  29.830  0.00  0.00    +0.145 HD
ATOM     35  H   UNK A   0       5.558  -8.183  29.197  0.00  0.00    +0.145 HD
ATOM     36  O   UNK A   0       4.486  -6.417  25.068  0.00  0.00    -0.266 OA
ATOM     37  C   UNK A   0       7.401  -5.184  26.739  0.00  0.00    +0.149 A 
ATOM     38  N   UNK A   0       8.511  -4.339  26.620  0.00  0.00    -0.326 N 
ATOM     39  H   UNK A   0       9.257  -4.647  27.238  0.00  0.00    +0.148 HD
ATOM     40  C   UNK A   0       8.887  -3.798  25.314  0.00  0.00    +0.127 C 
ATOM     41  C   UNK A   0       7.595  -3.351  24.566  0.00  0.00    +0.107 C 
ENDBRANCH  24  41
ENDBRANCH  22  24
ENDBRANCH   1  22
TORSDOF 11
ENDMDL
MODEL 2
REMARK VINA RESULT:      -8.4      1.847      2.773
REMARK  Name = 
REMARK  12 active torsions:
REMARK  status: ('A' for Active; 'I' for Inactive)
REMARK    1  A    between atoms: C_1  and  N_2
REMARK    2  A    between atoms: C_3  and  C_5
REMARK    3  A    between atoms: C_5  and  N_6
REMARK    4  A    between atoms: N_6  and  C_7
REMARK    5  A    between atoms: C_10  and  C_13
REMARK    6  A    between atoms: N_15  and  CA_16
REMARK    7  A    between atoms: CA_16  and  CB_18
REMARK    8  A    between atoms: CA_16  and  C_23
REMARK    9  A    between atoms: CB_18  and  CG_19
REMARK   10  A    between atoms: CG_19  and  CD_20
REMARK   11  A    between atoms: CD_20  and  OE1_21
REMARK   12  A    between atoms: C_23  and  O_24
REMARK                            x       y       z     vdW  Elec       q    Type
REMARK                         _______ _______ _______ _____ _____    ______ ____
ROOT
ATOM      1  C   UNK A   0       8.722  -0.795  22.268  0.00  0.00    +0.027 A 
ATOM      2  C   UNK A   0       7.554  -0.217  22.784  0.00  0.00    +0.023 A 
ATOM      3  C   UNK A   0       7.427   1.173  22.911  0.00  0.00    +0.015 A 
ATOM      4  C   UNK A   0       8.473   2.005  22.508  0.00  0.00    +0.037 A 
ATOM      5  C   UNK A   0       9.596   1.444  21.894  0.00  0.00    +0.015 A 
ATOM      6  C   UNK A   0       9.714   0.057  21.780  0.00  0.00    +0.023 A 
ENDROOT
BRANCH   4   7
ATOM      7  C   UNK A   0       8.381   3.471  22.761  0.00  0.00    +0.245 C 
ATOM      8  N   GLU A   1       9.402   4.019  23.512  0.00  0.00    -0.298 N 
ATOM      9  H   GLU A   1      10.202   3.449  23.761  0.00  0.00    +0.150 HD
ATOM     10  O   UNK A   0       7.441   4.125  22.328  0.00  0.00    -0.270 OA
BRANCH   8  11
ATOM     11  CA  GLU A   1       9.531   5.470  23.737  0.00  0.00    +0.182 C 
BRANCH  11  12
ATOM     12  C   GLU A   1       8.872   5.816  25.084  0.00  0.00    +0.325 C 
ATOM     13  OXT GLU A   1       9.472   6.035  26.126  0.00  0.00    -0.249 OA
BRANCH  12  14
ATOM     14  O   GLU A   1       7.522   5.935  24.994  0.00  0.00    -0.479 OA
ATOM     15  H   GLU A   1       7.213   6.736  25.466  0.00  0.00    +0.295 HD
ENDBRANCH  12  14
ENDBRANCH  11  12
BRANCH  11  16
ATOM     16  CB  GLU A   1      10.997   5.921  23.722  0.00  0.00    +0.045 C 
BRANCH  16  17
ATOM     17  CG  GLU A   1      11.971   4.785  23.410  0.00  0.00    +0.123 C 
BRANCH  17  18
ATOM     18  CD  GLU A   1      13.193   5.266  22.668  0.00  0.00    +0.305 C 
ATOM     19  OE2 GLU A   1      13.183   5.903  21.628  0.00  0.00    -0.251 OA
BRANCH  18  20
ATOM     20  OE1 GLU A   1      14.339   4.936  23.309  0.00  0.00    -0.481 OA
ATOM     21  HE1 GLU A   1      14.405   5.310  24.209  0.00  0.00    +0.295 HD
ENDBRANCH  18  20
ENDBRANCH  17  18
ENDBRANCH  16  17
ENDBRANCH  11  16
ENDBRANCH   8  11
ENDBRANCH   4   7
BRANCH   1  22
ATOM     22  N   UNK A   0       8.838  -2.182  22.277  0.00  0.00    -0.342 N 
ATOM     23  H   UNK A   0       9.311  -2.539  21.449  0.00  0.00    +0.146 HD
BRANCH  22  24
ATOM     24  C   UNK A   0       9.132  -2.927  23.517  0.00  0.00    +0.125 C 
BRANCH  24  41
ATOM     25  C   UNK A   0       8.726  -3.900  26.325  0.00  0.00    +0.130 C 
ATOM     26  N   UNK A   0       7.754  -4.239  25.296  0.00  0.00    -0.320 N 
ATOM     27  C   UNK A   0       6.655  -5.116  25.547  0.00  0.00    +0.135 A 
ATOM     28  C   UNK A   0       6.496  -5.829  26.866  0.00  0.00    +0.276 A 
ATOM     29  N   UNK A   0       5.419  -6.660  26.960  0.00  0.00    -0.294 N 
ATOM     30  H   UNK A   0       5.339  -7.176  27.819  0.00  0.00    +0.172 HD
ATOM     31  C   UNK A   0       4.530  -6.829  25.957  0.00  0.00    +0.195 A 
ATOM     32  N   UNK A   0       4.621  -6.213  24.827  0.00  0.00    -0.199 NA
ATOM     33  N   UNK A   0       3.507  -7.688  26.197  0.00  0.00    -0.329 N 
ATOM     34  H   UNK A   0       2.759  -7.598  25.516  0.00  0.00    +0.145 HD
ATOM     35  H   UNK A   0       3.179  -7.766  27.148  0.00  0.00    +0.145 HD
ATOM     36  O   UNK A   0       7.261  -5.713  27.813  0.00  0.00    -0.266 OA
ATOM     37  C   UNK A   0       5.691  -5.378  24.615  0.00  0.00    +0.149 A 
ATOM     38  N   UNK A   0       5.780  -4.762  23.361  0.00  0.00    -0.326 N 
ATOM     39  H   UNK A   0       4.860  -4.690  22.936  0.00  0.00    +0.148 HD
ATOM     40  C   UNK A   0       6.716  -3.658  23.148  0.00  0.00    +0.127 C 
ATOM     41  C   UNK A   0       8.066  -4.004  23.846  0.00  0.00    +0.107 C 
ENDBRANCH  24  41
ENDBRANCH  22  24
ENDBRANCH   1  22
TORSDOF 11
ENDMDL
MODEL 3
REMARK VINA RESULT:      -8.2      1.559      2.139
REMARK  Name = 
REMARK  12 active torsions:
REMARK  status: ('A' for Active; 'I' for Inactive)
REMARK    1  A    between atoms: C_1  and  N_2
REMARK    2  A    between atoms: C_3  and  C_5
REMARK    3  A    between atoms: C_5  and  N_6
REMARK    4  A    between atoms: N_6  and  C_7
REMARK    5  A    between atoms: C_10  and  C_13
REMARK    6  A    between atoms: N_15  and  CA_16
REMARK    7  A    between atoms: CA_16  and  CB_18
REMARK    8  A    between atoms: CA_16  and  C_23
REMARK    9  A    between atoms: CB_18  and  CG_19
REMARK   10  A    between atoms: CG_19  and  CD_20
REMARK   11  A    between atoms: CD_20  and  OE1_21
REMARK   12  A    between atoms: C_23  and  O_24
REMARK                            x       y       z     vdW  Elec       q    Type
REMARK                         _______ _______ _______ _____ _____    ______ ____
ROOT
ATOM      1  C   UNK A   0       8.635  -0.982  22.403  0.00  0.00    +0.027 A 
ATOM      2  C   UNK A   0       7.442  -0.366  22.808  0.00  0.00    +0.023 A 
ATOM      3  C   UNK A   0       7.329   1.030  22.864  0.00  0.00    +0.015 A 
ATOM      4  C   UNK A   0       8.415   1.829  22.501  0.00  0.00    +0.037 A 
ATOM      5  C   UNK A   0       9.569   1.226  21.995  0.00  0.00    +0.015 A 
ATOM      6  C   UNK A   0       9.673  -0.166  21.950  0.00  0.00    +0.023 A 
ENDROOT
BRANCH   4   7
ATOM      7  C   UNK A   0       8.329   3.306  22.682  0.00  0.00    +0.245 C 
ATOM      8  N   GLU A   1       9.201   3.853  23.603  0.00  0.00    -0.298 N 
ATOM      9  H   GLU A   1       9.915   3.269  24.025  0.00  0.00    +0.150 HD
ATOM     10  O   UNK A   0       7.519   3.970  22.050  0.00  0.00    -0.270 OA
BRANCH   8  11
ATOM     11  CA  GLU A   1       9.337   5.307  23.802  0.00  0.00    +0.182 C 
BRANCH  11  12
ATOM     12  C   GLU A   1       9.110   5.620  25.292  0.00  0.00    +0.325 C 
ATOM     13  OXT GLU A   1       9.331   6.696  25.827  0.00  0.00    -0.249 OA
BRANCH  12  14
ATOM     14  O   GLU A   1       8.552   4.582  25.968  0.00  0.00    -0.479 OA
ATOM     15  H   GLU A   1       7.744   4.268  25.512  0.00  0.00    +0.295 HD
ENDBRANCH  12  14
ENDBRANCH  11  12
BRANCH  11  16
ATOM     16  CB  GLU A   1      10.709   5.819  23.347  0.00  0.00    +0.045 C 
BRANCH  16  17
ATOM     17  CG  GLU A   1      11.807   4.759  23.442  0.00  0.00    +0.123 C 
BRANCH  17  18
ATOM     18  CD  GLU A   1      13.061   5.167  22.709  0.00  0.00    +0.305 C 
ATOM     19  OE2 GLU A   1      13.097   5.689  21.607  0.00  0.00    -0.251 OA
BRANCH  18  20
ATOM     20  OE1 GLU A   1      14.176   4.914  23.433  0.00  0.00    -0.481 OA
ATOM     21  HE1 GLU A   1      13.998   4.733  24.376  0.00  0.00    +0.295 HD
ENDBRANCH  18  20
ENDBRANCH  17  18
ENDBRANCH  16  17
ENDBRANCH  11  16
ENDBRANCH   8  11
ENDBRANCH   4   7
BRANCH   1  22
ATOM     22  N   UNK A   0       8.728  -2.368  22.480  0.00  0.00    -0.342 N 
ATOM     23  H   UNK A   0       9.526  -2.676  23.030  0.00  0.00    +0.146 HD
BRANCH  22  24
ATOM     24  C   UNK A   0       7.529  -3.218  22.618  0.00  0.00    +0.125 C 
BRANCH  24  41
ATOM     25  C   UNK A   0       5.527  -5.372  23.213  0.00  0.00    +0.130 C 
ATOM     26  N   UNK A   0       6.490  -4.979  24.232  0.00  0.00    -0.320 N 
ATOM     27  C   UNK A   0       6.452  -5.509  25.557  0.00  0.00    +0.135 A 
ATOM     28  C   UNK A   0       5.347  -6.429  26.013  0.00  0.00    +0.276 A 
ATOM     29  N   UNK A   0       5.418  -6.836  27.312  0.00  0.00    -0.294 N 
ATOM     30  H   UNK A   0       4.655  -7.407  27.632  0.00  0.00    +0.172 HD
ATOM     31  C   UNK A   0       6.416  -6.469  28.146  0.00  0.00    +0.195 A 
ATOM     32  N   UNK A   0       7.391  -5.707  27.781  0.00  0.00    -0.199 NA
ATOM     33  N   UNK A   0       6.353  -6.956  29.411  0.00  0.00    -0.329 N 
ATOM     34  H   UNK A   0       7.229  -6.843  29.912  0.00  0.00    +0.145 HD
ATOM     35  H   UNK A   0       5.927  -7.861  29.541  0.00  0.00    +0.145 HD
ATOM     36  O   UNK A   0       4.422  -6.802  25.306  0.00  0.00    -0.266 OA
ATOM     37  C   UNK A   0       7.397  -5.211  26.499  0.00  0.00    +0.149 A 
ATOM     38  N   UNK A   0       8.447  -4.352  26.153  0.00  0.00    -0.326 N 
ATOM     39  H   UNK A   0       9.257  -4.531  26.740  0.00  0.00    +0.148 HD
ATOM     40  C   UNK A   0       8.683  -4.007  24.751  0.00  0.00    +0.127 C 
ATOM     41  C   UNK A   0       7.311  -3.733  24.065  0.00  0.00    +0.107 C 
ENDBRANCH  24  41
ENDBRANCH  22  24
ENDBRANCH   1  22
TORSDOF 11
ENDMDL
MODEL 4
REMARK VINA RESULT:      -8.0      1.848      2.995
REMARK  Name = 
REMARK  12 active torsions:
REMARK  status: ('A' for Active; 'I' for Inactive)
REMARK    1  A    between atoms: C_1  and  N_2
REMARK    2  A    between atoms: C_3  and  C_5
REMARK    3  A    between atoms: C_5  and  N_6
REMARK    4  A    between atoms: N_6  and  C_7
REMARK    5  A    between atoms: C_10  and  C_13
REMARK    6  A    between atoms: N_15  and  CA_16
REMARK    7  A    between atoms: CA_16  and  CB_18
REMARK    8  A    between atoms: CA_16  and  C_23
REMARK    9  A    between atoms: CB_18  and  CG_19
REMARK   10  A    between atoms: CG_19  and  CD_20
REMARK   11  A    between atoms: CD_20  and  OE1_21
REMARK   12  A    between atoms: C_23  and  O_24
REMARK                            x       y       z     vdW  Elec       q    Type
REMARK                         _______ _______ _______ _____ _____    ______ ____
ROOT
ATOM      1  C   UNK A   0      10.091  -0.864  23.185  0.00  0.00    +0.027 A 
ATOM      2  C   UNK A   0       9.887  -0.085  22.038  0.00  0.00    +0.023 A 
ATOM      3  C   UNK A   0       9.979   1.313  22.085  0.00  0.00    +0.015 A 
ATOM      4  C   UNK A   0      10.289   1.948  23.289  0.00  0.00    +0.037 A 
ATOM      5  C   UNK A   0      10.598   1.175  24.411  0.00  0.00    +0.015 A 
ATOM      6  C   UNK A   0      10.496  -0.217  24.354  0.00  0.00    +0.023 A 
ENDROOT
BRANCH   4   7
ATOM      7  C   UNK A   0      10.262   3.436  23.359  0.00  0.00    +0.245 C 
ATOM      8  N   GLU A   1       9.012   4.021  23.303  0.00  0.00    -0.298 N 
ATOM      9  H   GLU A   1       8.184   3.435  23.326  0.00  0.00    +0.150 HD
ATOM     10  O   UNK A   0      11.299   4.081  23.449  0.00  0.00    -0.270 OA
BRANCH   8  11
ATOM     11  CA  GLU A   1       8.801   5.466  23.495  0.00  0.00    +0.182 C 
BRANCH  11  12
ATOM     12  C   GLU A   1       7.752   5.947  22.474  0.00  0.00    +0.325 C 
ATOM     13  OXT GLU A   1       7.404   7.108  22.317  0.00  0.00    -0.249 OA
BRANCH  12  14
ATOM     14  O   GLU A   1       7.288   4.944  21.686  0.00  0.00    -0.479 OA
ATOM     15  H   GLU A   1       7.871   4.816  20.909  0.00  0.00    +0.295 HD
ENDBRANCH  12  14
ENDBRANCH  11  12
BRANCH  11  16
ATOM     16  CB  GLU A   1       8.351   5.793  24.923  0.00  0.00    +0.045 C 
BRANCH  16  17
ATOM     17  CG  GLU A   1       7.145   4.970  25.376  0.00  0.00    +0.123 C 
BRANCH  17  18
ATOM     18  CD  GLU A   1       7.488   4.018  26.494  0.00  0.00    +0.305 C 
ATOM     19  OE2 GLU A   1       7.355   4.249  27.685  0.00  0.00    -0.251 OA
BRANCH  18  20
ATOM     20  OE1 GLU A   1       7.947   2.833  26.029  0.00  0.00    -0.481 OA
ATOM     21  HE1 GLU A   1       8.333   2.887  25.134  0.00  0.00    +0.295 HD
ENDBRANCH  18  20
ENDBRANCH  17  18
ENDBRANCH  16  17
ENDBRANCH  11  16
ENDBRANCH   8  11
ENDBRANCH   4   7
BRANCH   1  22
ATOM     22  N   UNK A   0       9.870  -2.236  23.106  0.00  0.00    -0.342 N 
ATOM     23  H   UNK A   0      10.539  -2.704  22.499  0.00  0.00    +0.146 HD
BRANCH  22  24
ATOM     24  C   UNK A   0       9.459  -3.024  24.284  0.00  0.00    +0.125 C 
BRANCH  24  41
ATOM     25  C   UNK A   0       8.032  -4.462  26.496  0.00  0.00    +0.130 C 
ATOM     26  N   UNK A   0       7.477  -4.477  25.150  0.00  0.00    -0.320 N 
ATOM     27  C   UNK A   0       6.322  -5.245  24.812  0.00  0.00    +0.135 A 
ATOM     28  C   UNK A   0       5.670  -6.174  25.804  0.00  0.00    +0.276 A 
ATOM     29  N   UNK A   0       4.593  -6.871  25.339  0.00  0.00    -0.294 N 
ATOM     30  H   UNK A   0       4.188  -7.528  25.983  0.00  0.00    +0.172 HD
ATOM     31  C   UNK A   0       4.114  -6.734  24.083  0.00  0.00    +0.195 A 
ATOM     32  N   UNK A   0       4.631  -5.928  23.219  0.00  0.00    -0.199 NA
ATOM     33  N   UNK A   0       3.034  -7.492  23.765  0.00  0.00    -0.329 N 
ATOM     34  H   UNK A   0       2.585  -7.182  22.908  0.00  0.00    +0.145 HD
ATOM     35  H   UNK A   0       2.386  -7.711  24.505  0.00  0.00    +0.145 HD
ATOM     36  O   UNK A   0       6.050  -6.337  26.955  0.00  0.00    -0.266 OA
ATOM     37  C   UNK A   0       5.744  -5.204  23.574  0.00  0.00    +0.149 A 
ATOM     38  N   UNK A   0       6.303  -4.373  22.596  0.00  0.00    -0.326 N 
ATOM     39  H   UNK A   0       5.599  -4.109  21.912  0.00  0.00    +0.148 HD
ATOM     40  C   UNK A   0       7.303  -3.371  22.965  0.00  0.00    +0.127 C 
ATOM     41  C   UNK A   0       8.297  -4.007  23.983  0.00  0.00    +0.107 C 
ENDBRANCH  24  41
ENDBRANCH  22  24
ENDBRANCH   1  22
TORSDOF 11
ENDMDL
MODEL 5
REMARK VINA RESULT:      -7.9      1.364      1.966
REMARK  Name = 
REMARK  12 active torsions:
REMARK  status: ('A' for Active; 'I' for Inactive)
REMARK    1  A    between atoms: C_1  and  N_2
REMARK    2  A    between atoms: C_3  and  C_5
REMARK    3  A    between atoms: C_5  and  N_6
REMARK    4  A    between atoms: N_6  and  C_7
REMARK    5  A    between atoms: C_10  and  C_13
REMARK    6  A    between atoms: N_15  and  CA_16
REMARK    7  A    between atoms: CA_16  and  CB_18
REMARK    8  A    between atoms: CA_16  and  C_23
REMARK    9  A    between atoms: CB_18  and  CG_19
REMARK   10  A    between atoms: CG_19  and  CD_20
REMARK   11  A    between atoms: CD_20  and  OE1_21
REMARK   12  A    between atoms: C_23  and  O_24
REMARK                            x       y       z     vdW  Elec       q    Type
REMARK                         _______ _______ _______ _____ _____    ______ ____
ROOT
ATOM      1  C   UNK A   0       9.854  -0.911  23.261  0.00  0.00    +0.027 A 
ATOM      2  C   UNK A   0       9.699  -0.145  22.097  0.00  0.00    +0.023 A 
ATOM      3  C   UNK A   0       9.875   1.245  22.115  0.00  0.00    +0.015 A 
ATOM      4  C   UNK A   0      10.223   1.886  23.306  0.00  0.00    +0.037 A 
ATOM      5  C   UNK A   0      10.484   1.119  24.444  0.00  0.00    +0.015 A 
ATOM      6  C   UNK A   0      10.298  -0.265  24.416  0.00  0.00    +0.023 A 
ENDROOT
BRANCH   4   7
ATOM      7  C   UNK A   0      10.285   3.374  23.344  0.00  0.00    +0.245 C 
ATOM      8  N   GLU A   1       9.071   4.031  23.298  0.00  0.00    -0.298 N 
ATOM      9  H   GLU A   1       8.211   3.497  23.348  0.00  0.00    +0.150 HD
ATOM     10  O   UNK A   0      11.360   3.957  23.403  0.00  0.00    -0.270 OA
BRANCH   8  11
ATOM     11  CA  GLU A   1       8.951   5.491  23.462  0.00  0.00    +0.182 C 
BRANCH  11  12
ATOM     12  C   GLU A   1       7.829   5.996  22.537  0.00  0.00    +0.325 C 
ATOM     13  OXT GLU A   1       7.324   7.108  22.584  0.00  0.00    -0.249 OA
BRANCH  12  14
ATOM     14  O   GLU A   1       7.488   5.092  21.582  0.00  0.00    -0.479 OA
ATOM     15  H   GLU A   1       7.282   4.224  21.985  0.00  0.00    +0.295 HD
ENDBRANCH  12  14
ENDBRANCH  11  12
BRANCH  11  16
ATOM     16  CB  GLU A   1       8.664   5.879  24.918  0.00  0.00    +0.045 C 
BRANCH  16  17
ATOM     17  CG  GLU A   1       7.364   5.280  25.454  0.00  0.00    +0.123 C 
BRANCH  17  18
ATOM     18  CD  GLU A   1       7.608   4.263  26.541  0.00  0.00    +0.305 C 
ATOM     19  OE2 GLU A   1       7.479   4.462  27.737  0.00  0.00    -0.251 OA
BRANCH  18  20
ATOM     20  OE1 GLU A   1       7.966   3.058  26.037  0.00  0.00    -0.481 OA
ATOM     21  HE1 GLU A   1       8.916   2.857  26.144  0.00  0.00    +0.295 HD
ENDBRANCH  18  20
ENDBRANCH  17  18
ENDBRANCH  16  17
ENDBRANCH  11  16
ENDBRANCH   8  11
ENDBRANCH   4   7
BRANCH   1  22
ATOM     22  N   UNK A   0       9.551  -2.268  23.209  0.00  0.00    -0.342 N 
ATOM     23  H   UNK A   0      10.094  -2.814  23.873  0.00  0.00    +0.146 HD
BRANCH  22  24
ATOM     24  C   UNK A   0       8.168  -2.745  23.012  0.00  0.00    +0.125 C 
BRANCH  24  41
ATOM     25  C   UNK A   0       6.111  -4.911  22.736  0.00  0.00    +0.130 C 
ATOM     26  N   UNK A   0       6.771  -4.702  24.016  0.00  0.00    -0.320 N 
ATOM     27  C   UNK A   0       6.399  -5.425  25.190  0.00  0.00    +0.135 A 
ATOM     28  C   UNK A   0       5.227  -6.373  25.200  0.00  0.00    +0.276 A 
ATOM     29  N   UNK A   0       4.965  -6.973  26.396  0.00  0.00    -0.294 N 
ATOM     30  H   UNK A   0       4.153  -7.566  26.417  0.00  0.00    +0.172 HD
ATOM     31  C   UNK A   0       5.707  -6.763  27.504  0.00  0.00    +0.195 A 
ATOM     32  N   UNK A   0       6.733  -5.980  27.523  0.00  0.00    -0.199 NA
ATOM     33  N   UNK A   0       5.326  -7.432  28.621  0.00  0.00    -0.329 N 
ATOM     34  H   UNK A   0       6.042  -7.420  29.342  0.00  0.00    +0.145 HD
ATOM     35  H   UNK A   0       4.893  -8.335  28.497  0.00  0.00    +0.145 HD
ATOM     36  O   UNK A   0       4.521  -6.612  24.230  0.00  0.00    -0.266 OA
ATOM     37  C   UNK A   0       7.064  -5.297  26.378  0.00  0.00    +0.149 A 
ATOM     38  N   UNK A   0       8.156  -4.423  26.449  0.00  0.00    -0.326 N 
ATOM     39  H   UNK A   0       8.789  -4.709  27.191  0.00  0.00    +0.148 HD
ATOM     40  C   UNK A   0       8.742  -3.877  25.225  0.00  0.00    +0.127 C 
ATOM     41  C   UNK A   0       7.591  -3.467  24.258  0.00  0.00    +0.107 C 
ENDBRANCH  24  41
ENDBRANCH  22  24
ENDBRANCH   1  22
TORSDOF 11
ENDMDL
MODEL 6
REMARK VINA RESULT:      -7.7      1.605      2.723
REMARK  Name = 
REMARK  12 active torsions:
REMARK  status: ('A' for Active; 'I' for Inactive)
REMARK    1  A    between atoms: C_1  and  N_2
REMARK    2  A    between atoms: C_3  and  C_5
REMARK    3  A    between atoms: C_5  and  N_6
REMARK    4  A    between atoms: N_6  and  C_7
REMARK    5  A    between atoms: C_10  and  C_13
REMARK    6  A    between atoms: N_15  and  CA_16
REMARK    7  A    between atoms: CA_16  and  CB_18
REMARK    8  A    between atoms: CA_16  and  C_23
REMARK    9  A    between atoms: CB_18  and  CG_19
REMARK   10  A    between atoms: CG_19  and  CD_20
REMARK   11  A    between atoms: CD_20  and  OE1_21
REMARK   12  A    between atoms: C_23  and  O_24
REMARK                            x       y       z     vdW  Elec       q    Type
REMARK                         _______ _______ _______ _____ _____    ______ ____
ROOT
ATOM      1  C   UNK A   0       9.763  -0.682  23.024  0.00  0.00    +0.027 A 
ATOM      2  C   UNK A   0       9.689   0.140  21.891  0.00  0.00    +0.023 A 
ATOM      3  C   UNK A   0       9.925   1.518  21.979  0.00  0.00    +0.015 A 
ATOM      4  C   UNK A   0      10.250   2.090  23.211  0.00  0.00    +0.037 A 
ATOM      5  C   UNK A   0      10.431   1.263  24.322  0.00  0.00    +0.015 A 
ATOM      6  C   UNK A   0      10.186  -0.109  24.224  0.00  0.00    +0.023 A 
ENDROOT
BRANCH   4   7
ATOM      7  C   UNK A   0      10.376   3.571  23.319  0.00  0.00    +0.245 C 
ATOM      8  N   GLU A   1       9.191   4.281  23.299  0.00  0.00    -0.298 N 
ATOM      9  H   GLU A   1       8.308   3.782  23.320  0.00  0.00    +0.150 HD
ATOM     10  O   UNK A   0      11.474   4.104  23.410  0.00  0.00    -0.270 OA
BRANCH   8  11
ATOM     11  CA  GLU A   1       9.131   5.734  23.531  0.00  0.00    +0.182 C 
BRANCH  11  12
ATOM     12  C   GLU A   1       7.905   6.298  22.791  0.00  0.00    +0.325 C 
ATOM     13  OXT GLU A   1       7.581   6.016  21.647  0.00  0.00    -0.249 OA
BRANCH  12  14
ATOM     14  O   GLU A   1       7.145   7.108  23.574  0.00  0.00    -0.479 OA
ATOM     15  H   GLU A   1       7.023   7.983  23.151  0.00  0.00    +0.295 HD
ENDBRANCH  12  14
ENDBRANCH  11  12
BRANCH  11  16
ATOM     16  CB  GLU A   1       9.061   6.071  25.025  0.00  0.00    +0.045 C 
BRANCH  16  17
ATOM     17  CG  GLU A   1       8.374   4.985  25.854  0.00  0.00    +0.123 C 
BRANCH  17  18
ATOM     18  CD  GLU A   1       7.432   5.559  26.882  0.00  0.00    +0.305 C 
ATOM     19  OE2 GLU A   1       7.554   5.449  28.091  0.00  0.00    -0.251 OA
BRANCH  18  20
ATOM     20  OE1 GLU A   1       6.422   6.257  26.313  0.00  0.00    -0.481 OA
ATOM     21  HE1 GLU A   1       5.536   5.903  26.522  0.00  0.00    +0.295 HD
ENDBRANCH  18  20
ENDBRANCH  17  18
ENDBRANCH  16  17
ENDBRANCH  11  16
ENDBRANCH   8  11
ENDBRANCH   4   7
BRANCH   1  22
ATOM     22  N   UNK A   0       9.403  -2.021  22.899  0.00  0.00    -0.342 N 
ATOM     23  H   UNK A   0       9.562  -2.382  21.961  0.00  0.00    +0.146 HD
BRANCH  22  24
ATOM     24  C   UNK A   0       9.658  -2.995  23.978  0.00  0.00    +0.125 C 
BRANCH  24  41
ATOM     25  C   UNK A   0       8.929  -4.090  26.674  0.00  0.00    +0.130 C 
ATOM     26  N   UNK A   0       8.051  -4.328  25.538  0.00  0.00    -0.320 N 
ATOM     27  C   UNK A   0       6.895  -5.161  25.631  0.00  0.00    +0.135 A 
ATOM     28  C   UNK A   0       6.573  -5.932  26.885  0.00  0.00    +0.276 A 
ATOM     29  N   UNK A   0       5.457  -6.713  26.827  0.00  0.00    -0.294 N 
ATOM     30  H   UNK A   0       5.268  -7.268  27.644  0.00  0.00    +0.172 HD
ATOM     31  C   UNK A   0       4.666  -6.786  25.733  0.00  0.00    +0.195 A 
ATOM     32  N   UNK A   0       4.897  -6.118  24.654  0.00  0.00    -0.199 NA
ATOM     33  N   UNK A   0       3.587  -7.604  25.824  0.00  0.00    -0.329 N 
ATOM     34  H   UNK A   0       2.917  -7.443  25.079  0.00  0.00    +0.145 HD
ATOM     35  H   UNK A   0       3.163  -7.715  26.732  0.00  0.00    +0.145 HD
ATOM     36  O   UNK A   0       7.243  -5.903  27.908  0.00  0.00    -0.266 OA
ATOM     37  C   UNK A   0       6.019  -5.327  24.595  0.00  0.00    +0.149 A 
ATOM     38  N   UNK A   0       6.261  -4.652  23.393  0.00  0.00    -0.326 N 
ATOM     39  H   UNK A   0       5.391  -4.513  22.884  0.00  0.00    +0.148 HD
ATOM     40  C   UNK A   0       7.261  -3.586  23.335  0.00  0.00    +0.127 C 
ATOM     41  C   UNK A   0       8.517  -4.034  24.140  0.00  0.00    +0.107 C 
ENDBRANCH  24  41
ENDBRANCH  22  24
ENDBRANCH   1  22
TORSDOF 11
ENDMDL
MODEL 7
REMARK VINA RESULT:      -7.6      4.003      9.578
REMARK  Name = 
REMARK  12 active torsions:
REMARK  status: ('A' for Active; 'I' for Inactive)
REMARK    1  A    between atoms: C_1  and  N_2
REMARK    2  A    between atoms: C_3  and  C_5
REMARK    3  A    between atoms: C_5  and  N_6
REMARK    4  A    between atoms: N_6  and  C_7
REMARK    5  A    between atoms: C_10  and  C_13
REMARK    6  A    between atoms: N_15  and  CA_16
REMARK    7  A    between atoms: CA_16  and  CB_18
REMARK    8  A    between atoms: CA_16  and  C_23
REMARK    9  A    between atoms: CB_18  and  CG_19
REMARK   10  A    between atoms: CG_19  and  CD_20
REMARK   11  A    between atoms: CD_20  and  OE1_21
REMARK   12  A    between atoms: C_23  and  O_24
REMARK                            x       y       z     vdW  Elec       q    Type
REMARK                         _______ _______ _______ _____ _____    ______ ____
ROOT
ATOM      1  C   UNK A   0      10.207   2.404  23.132  0.00  0.00    +0.027 A 
ATOM      2  C   UNK A   0      10.593   1.738  24.304  0.00  0.00    +0.023 A 
ATOM      3  C   UNK A   0      10.537   0.341  24.395  0.00  0.00    +0.015 A 
ATOM      4  C   UNK A   0      10.101  -0.410  23.301  0.00  0.00    +0.037 A 
ATOM      5  C   UNK A   0       9.817   0.238  22.097  0.00  0.00    +0.015 A 
ATOM      6  C   UNK A   0       9.870   1.632  22.020  0.00  0.00    +0.023 A 
ENDROOT
BRANCH   4   7
ATOM      7  C   UNK A   0       9.925  -1.882  23.448  0.00  0.00    +0.245 C 
ATOM      8  N   GLU A   1       8.733  -2.295  24.011  0.00  0.00    -0.298 N 
ATOM      9  H   GLU A   1       8.004  -1.615  24.195  0.00  0.00    +0.150 HD
ATOM     10  O   UNK A   0      10.803  -2.659  23.094  0.00  0.00    -0.270 OA
BRANCH   8  11
ATOM     11  CA  GLU A   1       8.346  -3.714  24.101  0.00  0.00    +0.182 C 
BRANCH  11  12
ATOM     12  C   GLU A   1       9.122  -4.359  25.265  0.00  0.00    +0.325 C 
ATOM     13  OXT GLU A   1       8.855  -4.224  26.450  0.00  0.00    -0.249 OA
BRANCH  12  14
ATOM     14  O   GLU A   1      10.118  -5.180  24.841  0.00  0.00    -0.479 OA
ATOM     15  H   GLU A   1      10.065  -6.048  25.291  0.00  0.00    +0.295 HD
ENDBRANCH  12  14
ENDBRANCH  11  12
BRANCH  11  16
ATOM     16  CB  GLU A   1       6.836  -3.882  24.302  0.00  0.00    +0.045 C 
BRANCH  16  17
ATOM     17  CG  GLU A   1       6.342  -5.294  23.984  0.00  0.00    +0.123 C 
BRANCH  17  18
ATOM     18  CD  GLU A   1       5.697  -5.381  22.623  0.00  0.00    +0.305 C 
ATOM     19  OE2 GLU A   1       5.022  -4.507  22.103  0.00  0.00    -0.251 OA
BRANCH  18  20
ATOM     20  OE1 GLU A   1       5.975  -6.551  22.003  0.00  0.00    -0.481 OA
ATOM     21  HE1 GLU A   1       6.766  -6.512  21.431  0.00  0.00    +0.295 HD
ENDBRANCH  18  20
ENDBRANCH  17  18
ENDBRANCH  16  17
ENDBRANCH  11  16
ENDBRANCH   8  11
ENDBRANCH   4   7
BRANCH   1  22
ATOM     22  N   UNK A   0      10.171   3.795  23.139  0.00  0.00    -0.342 N 
ATOM     23  H   UNK A   0      10.378   4.196  22.228  0.00  0.00    +0.146 HD
BRANCH  22  24
ATOM     24  C   UNK A   0       9.162   4.540  23.918  0.00  0.00    +0.125 C 
BRANCH  24  41
ATOM     25  C   UNK A   0       7.092   2.715  25.094  0.00  0.00    +0.130 C 
ATOM     26  N   UNK A   0       6.698   3.715  24.111  0.00  0.00    -0.320 N 
ATOM     27  C   UNK A   0       5.368   3.794  23.599  0.00  0.00    +0.135 A 
ATOM     28  C   UNK A   0       4.316   2.778  23.964  0.00  0.00    +0.276 A 
ATOM     29  N   UNK A   0       3.097   2.956  23.378  0.00  0.00    -0.294 N 
ATOM     30  H   UNK A   0       2.409   2.252  23.580  0.00  0.00    +0.172 HD
ATOM     31  C   UNK A   0       2.824   3.982  22.542  0.00  0.00    +0.195 A 
ATOM     32  N   UNK A   0       3.693   4.884  22.231  0.00  0.00    -0.199 NA
ATOM     33  N   UNK A   0       1.565   4.030  22.037  0.00  0.00    -0.329 N 
ATOM     34  H   UNK A   0       1.353   4.928  21.614  0.00  0.00    +0.145 HD
ATOM     35  H   UNK A   0       0.820   3.668  22.613  0.00  0.00    +0.145 HD
ATOM     36  O   UNK A   0       4.496   1.834  24.719  0.00  0.00    -0.266 OA
ATOM     37  C   UNK A   0       4.965   4.777  22.739  0.00  0.00    +0.149 A 
ATOM     38  N   UNK A   0       5.893   5.749  22.344  0.00  0.00    -0.326 N 
ATOM     39  H   UNK A   0       5.415   6.605  22.075  0.00  0.00    +0.148 HD
ATOM     40  C   UNK A   0       7.171   5.874  23.044  0.00  0.00    +0.127 C 
ATOM     41  C   UNK A   0       7.737   4.447  23.311  0.00  0.00    +0.107 C 
ENDBRANCH  24  41
ENDBRANCH  22  24
ENDBRANCH   1  22
TORSDOF 11
ENDMDL
MODEL 8
REMARK VINA RESULT:      -7.5      1.782      2.932
REMARK  Name = 
REMARK  12 active torsions:
REMARK  status: ('A' for Active; 'I' for Inactive)
REMARK    1  A    between atoms: C_1  and  N_2
REMARK    2  A    between atoms: C_3  and  C_5
REMARK    3  A    between atoms: C_5  and  N_6
REMARK    4  A    between atoms: N_6  and  C_7
REMARK    5  A    between atoms: C_10  and  C_13
REMARK    6  A    between atoms: N_15  and  CA_16
REMARK    7  A    between atoms: CA_16  and  CB_18
REMARK    8  A    between atoms: CA_16  and  C_23
REMARK    9  A    between atoms: CB_18  and  CG_19
REMARK   10  A    between atoms: CG_19  and  CD_20
REMARK   11  A    between atoms: CD_20  and  OE1_21
REMARK   12  A    between atoms: C_23  and  O_24
REMARK                            x       y       z     vdW  Elec       q    Type
REMARK                         _______ _______ _______ _____ _____    ______ ____
ROOT
ATOM      1  C   UNK A   0       8.500  -0.752  22.574  0.00  0.00    +0.027 A 
ATOM      2  C   UNK A   0       7.479   0.096  23.025  0.00  0.00    +0.023 A 
ATOM      3  C   UNK A   0       7.761   1.386  23.495  0.00  0.00    +0.015 A 
ATOM      4  C   UNK A   0       9.080   1.847  23.508  0.00  0.00    +0.037 A 
ATOM      5  C   UNK A   0      10.088   1.049  22.962  0.00  0.00    +0.015 A 
ATOM      6  C   UNK A   0       9.796  -0.237  22.503  0.00  0.00    +0.023 A 
ENDROOT
BRANCH   4   7
ATOM      7  C   UNK A   0       9.386   3.168  24.125  0.00  0.00    +0.245 C 
ATOM      8  N   GLU A   1      10.440   3.865  23.568  0.00  0.00    -0.298 N 
ATOM      9  H   GLU A   1      10.881   3.515  22.724  0.00  0.00    +0.150 HD
ATOM     10  O   UNK A   0       8.733   3.586  25.073  0.00  0.00    -0.270 OA
BRANCH   8  11
ATOM     11  CA  GLU A   1      10.785   5.240  23.970  0.00  0.00    +0.182 C 
BRANCH  11  12
ATOM     12  C   GLU A   1      12.211   5.550  23.479  0.00  0.00    +0.325 C 
ATOM     13  OXT GLU A   1      12.654   5.263  22.377  0.00  0.00    -0.249 OA
BRANCH  12  14
ATOM     14  O   GLU A   1      12.935   6.261  24.382  0.00  0.00    -0.479 OA
ATOM     15  H   GLU A   1      12.862   5.864  25.274  0.00  0.00    +0.295 HD
ENDBRANCH  12  14
ENDBRANCH  11  12
BRANCH  11  16
ATOM     16  CB  GLU A   1       9.789   6.264  23.414  0.00  0.00    +0.045 C 
BRANCH  16  17
ATOM     17  CG  GLU A   1       9.121   7.104  24.502  0.00  0.00    +0.123 C 
BRANCH  17  18
ATOM     18  CD  GLU A   1       9.638   6.773  25.880  0.00  0.00    +0.305 C 
ATOM     19  OE2 GLU A   1      10.724   7.107  26.326  0.00  0.00    -0.251 OA
BRANCH  18  20
ATOM     20  OE1 GLU A   1       8.737   6.071  26.606  0.00  0.00    -0.481 OA
ATOM     21  HE1 GLU A   1       8.150   5.509  26.063  0.00  0.00    +0.295 HD
ENDBRANCH  18  20
ENDBRANCH  17  18
ENDBRANCH  16  17
ENDBRANCH  11  16
ENDBRANCH   8  11
ENDBRANCH   4   7
BRANCH   1  22
ATOM     22  N   UNK A   0       8.176  -2.061  22.231  0.00  0.00    -0.342 N 
ATOM     23  H   UNK A   0       8.095  -2.192  21.226  0.00  0.00    +0.146 HD
BRANCH  22  24
ATOM     24  C   UNK A   0       8.746  -3.215  22.953  0.00  0.00    +0.125 C 
BRANCH  24  41
ATOM     25  C   UNK A   0       8.647  -4.160  25.799  0.00  0.00    +0.130 C 
ATOM     26  N   UNK A   0       7.534  -4.444  24.904  0.00  0.00    -0.320 N 
ATOM     27  C   UNK A   0       6.429  -5.256  25.301  0.00  0.00    +0.135 A 
ATOM     28  C   UNK A   0       6.399  -5.958  26.635  0.00  0.00    +0.276 A 
ATOM     29  N   UNK A   0       5.297  -6.726  26.872  0.00  0.00    -0.294 N 
ATOM     30  H   UNK A   0       5.298  -7.236  27.738  0.00  0.00    +0.172 HD
ATOM     31  C   UNK A   0       4.279  -6.846  25.991  0.00  0.00    +0.195 A 
ATOM     32  N   UNK A   0       4.260  -6.237  24.853  0.00  0.00    -0.199 NA
ATOM     33  N   UNK A   0       3.248  -7.644  26.367  0.00  0.00    -0.329 N 
ATOM     34  H   UNK A   0       2.426  -7.512  25.785  0.00  0.00    +0.145 HD
ATOM     35  H   UNK A   0       3.040  -7.702  27.352  0.00  0.00    +0.145 HD
ATOM     36  O   UNK A   0       7.283  -5.885  27.476  0.00  0.00    -0.266 OA
ATOM     37  C   UNK A   0       5.340  -5.464  24.500  0.00  0.00    +0.149 A 
ATOM     38  N   UNK A   0       5.304  -4.855  23.240  0.00  0.00    -0.326 N 
ATOM     39  H   UNK A   0       4.342  -4.732  22.935  0.00  0.00    +0.148 HD
ATOM     40  C   UNK A   0       6.266  -3.807  22.901  0.00  0.00    +0.127 C 
ATOM     41  C   UNK A   0       7.672  -4.229  23.424  0.00  0.00    +0.107 C 
ENDBRANCH  24  41
ENDBRANCH  22  24
ENDBRANCH   1  22
TORSDOF 11
ENDMDL
MODEL 9
REMARK VINA RESULT:      -7.5      1.813      2.832
REMARK  Name = 
REMARK  12 active torsions:
REMARK  status: ('A' for Active; 'I' for Inactive)
REMARK    1  A    between atoms: C_1  and  N_2
REMARK    2  A    between atoms: C_3  and  C_5
REMARK    3  A    between atoms: C_5  and  N_6
REMARK    4  A    between atoms: N_6  and  C_7
REMARK    5  A    between atoms: C_10  and  C_13
REMARK    6  A    between atoms: N_15  and  CA_16
REMARK    7  A    between atoms: CA_16  and  CB_18
REMARK    8  A    between atoms: CA_16  and  C_23
REMARK    9  A    between atoms: CB_18  and  CG_19
REMARK   10  A    between atoms: CG_19  and  CD_20
REMARK   11  A    between atoms: CD_20  and  OE1_21
REMARK   12  A    between atoms: C_23  and  O_24
REMARK                            x       y       z     vdW  Elec       q    Type
REMARK                         _______ _______ _______ _____ _____    ______ ____
ROOT
ATOM      1  C   UNK A   0       8.269  -2.115  22.695  0.00  0.00    +0.027 A 
ATOM      2  C   UNK A   0       9.601  -1.759  22.442  0.00  0.00    +0.023 A 
ATOM      3  C   UNK A   0       9.995  -0.415  22.392  0.00  0.00    +0.015 A 
ATOM      4  C   UNK A   0       9.053   0.593  22.609  0.00  0.00    +0.037 A 
ATOM      5  C   UNK A   0       7.748   0.245  22.968  0.00  0.00    +0.015 A 
ATOM      6  C   UNK A   0       7.366  -1.098  23.007  0.00  0.00    +0.023 A 
ENDROOT
BRANCH   4   7
ATOM      7  C   UNK A   0       9.452   2.018  22.431  0.00  0.00    +0.245 C 
ATOM      8  N   GLU A   1       8.557   2.959  22.900  0.00  0.00    -0.298 N 
ATOM      9  H   GLU A   1       7.744   2.659  23.426  0.00  0.00    +0.150 HD
ATOM     10  O   UNK A   0      10.511   2.311  21.890  0.00  0.00    -0.270 OA
BRANCH   8  11
ATOM     11  CA  GLU A   1       8.860   4.401  22.924  0.00  0.00    +0.182 C 
BRANCH  11  12
ATOM     12  C   GLU A   1       7.537   5.181  22.811  0.00  0.00    +0.325 C 
ATOM     13  OXT GLU A   1       6.781   5.421  23.740  0.00  0.00    -0.249 OA
BRANCH  12  14
ATOM     14  O   GLU A   1       7.314   5.659  21.560  0.00  0.00    -0.479 OA
ATOM     15  H   GLU A   1       6.358   5.643  21.349  0.00  0.00    +0.295 HD
ENDBRANCH  12  14
ENDBRANCH  11  12
BRANCH  11  16
ATOM     16  CB  GLU A   1       9.617   4.804  24.195  0.00  0.00    +0.045 C 
BRANCH  16  17
ATOM     17  CG  GLU A   1      10.581   5.970  23.975  0.00  0.00    +0.123 C 
BRANCH  17  18
ATOM     18  CD  GLU A   1      12.016   5.516  23.882  0.00  0.00    +0.305 C 
ATOM     19  OE2 GLU A   1      12.411   4.546  23.255  0.00  0.00    -0.251 OA
BRANCH  18  20
ATOM     20  OE1 GLU A   1      12.853   6.335  24.560  0.00  0.00    -0.481 OA
ATOM     21  HE1 GLU A   1      13.550   5.860  25.054  0.00  0.00    +0.295 HD
ENDBRANCH  18  20
ENDBRANCH  17  18
ENDBRANCH  16  17
ENDBRANCH  11  16
ENDBRANCH   8  11
ENDBRANCH   4   7
BRANCH   1  22
ATOM     22  N   UNK A   0       7.913  -3.458  22.615  0.00  0.00    -0.342 N 
ATOM     23  H   UNK A   0       8.067  -3.848  21.688  0.00  0.00    +0.146 HD
BRANCH  22  24
ATOM     24  C   UNK A   0       8.177  -4.397  23.723  0.00  0.00    +0.125 C 
BRANCH  24  41
ATOM     25  C   UNK A   0       6.923  -4.810  26.417  0.00  0.00    +0.130 C 
ATOM     26  N   UNK A   0       6.300  -5.387  25.234  0.00  0.00    -0.320 N 
ATOM     27  C   UNK A   0       5.159  -6.241  25.316  0.00  0.00    +0.135 A 
ATOM     28  C   UNK A   0       4.595  -6.685  26.642  0.00  0.00    +0.276 A 
ATOM     29  N   UNK A   0       3.523  -7.525  26.575  0.00  0.00    -0.294 N 
ATOM     30  H   UNK A   0       3.177  -7.863  27.456  0.00  0.00    +0.172 HD
ATOM     31  C   UNK A   0       2.974  -7.927  25.407  0.00  0.00    +0.195 A 
ATOM     32  N   UNK A   0       3.415  -7.544  24.256  0.00  0.00    -0.199 NA
ATOM     33  N   UNK A   0       1.909  -8.762  25.498  0.00  0.00    -0.329 N 
ATOM     34  H   UNK A   0       1.404  -8.841  24.621  0.00  0.00    +0.145 HD
ATOM     35  H   UNK A   0       1.308  -8.664  26.303  0.00  0.00    +0.145 HD
ATOM     36  O   UNK A   0       5.040  -6.352  27.731  0.00  0.00    -0.266 OA
ATOM     37  C   UNK A   0       4.516  -6.723  24.211  0.00  0.00    +0.149 A 
ATOM     38  N   UNK A   0       4.992  -6.365  22.944  0.00  0.00    -0.326 N 
ATOM     39  H   UNK A   0       4.244  -6.417  22.258  0.00  0.00    +0.148 HD
ATOM     40  C   UNK A   0       5.971  -5.287  22.804  0.00  0.00    +0.127 C 
ATOM     41  C   UNK A   0       7.040  -5.431  23.928  0.00  0.00    +0.107 C 
ENDBRANCH  24  41
ENDBRANCH  22  24
ENDBRANCH   1  22
TORSDOF 11
ENDMDL
