MODEL 1
REMARK VINA RESULT:      -6.7      0.000      0.000
REMARK  Name = 
REMARK  15 active torsions:
REMARK  status: ('A' for Active; 'I' for Inactive)
REMARK    1  A    between atoms: C_9  and  C_33
REMARK    2  A    between atoms: C_10  and  O_11
REMARK    3  A    between atoms: O_11  and  C_12
REMARK    4  A    between atoms: N_15  and  C_16
REMARK    5  A    between atoms: C_19  and  O_20
REMARK    6  A    between atoms: C_19  and  C_30
REMARK    7  A    between atoms: C_21  and  O_23
REMARK    8  A    between atoms: C_24  and  C_25
REMARK    9  A    between atoms: C_25  and  C_26
REMARK   10  A    between atoms: C_33  and  C_56
REMARK   11  A    between atoms: C_40  and  O_41
REMARK   12  A    between atoms: C_40  and  C_42
REMARK   13  A    between atoms: C_42  and  C_43
REMARK   14  A    between atoms: C_56  and  O_58
REMARK   15  A    between atoms: O_58  and  C_59
REMARK                            x       y       z     vdW  Elec       q    Type
REMARK                         _______ _______ _______ _____ _____    ______ ____
ROOT
ATOM      1  C   UNL     1       3.700  -3.444  28.468  0.00  0.00    +0.082 C 
ATOM      2  C   UNL     1       2.057  -4.073  28.835  0.00  0.00    +0.034 C 
ATOM      3  C   UNL     1       2.303  -3.395  30.198  0.00  0.00    -0.019 C 
ATOM      4  C   UNL     1       2.156  -2.044  30.207  0.00  0.00    -0.015 C 
ATOM      5  C   UNL     1       3.356  -1.384  29.597  0.00  0.00    +0.111 C 
ATOM      6  C   UNL     1       2.143  -5.344  27.923  0.00  0.00    +0.168 C 
ATOM      7  C   UNL     1       3.548  -5.981  27.423  0.00  0.00    +0.187 C 
ATOM      8  C   UNL     1       4.718  -4.959  26.748  0.00  0.00    +0.128 C 
ATOM      9  N   UNL     1       6.269  -4.957  26.885  0.00  0.00    -0.325 N 
ATOM     10  C   UNL     1       7.100  -6.142  26.979  0.00  0.00    +0.129 C 
ATOM     11  C   UNL     1       6.809  -3.666  26.517  0.00  0.00    +0.037 A 
ATOM     12  C   UNL     1       5.898  -2.639  26.636  0.00  0.00    -0.016 A 
ATOM     13  C   UNL     1       6.346  -1.141  26.194  0.00  0.00    +0.014 A 
ATOM     14  C   UNL     1       7.742  -0.602  25.650  0.00  0.00    +0.017 A 
ATOM     15  C   UNL     1       8.547  -1.773  25.517  0.00  0.00    +0.126 A 
ATOM     16  C   UNL     1       8.088  -3.227  25.971  0.00  0.00    +0.069 A 
ATOM     17  C   UNL     1       4.413  -3.470  27.027  0.00  0.00    +0.037 C 
ATOM     18  C   UNL     1       3.365  -2.858  26.138  0.00  0.00    +0.030 C 
ATOM     19  C   UNL     1       2.775  -1.824  27.116  0.00  0.00    +0.086 C 
ATOM     20  N   UNL     1       3.615  -1.994  28.316  0.00  0.00    -0.294 NA
ENDROOT
BRANCH  14  21
ATOM     21  C   UNL     1       8.053   0.987  24.677  0.00  0.00    +0.136 C 
ATOM     22  C   UNL     1       9.408   2.323  24.486  0.00  0.00    +0.042 A 
ATOM     23  N   UNL     1      10.856   2.336  24.067  0.00  0.00    -0.357 N 
ATOM     24  H   UNL     1      11.431   1.502  24.013  0.00  0.00    +0.166 HD
ATOM     25  C   UNL     1      11.396   3.665  23.623  0.00  0.00    +0.047 A 
ATOM     26  C   UNL     1      10.434   4.577  23.927  0.00  0.00    +0.003 A 
ATOM     27  C   UNL     1      10.587   5.962  23.553  0.00  0.00    +0.010 A 
ATOM     28  C   UNL     1      11.715   6.469  22.896  0.00  0.00    +0.001 A 
ATOM     29  C   UNL     1      12.760   5.593  22.696  0.00  0.00    +0.002 A 
ATOM     30  C   UNL     1      12.647   4.199  23.076  0.00  0.00    +0.026 A 
ATOM     31  C   UNL     1       9.271   3.788  24.342  0.00  0.00    -0.016 A 
ATOM     32  C   UNL     1       8.125   4.708  24.256  0.00  0.00    +0.053 C 
ATOM     33  C   UNL     1       7.833   4.995  22.772  0.00  0.00    +0.089 C 
ATOM     34  N   UNL     1       6.468   4.614  22.494  0.00  0.00    -0.299 NA
ATOM     35  C   UNL     1       5.562   5.493  23.236  0.00  0.00    +0.119 C 
ATOM     36  C   UNL     1       4.774   4.935  24.449  0.00  0.00    +0.079 C 
ATOM     37  C   UNL     1       4.595   3.403  24.352  0.00  0.00    +0.041 C 
ATOM     38  C   UNL     1       5.804   2.534  23.924  0.00  0.00    +0.008 C 
ATOM     39  C   UNL     1       6.335   3.157  22.613  0.00  0.00    +0.088 C 
ATOM     40  C   UNL     1       6.787   1.974  25.064  0.00  0.00    +0.034 C 
BRANCH  21  41
ATOM     41  C   UNL     1       7.693   0.376  23.241  0.00  0.00    +0.323 C 
ATOM     42  O   UNL     1       6.713  -0.282  23.046  0.00  0.00    -0.249 OA
BRANCH  41  43
ATOM     43  O   UNL     1       8.578   0.714  22.256  0.00  0.00    -0.467 OA
ATOM     44  C   UNL     1       8.892  -0.418  21.420  0.00  0.00    +0.280 C 
ENDBRANCH  41  43
ENDBRANCH  21  41
BRANCH  36  45
ATOM     45  O   UNL     1       3.454   5.525  24.340  0.00  0.00    -0.387 OA
ATOM     46  H   UNL     1       2.846   4.835  24.023  0.00  0.00    +0.210 HD
ENDBRANCH  36  45
BRANCH  36  47
ATOM     47  C   UNL     1       5.280   5.432  25.833  0.00  0.00    +0.032 C 
ATOM     48  C   UNL     1       5.049   4.417  26.948  0.00  0.00    +0.007 C 
ENDBRANCH  36  47
ENDBRANCH  14  21
BRANCH   7  49
ATOM     49  C   UNL     1       3.774  -6.975  28.608  0.00  0.00    +0.247 C 
ATOM     50  O   UNL     1       4.655  -6.827  29.452  0.00  0.00    -0.273 OA
ATOM     51  N   UNL     1       2.696  -7.824  28.889  0.00  0.00    -0.327 N 
ATOM     52  H   UNL     1       1.803  -7.457  28.555  0.00  0.00    +0.145 HD
ATOM     53  H   UNL     1       2.758  -8.694  28.373  0.00  0.00    +0.145 HD
ENDBRANCH   7  49
BRANCH   2  54
ATOM     54  C   UNL     1       0.756  -4.715  29.831  0.00  0.00    +0.012 C 
ATOM     55  C   UNL     1       0.540  -6.142  30.484  0.00  0.00    +0.005 C 
ENDBRANCH   2  54
BRANCH   6  56
ATOM     56  O   UNL     1       1.261  -5.102  26.778  0.00  0.00    -0.387 OA
ATOM     57  H   UNL     1       0.770  -4.265  26.929  0.00  0.00    +0.210 HD
ENDBRANCH   6  56
BRANCH   7  58
ATOM     58  O   UNL     1       3.099  -6.893  26.325  0.00  0.00    -0.375 OA
ATOM     59  H   UNL     1       3.927  -7.217  25.899  0.00  0.00    +0.211 HD
ENDBRANCH   7  58
BRANCH  15  60
ATOM     60  O   UNL     1       9.741  -1.550  24.850  0.00  0.00    -0.495 OA
ATOM     61  C   UNL     1      10.112  -2.428  23.793  0.00  0.00    +0.277 C 
ENDBRANCH  15  60
TORSDOF 10
ENDMDL
MODEL 2
REMARK VINA RESULT:      -6.5      1.932      2.410
REMARK  Name = 
REMARK  15 active torsions:
REMARK  status: ('A' for Active; 'I' for Inactive)
REMARK    1  A    between atoms: C_9  and  C_33
REMARK    2  A    between atoms: C_10  and  O_11
REMARK    3  A    between atoms: O_11  and  C_12
REMARK    4  A    between atoms: N_15  and  C_16
REMARK    5  A    between atoms: C_19  and  O_20
REMARK    6  A    between atoms: C_19  and  C_30
REMARK    7  A    between atoms: C_21  and  O_23
REMARK    8  A    between atoms: C_24  and  C_25
REMARK    9  A    between atoms: C_25  and  C_26
REMARK   10  A    between atoms: C_33  and  C_56
REMARK   11  A    between atoms: C_40  and  O_41
REMARK   12  A    between atoms: C_40  and  C_42
REMARK   13  A    between atoms: C_42  and  C_43
REMARK   14  A    between atoms: C_56  and  O_58
REMARK   15  A    between atoms: O_58  and  C_59
REMARK                            x       y       z     vdW  Elec       q    Type
REMARK                         _______ _______ _______ _____ _____    ______ ____
ROOT
ATOM      1  C   UNL     1       3.990  -4.578  26.515  0.00  0.00    +0.082 C 
ATOM      2  C   UNL     1       2.499  -5.278  27.232  0.00  0.00    +0.034 C 
ATOM      3  C   UNL     1       3.422  -5.531  28.442  0.00  0.00    -0.019 C 
ATOM      4  C   UNL     1       3.683  -4.438  29.208  0.00  0.00    -0.015 C 
ATOM      5  C   UNL     1       4.701  -3.563  28.541  0.00  0.00    +0.111 C 
ATOM      6  C   UNL     1       1.869  -5.776  25.888  0.00  0.00    +0.168 C 
ATOM      7  C   UNL     1       2.738  -6.020  24.539  0.00  0.00    +0.187 C 
ATOM      8  C   UNL     1       3.808  -4.813  24.024  0.00  0.00    +0.128 C 
ATOM      9  N   UNL     1       5.228  -4.914  23.392  0.00  0.00    -0.325 N 
ATOM     10  C   UNL     1       5.656  -5.941  22.462  0.00  0.00    +0.129 C 
ATOM     11  C   UNL     1       5.936  -3.660  23.532  0.00  0.00    +0.037 A 
ATOM     12  C   UNL     1       5.471  -2.884  24.572  0.00  0.00    -0.016 A 
ATOM     13  C   UNL     1       6.130  -1.417  24.808  0.00  0.00    +0.014 A 
ATOM     14  C   UNL     1       7.311  -0.682  24.034  0.00  0.00    +0.017 A 
ATOM     15  C   UNL     1       7.635  -1.564  22.960  0.00  0.00    +0.126 A 
ATOM     16  C   UNL     1       6.984  -3.003  22.761  0.00  0.00    +0.069 A 
ATOM     17  C   UNL     1       4.071  -3.765  25.129  0.00  0.00    +0.037 C 
ATOM     18  C   UNL     1       2.989  -2.734  25.298  0.00  0.00    +0.030 C 
ATOM     19  C   UNL     1       3.132  -2.459  26.806  0.00  0.00    +0.086 C 
ATOM     20  N   UNL     1       4.274  -3.312  27.186  0.00  0.00    -0.294 NA
ENDROOT
BRANCH  14  21
ATOM     21  C   UNL     1       7.676   1.171  23.998  0.00  0.00    +0.136 C 
ATOM     22  C   UNL     1       9.178   2.351  24.087  0.00  0.00    +0.042 A 
ATOM     23  N   UNL     1      10.429   2.564  23.274  0.00  0.00    -0.357 N 
ATOM     24  H   UNL     1      10.780   1.892  22.600  0.00  0.00    +0.166 HD
ATOM     25  C   UNL     1      11.097   3.898  23.438  0.00  0.00    +0.047 A 
ATOM     26  C   UNL     1      10.466   4.503  24.481  0.00  0.00    +0.003 A 
ATOM     27  C   UNL     1      10.800   5.855  24.861  0.00  0.00    +0.010 A 
ATOM     28  C   UNL     1      11.790   6.617  24.229  0.00  0.00    +0.001 A 
ATOM     29  C   UNL     1      12.534   5.982  23.259  0.00  0.00    +0.002 A 
ATOM     30  C   UNL     1      12.237   4.619  22.864  0.00  0.00    +0.026 A 
ATOM     31  C   UNL     1       9.319   3.645  24.788  0.00  0.00    -0.016 A 
ATOM     32  C   UNL     1       8.411   4.480  25.593  0.00  0.00    +0.053 C 
ATOM     33  C   UNL     1       7.798   5.560  24.684  0.00  0.00    +0.089 C 
ATOM     34  N   UNL     1       6.360   5.434  24.731  0.00  0.00    -0.299 NA
ATOM     35  C   UNL     1       5.893   5.763  26.079  0.00  0.00    +0.119 C 
ATOM     36  C   UNL     1       5.362   4.636  27.004  0.00  0.00    +0.079 C 
ATOM     37  C   UNL     1       4.845   3.430  26.187  0.00  0.00    +0.041 C 
ATOM     38  C   UNL     1       5.684   2.926  24.986  0.00  0.00    +0.008 C 
ATOM     39  C   UNL     1       5.961   4.166  24.108  0.00  0.00    +0.088 C 
ATOM     40  C   UNL     1       6.797   1.798  25.249  0.00  0.00    +0.034 C 
BRANCH  21  41
ATOM     41  C   UNL     1       6.823   1.484  22.681  0.00  0.00    +0.323 C 
ATOM     42  O   UNL     1       5.642   1.301  22.616  0.00  0.00    -0.249 OA
BRANCH  41  43
ATOM     43  O   UNL     1       7.555   2.021  21.660  0.00  0.00    -0.467 OA
ATOM     44  C   UNL     1       7.265   3.423  21.485  0.00  0.00    +0.280 C 
ENDBRANCH  41  43
ENDBRANCH  21  41
BRANCH  36  45
ATOM     45  O   UNL     1       4.215   5.216  27.676  0.00  0.00    -0.387 OA
ATOM     46  H   UNL     1       4.529   5.617  28.505  0.00  0.00    +0.210 HD
ENDBRANCH  36  45
BRANCH  36  47
ATOM     47  C   UNL     1       6.314   4.255  28.172  0.00  0.00    +0.032 C 
ATOM     48  C   UNL     1       5.916   2.954  28.861  0.00  0.00    +0.007 C 
ENDBRANCH  36  47
ENDBRANCH  14  21
BRANCH   7  49
ATOM     49  C   UNL     1       3.096  -7.523  24.777  0.00  0.00    +0.247 C 
ATOM     50  O   UNL     1       4.202  -7.898  25.160  0.00  0.00    -0.273 OA
ATOM     51  N   UNL     1       2.000  -8.385  24.906  0.00  0.00    -0.327 N 
ATOM     52  H   UNL     1       1.147  -7.903  25.194  0.00  0.00    +0.145 HD
ATOM     53  H   UNL     1       1.719  -8.772  24.013  0.00  0.00    +0.145 HD
ENDBRANCH   7  49
BRANCH   2  54
ATOM     54  C   UNL     1       1.543  -6.363  28.234  0.00  0.00    +0.012 C 
ATOM     55  C   UNL     1       0.443  -6.079  29.338  0.00  0.00    +0.005 C 
ENDBRANCH   2  54
BRANCH   6  56
ATOM     56  O   UNL     1       0.731  -4.897  25.604  0.00  0.00    -0.387 OA
ATOM     57  H   UNL     1      -0.071  -5.450  25.478  0.00  0.00    +0.210 HD
ENDBRANCH   6  56
BRANCH   7  58
ATOM     58  O   UNL     1       1.669  -6.110  23.497  0.00  0.00    -0.375 OA
ATOM     59  H   UNL     1       1.394  -5.179  23.322  0.00  0.00    +0.211 HD
ENDBRANCH   7  58
BRANCH  15  60
ATOM     60  O   UNL     1       8.502  -1.010  22.031  0.00  0.00    -0.495 OA
ATOM     61  C   UNL     1       9.901  -1.214  22.191  0.00  0.00    +0.277 C 
ENDBRANCH  15  60
TORSDOF 10
ENDMDL
MODEL 3
REMARK VINA RESULT:      -5.7      2.609      4.159
REMARK  Name = 
REMARK  15 active torsions:
REMARK  status: ('A' for Active; 'I' for Inactive)
REMARK    1  A    between atoms: C_9  and  C_33
REMARK    2  A    between atoms: C_10  and  O_11
REMARK    3  A    between atoms: O_11  and  C_12
REMARK    4  A    between atoms: N_15  and  C_16
REMARK    5  A    between atoms: C_19  and  O_20
REMARK    6  A    between atoms: C_19  and  C_30
REMARK    7  A    between atoms: C_21  and  O_23
REMARK    8  A    between atoms: C_24  and  C_25
REMARK    9  A    between atoms: C_25  and  C_26
REMARK   10  A    between atoms: C_33  and  C_56
REMARK   11  A    between atoms: C_40  and  O_41
REMARK   12  A    between atoms: C_40  and  C_42
REMARK   13  A    between atoms: C_42  and  C_43
REMARK   14  A    between atoms: C_56  and  O_58
REMARK   15  A    between atoms: O_58  and  C_59
REMARK                            x       y       z     vdW  Elec       q    Type
REMARK                         _______ _______ _______ _____ _____    ______ ____
ROOT
ATOM      1  C   UNL     1       4.292  -4.942  26.091  0.00  0.00    +0.082 C 
ATOM      2  C   UNL     1       2.936  -5.944  26.709  0.00  0.00    +0.034 C 
ATOM      3  C   UNL     1       4.031  -6.531  27.623  0.00  0.00    -0.019 C 
ATOM      4  C   UNL     1       4.382  -5.751  28.680  0.00  0.00    -0.015 C 
ATOM      5  C   UNL     1       5.274  -4.634  28.231  0.00  0.00    +0.111 C 
ATOM      6  C   UNL     1       2.124  -5.995  25.371  0.00  0.00    +0.168 C 
ATOM      7  C   UNL     1       2.790  -5.704  23.920  0.00  0.00    +0.187 C 
ATOM      8  C   UNL     1       3.751  -4.324  23.720  0.00  0.00    +0.128 C 
ATOM      9  N   UNL     1       5.064  -4.107  22.912  0.00  0.00    -0.325 N 
ATOM     10  C   UNL     1       5.369  -4.723  21.635  0.00  0.00    +0.129 C 
ATOM     11  C   UNL     1       5.762  -2.931  23.384  0.00  0.00    +0.037 A 
ATOM     12  C   UNL     1       5.441  -2.590  24.681  0.00  0.00    -0.016 A 
ATOM     13  C   UNL     1       6.100  -1.250  25.323  0.00  0.00    +0.014 A 
ATOM     14  C   UNL     1       7.141  -0.217  24.704  0.00  0.00    +0.017 A 
ATOM     15  C   UNL     1       7.320  -0.656  23.358  0.00  0.00    +0.126 A 
ATOM     16  C   UNL     1       6.673  -1.980  22.759  0.00  0.00    +0.069 A 
ATOM     17  C   UNL     1       4.154  -3.702  25.076  0.00  0.00    +0.037 C 
ATOM     18  C   UNL     1       3.090  -2.865  25.733  0.00  0.00    +0.030 C 
ATOM     19  C   UNL     1       3.448  -3.113  27.211  0.00  0.00    +0.086 C 
ATOM     20  N   UNL     1       4.649  -3.964  27.116  0.00  0.00    -0.294 NA
ENDROOT
BRANCH  14  21
ATOM     21  C   UNL     1       7.463   1.557  25.268  0.00  0.00    +0.136 C 
ATOM     22  C   UNL     1       6.983   2.729  26.701  0.00  0.00    +0.042 A 
ATOM     23  N   UNL     1       7.146   2.719  28.199  0.00  0.00    -0.357 N 
ATOM     24  H   UNL     1       7.389   1.889  28.731  0.00  0.00    +0.166 HD
ATOM     25  C   UNL     1       7.028   4.052  28.879  0.00  0.00    +0.047 A 
ATOM     26  C   UNL     1       6.586   4.916  27.926  0.00  0.00    +0.003 A 
ATOM     27  C   UNL     1       6.444   6.323  28.215  0.00  0.00    +0.010 A 
ATOM     28  C   UNL     1       6.711   6.889  29.468  0.00  0.00    +0.001 A 
ATOM     29  C   UNL     1       7.031   6.017  30.484  0.00  0.00    +0.002 A 
ATOM     30  C   UNL     1       7.166   4.595  30.234  0.00  0.00    +0.026 A 
ATOM     31  C   UNL     1       6.644   4.166  26.668  0.00  0.00    -0.016 A 
ATOM     32  C   UNL     1       6.590   5.184  25.605  0.00  0.00    +0.053 C 
ATOM     33  C   UNL     1       7.916   5.965  25.601  0.00  0.00    +0.089 C 
ATOM     34  N   UNL     1       8.512   5.845  24.291  0.00  0.00    -0.299 NA
ATOM     35  C   UNL     1       7.665   6.530  23.313  0.00  0.00    +0.119 C 
ATOM     36  C   UNL     1       6.846   5.699  22.291  0.00  0.00    +0.079 C 
ATOM     37  C   UNL     1       7.480   4.309  22.054  0.00  0.00    +0.041 C 
ATOM     38  C   UNL     1       7.986   3.500  23.274  0.00  0.00    +0.008 C 
ATOM     39  C   UNL     1       8.912   4.451  24.064  0.00  0.00    +0.088 C 
ATOM     40  C   UNL     1       6.964   2.498  24.004  0.00  0.00    +0.034 C 
BRANCH  21  41
ATOM     41  C   UNL     1       9.057   1.486  25.141  0.00  0.00    +0.323 C 
ATOM     42  O   UNL     1       9.706   2.360  24.647  0.00  0.00    -0.249 OA
BRANCH  41  43
ATOM     43  O   UNL     1       9.608   0.363  25.691  0.00  0.00    -0.467 OA
ATOM     44  C   UNL     1      10.620  -0.201  24.831  0.00  0.00    +0.280 C 
ENDBRANCH  41  43
ENDBRANCH  21  41
BRANCH  36  45
ATOM     45  O   UNL     1       6.951   6.432  21.044  0.00  0.00    -0.387 OA
ATOM     46  H   UNL     1       6.945   5.785  20.318  0.00  0.00    +0.210 HD
ENDBRANCH  36  45
BRANCH  36  47
ATOM     47  C   UNL     1       5.316   5.664  22.564  0.00  0.00    +0.032 C 
ATOM     48  C   UNL     1       4.846   6.809  23.455  0.00  0.00    +0.007 C 
ENDBRANCH  36  47
ENDBRANCH  14  21
BRANCH   7  49
ATOM     49  C   UNL     1       3.206  -7.170  23.571  0.00  0.00    +0.247 C 
ATOM     50  O   UNL     1       4.146  -7.749  24.111  0.00  0.00    -0.273 OA
ATOM     51  N   UNL     1       2.234  -7.924  22.902  0.00  0.00    -0.327 N 
ATOM     52  H   UNL     1       1.287  -7.572  23.051  0.00  0.00    +0.145 HD
ATOM     53  H   UNL     1       2.321  -7.842  21.896  0.00  0.00    +0.145 HD
ENDBRANCH   7  49
BRANCH   2  54
ATOM     54  C   UNL     1       2.157  -7.369  27.388  0.00  0.00    +0.012 C 
ATOM     55  C   UNL     1       0.893  -7.526  28.330  0.00  0.00    +0.005 C 
ENDBRANCH   2  54
BRANCH   6  56
ATOM     56  O   UNL     1       0.941  -5.151  25.563  0.00  0.00    -0.387 OA
ATOM     57  H   UNL     1       1.000  -4.382  24.955  0.00  0.00    +0.210 HD
ENDBRANCH   6  56
BRANCH   7  58
ATOM     58  O   UNL     1       1.581  -5.505  23.061  0.00  0.00    -0.375 OA
ATOM     59  H   UNL     1       0.835  -5.358  23.690  0.00  0.00    +0.211 HD
ENDBRANCH   7  58
BRANCH  15  60
ATOM     60  O   UNL     1       8.031   0.239  22.574  0.00  0.00    -0.495 OA
ATOM     61  C   UNL     1       8.682  -0.239  21.403  0.00  0.00    +0.277 C 
ENDBRANCH  15  60
TORSDOF 10
ENDMDL
MODEL 4
REMARK VINA RESULT:      -5.5      2.842     11.124
REMARK  Name = 
REMARK  15 active torsions:
REMARK  status: ('A' for Active; 'I' for Inactive)
REMARK    1  A    between atoms: C_9  and  C_33
REMARK    2  A    between atoms: C_10  and  O_11
REMARK    3  A    between atoms: O_11  and  C_12
REMARK    4  A    between atoms: N_15  and  C_16
REMARK    5  A    between atoms: C_19  and  O_20
REMARK    6  A    between atoms: C_19  and  C_30
REMARK    7  A    between atoms: C_21  and  O_23
REMARK    8  A    between atoms: C_24  and  C_25
REMARK    9  A    between atoms: C_25  and  C_26
REMARK   10  A    between atoms: C_33  and  C_56
REMARK   11  A    between atoms: C_40  and  O_41
REMARK   12  A    between atoms: C_40  and  C_42
REMARK   13  A    between atoms: C_42  and  C_43
REMARK   14  A    between atoms: C_56  and  O_58
REMARK   15  A    between atoms: O_58  and  C_59
REMARK                            x       y       z     vdW  Elec       q    Type
REMARK                         _______ _______ _______ _____ _____    ______ ____
ROOT
ATOM      1  C   UNL     1       8.589   3.157  25.275  0.00  0.00    +0.082 C 
ATOM      2  C   UNL     1       9.145   4.297  24.002  0.00  0.00    +0.034 C 
ATOM      3  C   UNL     1      10.454   3.487  24.110  0.00  0.00    -0.019 C 
ATOM      4  C   UNL     1      10.437   2.276  23.493  0.00  0.00    -0.015 C 
ATOM      5  C   UNL     1       9.684   1.279  24.321  0.00  0.00    +0.111 C 
ATOM      6  C   UNL     1       8.269   5.514  24.454  0.00  0.00    +0.168 C 
ATOM      7  C   UNL     1       7.643   5.649  25.945  0.00  0.00    +0.187 C 
ATOM      8  C   UNL     1       6.817   4.328  26.611  0.00  0.00    +0.128 C 
ATOM      9  N   UNL     1       6.790   3.772  28.065  0.00  0.00    -0.325 N 
ATOM     10  C   UNL     1       6.832   4.582  29.268  0.00  0.00    +0.129 C 
ATOM     11  C   UNL     1       6.328   2.402  28.076  0.00  0.00    +0.037 A 
ATOM     12  C   UNL     1       6.511   1.754  26.873  0.00  0.00    -0.016 A 
ATOM     13  C   UNL     1       5.979   0.227  26.718  0.00  0.00    +0.014 A 
ATOM     14  C   UNL     1       5.275  -0.731  27.778  0.00  0.00    +0.017 A 
ATOM     15  C   UNL     1       5.093   0.089  28.932  0.00  0.00    +0.126 A 
ATOM     16  C   UNL     1       5.638   1.579  29.061  0.00  0.00    +0.069 A 
ATOM     17  C   UNL     1       7.082   3.026  25.822  0.00  0.00    +0.037 C 
ATOM     18  C   UNL     1       6.290   2.880  24.551  0.00  0.00    +0.030 C 
ATOM     19  C   UNL     1       7.292   2.057  23.719  0.00  0.00    +0.086 C 
ATOM     20  N   UNL     1       8.402   1.842  24.667  0.00  0.00    -0.294 NA
ENDROOT
BRANCH  14  21
ATOM     21  C   UNL     1       4.226  -2.260  27.417  0.00  0.00    +0.136 C 
ATOM     22  C   UNL     1       3.659  -3.864  28.291  0.00  0.00    +0.042 A 
ATOM     23  N   UNL     1       2.871  -4.191  29.533  0.00  0.00    -0.357 N 
ATOM     24  H   UNL     1       2.681  -3.519  30.270  0.00  0.00    +0.166 HD
ATOM     25  C   UNL     1       2.276  -5.568  29.587  0.00  0.00    +0.047 A 
ATOM     26  C   UNL     1       2.809  -6.243  28.532  0.00  0.00    +0.003 A 
ATOM     27  C   UNL     1       2.383  -7.588  28.227  0.00  0.00    +0.010 A 
ATOM     28  C   UNL     1       1.441  -8.295  28.985  0.00  0.00    +0.001 A 
ATOM     29  C   UNL     1       0.987  -7.685  30.133  0.00  0.00    +0.002 A 
ATOM     30  C   UNL     1       1.407  -6.341  30.479  0.00  0.00    +0.026 A 
ATOM     31  C   UNL     1       3.532  -5.234  27.754  0.00  0.00    -0.016 A 
ATOM     32  C   UNL     1       3.736  -5.839  26.427  0.00  0.00    +0.053 C 
ATOM     33  C   UNL     1       2.379  -5.921  25.706  0.00  0.00    +0.089 C 
ATOM     34  N   UNL     1       2.479  -5.200  24.460  0.00  0.00    -0.299 NA
ATOM     35  C   UNL     1       3.419  -5.892  23.577  0.00  0.00    +0.119 C 
ATOM     36  C   UNL     1       4.808  -5.264  23.291  0.00  0.00    +0.079 C 
ATOM     37  C   UNL     1       4.788  -3.732  23.490  0.00  0.00    +0.041 C 
ATOM     38  C   UNL     1       4.070  -3.149  24.732  0.00  0.00    +0.008 C 
ATOM     39  C   UNL     1       2.655  -3.769  24.738  0.00  0.00    +0.088 C 
ATOM     40  C   UNL     1       4.919  -2.941  26.080  0.00  0.00    +0.034 C 
BRANCH  21  41
ATOM     41  C   UNL     1       2.949  -1.462  26.874  0.00  0.00    +0.323 C 
ATOM     42  O   UNL     1       3.039  -0.485  26.191  0.00  0.00    -0.249 OA
BRANCH  41  43
ATOM     43  O   UNL     1       1.753  -2.025  27.222  0.00  0.00    -0.467 OA
ATOM     44  C   UNL     1       0.912  -1.084  27.920  0.00  0.00    +0.280 C 
ENDBRANCH  41  43
ENDBRANCH  21  41
BRANCH  36  45
ATOM     45  O   UNL     1       5.043  -5.506  21.880  0.00  0.00    -0.387 OA
ATOM     46  H   UNL     1       4.266  -5.187  21.391  0.00  0.00    +0.210 HD
ENDBRANCH  36  45
BRANCH  36  47
ATOM     47  C   UNL     1       5.999  -5.983  23.985  0.00  0.00    +0.032 C 
ATOM     48  C   UNL     1       7.300  -5.190  23.904  0.00  0.00    +0.007 C 
ENDBRANCH  36  47
ENDBRANCH  14  21
BRANCH   7  49
ATOM     49  C   UNL     1       8.827   6.420  26.613  0.00  0.00    +0.247 C 
ATOM     50  O   UNL     1       9.864   6.706  26.018  0.00  0.00    -0.273 OA
ATOM     51  N   UNL     1       8.505   7.106  27.791  0.00  0.00    -0.327 N 
ATOM     52  H   UNL     1       7.510   7.323  27.865  0.00  0.00    +0.145 HD
ATOM     53  H   UNL     1       8.645   6.528  28.611  0.00  0.00    +0.145 HD
ENDBRANCH   7  49
BRANCH   2  54
ATOM     54  C   UNL     1      10.292   5.287  23.108  0.00  0.00    +0.012 C 
ATOM     55  C   UNL     1      11.770   5.746  23.445  0.00  0.00    +0.005 C 
ENDBRANCH   2  54
BRANCH   6  56
ATOM     56  O   UNL     1       7.216   5.673  23.447  0.00  0.00    -0.387 OA
ATOM     57  H   UNL     1       6.578   4.932  23.538  0.00  0.00    +0.210 HD
ENDBRANCH   6  56
BRANCH   7  58
ATOM     58  O   UNL     1       6.627   6.730  25.755  0.00  0.00    -0.375 OA
ATOM     59  H   UNL     1       7.110   7.575  25.917  0.00  0.00    +0.211 HD
ENDBRANCH   7  58
BRANCH  15  60
ATOM     60  O   UNL     1       4.298  -0.494  29.905  0.00  0.00    -0.495 OA
ATOM     61  C   UNL     1       3.199   0.244  30.428  0.00  0.00    +0.277 C 
ENDBRANCH  15  60
TORSDOF 10
ENDMDL
MODEL 5
REMARK VINA RESULT:      -5.5      2.750      4.861
REMARK  Name = 
REMARK  15 active torsions:
REMARK  status: ('A' for Active; 'I' for Inactive)
REMARK    1  A    between atoms: C_9  and  C_33
REMARK    2  A    between atoms: C_10  and  O_11
REMARK    3  A    between atoms: O_11  and  C_12
REMARK    4  A    between atoms: N_15  and  C_16
REMARK    5  A    between atoms: C_19  and  O_20
REMARK    6  A    between atoms: C_19  and  C_30
REMARK    7  A    between atoms: C_21  and  O_23
REMARK    8  A    between atoms: C_24  and  C_25
REMARK    9  A    between atoms: C_25  and  C_26
REMARK   10  A    between atoms: C_33  and  C_56
REMARK   11  A    between atoms: C_40  and  O_41
REMARK   12  A    between atoms: C_40  and  C_42
REMARK   13  A    between atoms: C_42  and  C_43
REMARK   14  A    between atoms: C_56  and  O_58
REMARK   15  A    between atoms: O_58  and  C_59
REMARK                            x       y       z     vdW  Elec       q    Type
REMARK                         _______ _______ _______ _____ _____    ______ ____
ROOT
ATOM      1  C   UNL     1       3.711  -5.357  27.472  0.00  0.00    +0.082 C 
ATOM      2  C   UNL     1       2.556  -6.551  28.157  0.00  0.00    +0.034 C 
ATOM      3  C   UNL     1       3.745  -6.895  29.078  0.00  0.00    -0.019 C 
ATOM      4  C   UNL     1       3.964  -6.018  30.092  0.00  0.00    -0.015 C 
ATOM      5  C   UNL     1       4.643  -4.784  29.580  0.00  0.00    +0.111 C 
ATOM      6  C   UNL     1       1.753  -6.805  26.836  0.00  0.00    +0.168 C 
ATOM      7  C   UNL     1       2.345  -6.470  25.363  0.00  0.00    +0.187 C 
ATOM      8  C   UNL     1       3.048  -4.954  25.086  0.00  0.00    +0.128 C 
ATOM      9  N   UNL     1       4.296  -4.549  24.247  0.00  0.00    -0.325 N 
ATOM     10  C   UNL     1       4.693  -5.161  22.994  0.00  0.00    +0.129 C 
ATOM     11  C   UNL     1       4.781  -3.248  24.656  0.00  0.00    +0.037 A 
ATOM     12  C   UNL     1       4.417  -2.909  25.941  0.00  0.00    -0.016 A 
ATOM     13  C   UNL     1       4.838  -1.447  26.513  0.00  0.00    +0.014 A 
ATOM     14  C   UNL     1       5.677  -0.278  25.831  0.00  0.00    +0.017 A 
ATOM     15  C   UNL     1       5.917  -0.740  24.503  0.00  0.00    +0.126 A 
ATOM     16  C   UNL     1       5.506  -2.184  23.973  0.00  0.00    +0.069 A 
ATOM     17  C   UNL     1       3.348  -4.208  26.406  0.00  0.00    +0.037 C 
ATOM     18  C   UNL     1       2.160  -3.541  27.044  0.00  0.00    +0.030 C 
ATOM     19  C   UNL     1       2.570  -3.654  28.525  0.00  0.00    +0.086 C 
ATOM     20  N   UNL     1       3.900  -4.286  28.447  0.00  0.00    -0.294 NA
ENDROOT
BRANCH  14  21
ATOM     21  C   UNL     1       5.688   1.550  26.310  0.00  0.00    +0.136 C 
ATOM     22  C   UNL     1       4.634   2.787  27.318  0.00  0.00    +0.042 A 
ATOM     23  N   UNL     1       4.178   2.895  28.751  0.00  0.00    -0.357 N 
ATOM     24  H   UNL     1       4.210   2.124  29.409  0.00  0.00    +0.166 HD
ATOM     25  C   UNL     1       3.754   4.263  29.200  0.00  0.00    +0.047 A 
ATOM     26  C   UNL     1       3.708   5.026  28.075  0.00  0.00    +0.003 A 
ATOM     27  C   UNL     1       3.417   6.438  28.152  0.00  0.00    +0.010 A 
ATOM     28  C   UNL     1       3.138   7.108  29.350  0.00  0.00    +0.001 A 
ATOM     29  C   UNL     1       3.047   6.334  30.485  0.00  0.00    +0.002 A 
ATOM     30  C   UNL     1       3.315   4.910  30.441  0.00  0.00    +0.026 A 
ATOM     31  C   UNL     1       4.292   4.193  27.020  0.00  0.00    -0.016 A 
ATOM     32  C   UNL     1       4.641   5.126  25.936  0.00  0.00    +0.053 C 
ATOM     33  C   UNL     1       5.831   5.990  26.390  0.00  0.00    +0.089 C 
ATOM     34  N   UNL     1       6.908   5.816  25.445  0.00  0.00    -0.299 NA
ATOM     35  C   UNL     1       6.509   6.372  24.151  0.00  0.00    +0.119 C 
ATOM     36  C   UNL     1       6.199   5.418  22.968  0.00  0.00    +0.079 C 
ATOM     37  C   UNL     1       6.917   4.060  23.134  0.00  0.00    +0.041 C 
ATOM     38  C   UNL     1       6.911   3.374  24.523  0.00  0.00    +0.008 C 
ATOM     39  C   UNL     1       7.409   4.438  25.526  0.00  0.00    +0.088 C 
ATOM     40  C   UNL     1       5.713   2.363  24.873  0.00  0.00    +0.034 C 
BRANCH  21  41
ATOM     41  C   UNL     1       7.199   1.574  26.839  0.00  0.00    +0.323 C 
ATOM     42  O   UNL     1       8.137   1.371  26.126  0.00  0.00    -0.249 OA
BRANCH  41  43
ATOM     43  O   UNL     1       7.319   1.894  28.163  0.00  0.00    -0.467 OA
ATOM     44  C   UNL     1       7.651   0.736  28.956  0.00  0.00    +0.280 C 
ENDBRANCH  41  43
ENDBRANCH  21  41
BRANCH  36  45
ATOM     45  O   UNL     1       6.775   6.065  21.806  0.00  0.00    -0.387 OA
ATOM     46  H   UNL     1       7.154   5.373  21.238  0.00  0.00    +0.210 HD
ENDBRANCH  36  45
BRANCH  36  47
ATOM     47  C   UNL     1       4.690   5.303  22.608  0.00  0.00    +0.032 C 
ATOM     48  C   UNL     1       4.042   6.655  22.329  0.00  0.00    +0.007 C 
ENDBRANCH  36  47
ENDBRANCH  14  21
BRANCH   7  49
ATOM     49  C   UNL     1       3.008  -7.855  25.072  0.00  0.00    +0.247 C 
ATOM     50  O   UNL     1       4.212  -7.995  24.868  0.00  0.00    -0.273 OA
ATOM     51  N   UNL     1       2.244  -8.971  25.433  0.00  0.00    -0.327 N 
ATOM     52  H   UNL     1       1.547  -8.761  26.150  0.00  0.00    +0.145 HD
ATOM     53  H   UNL     1       1.655  -9.286  24.671  0.00  0.00    +0.145 HD
ENDBRANCH   7  49
BRANCH   2  54
ATOM     54  C   UNL     1       2.044  -8.057  28.911  0.00  0.00    +0.012 C 
ATOM     55  C   UNL     1       0.841  -8.387  29.887  0.00  0.00    +0.005 C 
ENDBRANCH   2  54
BRANCH   6  56
ATOM     56  O   UNL     1       0.443  -6.172  27.011  0.00  0.00    -0.387 OA
ATOM     57  H   UNL     1      -0.206  -6.860  27.276  0.00  0.00    +0.210 HD
ENDBRANCH   6  56
BRANCH   7  58
ATOM     58  O   UNL     1       1.112  -6.525  24.517  0.00  0.00    -0.375 OA
ATOM     59  H   UNL     1       1.405  -6.266  23.611  0.00  0.00    +0.211 HD
ENDBRANCH   7  58
BRANCH  15  60
ATOM     60  O   UNL     1       6.453   0.228  23.669  0.00  0.00    -0.495 OA
ATOM     61  C   UNL     1       7.582  -0.103  22.868  0.00  0.00    +0.277 C 
ENDBRANCH  15  60
TORSDOF 10
ENDMDL
MODEL 6
REMARK VINA RESULT:      -4.3      2.745      4.645
REMARK  Name = 
REMARK  15 active torsions:
REMARK  status: ('A' for Active; 'I' for Inactive)
REMARK    1  A    between atoms: C_9  and  C_33
REMARK    2  A    between atoms: C_10  and  O_11
REMARK    3  A    between atoms: O_11  and  C_12
REMARK    4  A    between atoms: N_15  and  C_16
REMARK    5  A    between atoms: C_19  and  O_20
REMARK    6  A    between atoms: C_19  and  C_30
REMARK    7  A    between atoms: C_21  and  O_23
REMARK    8  A    between atoms: C_24  and  C_25
REMARK    9  A    between atoms: C_25  and  C_26
REMARK   10  A    between atoms: C_33  and  C_56
REMARK   11  A    between atoms: C_40  and  O_41
REMARK   12  A    between atoms: C_40  and  C_42
REMARK   13  A    between atoms: C_42  and  C_43
REMARK   14  A    between atoms: C_56  and  O_58
REMARK   15  A    between atoms: O_58  and  C_59
REMARK                            x       y       z     vdW  Elec       q    Type
REMARK                         _______ _______ _______ _____ _____    ______ ____
ROOT
ATOM      1  C   UNL     1       1.872  -4.981  25.982  0.00  0.00    +0.082 C 
ATOM      2  C   UNL     1       1.805  -6.616  25.242  0.00  0.00    +0.034 C 
ATOM      3  C   UNL     1       0.466  -6.102  24.675  0.00  0.00    -0.019 C 
ATOM      4  C   UNL     1       0.573  -5.258  23.615  0.00  0.00    -0.015 C 
ATOM      5  C   UNL     1       0.970  -3.888  24.076  0.00  0.00    +0.111 C 
ATOM      6  C   UNL     1       2.597  -7.358  26.372  0.00  0.00    +0.168 C 
ATOM      7  C   UNL     1       2.762  -6.765  27.873  0.00  0.00    +0.187 C 
ATOM      8  C   UNL     1       3.252  -5.156  28.069  0.00  0.00    +0.128 C 
ATOM      9  N   UNL     1       2.806  -4.074  29.097  0.00  0.00    -0.325 N 
ATOM     10  C   UNL     1       2.472  -4.329  30.485  0.00  0.00    +0.129 C 
ATOM     11  C   UNL     1       3.140  -2.750  28.617  0.00  0.00    +0.037 A 
ATOM     12  C   UNL     1       3.273  -2.684  27.247  0.00  0.00    -0.016 A 
ATOM     13  C   UNL     1       3.711  -1.272  26.571  0.00  0.00    +0.014 A 
ATOM     14  C   UNL     1       3.996   0.145  27.240  0.00  0.00    +0.017 A 
ATOM     15  C   UNL     1       3.890  -0.096  28.643  0.00  0.00    +0.126 A 
ATOM     16  C   UNL     1       3.445  -1.487  29.277  0.00  0.00    +0.069 A 
ATOM     17  C   UNL     1       3.136  -4.353  26.754  0.00  0.00    +0.037 C 
ATOM     18  C   UNL     1       4.255  -4.574  25.773  0.00  0.00    +0.030 C 
ATOM     19  C   UNL     1       3.485  -4.361  24.456  0.00  0.00    +0.086 C 
ATOM     20  N   UNL     1       2.132  -4.007  24.925  0.00  0.00    -0.294 NA
ENDROOT
BRANCH  14  21
ATOM     21  C   UNL     1       4.987   1.576  26.507  0.00  0.00    +0.136 C 
ATOM     22  C   UNL     1       6.669   1.881  25.650  0.00  0.00    +0.042 A 
ATOM     23  N   UNL     1       7.343   1.386  24.396  0.00  0.00    -0.357 N 
ATOM     24  H   UNL     1       7.033   0.571  23.878  0.00  0.00    +0.166 HD
ATOM     25  C   UNL     1       8.467   2.237  23.878  0.00  0.00    +0.047 A 
ATOM     26  C   UNL     1       8.708   3.162  24.845  0.00  0.00    +0.003 A 
ATOM     27  C   UNL     1       9.679   4.209  24.639  0.00  0.00    +0.010 A 
ATOM     28  C   UNL     1      10.450   4.334  23.476  0.00  0.00    +0.001 A 
ATOM     29  C   UNL     1      10.320   3.334  22.538  0.00  0.00    +0.002 A 
ATOM     30  C   UNL     1       9.367   2.258  22.721  0.00  0.00    +0.026 A 
ATOM     31  C   UNL     1       7.621   3.000  25.814  0.00  0.00    -0.016 A 
ATOM     32  C   UNL     1       7.620   4.238  26.610  0.00  0.00    +0.053 C 
ATOM     33  C   UNL     1       7.121   5.395  25.725  0.00  0.00    +0.089 C 
ATOM     34  N   UNL     1       5.966   5.987  26.356  0.00  0.00    -0.299 NA
ATOM     35  C   UNL     1       6.375   6.621  27.611  0.00  0.00    +0.119 C 
ATOM     36  C   UNL     1       5.964   5.981  28.963  0.00  0.00    +0.079 C 
ATOM     37  C   UNL     1       4.696   5.110  28.815  0.00  0.00    +0.041 C 
ATOM     38  C   UNL     1       4.581   4.157  27.599  0.00  0.00    +0.008 C 
ATOM     39  C   UNL     1       4.859   5.023  26.350  0.00  0.00    +0.088 C 
ATOM     40  C   UNL     1       5.142   2.659  27.744  0.00  0.00    +0.034 C 
BRANCH  21  41
ATOM     41  C   UNL     1       3.805   2.145  25.590  0.00  0.00    +0.323 C 
ATOM     42  O   UNL     1       3.869   2.173  24.396  0.00  0.00    -0.249 OA
BRANCH  41  43
ATOM     43  O   UNL     1       2.703   2.549  26.290  0.00  0.00    -0.467 OA
ATOM     44  C   UNL     1       1.710   3.131  25.421  0.00  0.00    +0.280 C 
ENDBRANCH  41  43
ENDBRANCH  21  41
BRANCH  36  45
ATOM     45  O   UNL     1       5.613   7.102  29.814  0.00  0.00    -0.387 OA
ATOM     46  H   UNL     1       4.819   6.854  30.318  0.00  0.00    +0.210 HD
ENDBRANCH  36  45
BRANCH  36  47
ATOM     47  C   UNL     1       7.125   5.292  29.733  0.00  0.00    +0.032 C 
ATOM     48  C   UNL     1       6.753   3.907  30.252  0.00  0.00    +0.007 C 
ENDBRANCH  36  47
ENDBRANCH  14  21
BRANCH   7  49
ATOM     49  C   UNL     1       1.495  -7.421  28.511  0.00  0.00    +0.247 C 
ATOM     50  O   UNL     1       0.464  -6.798  28.752  0.00  0.00    -0.273 OA
ATOM     51  N   UNL     1       1.446  -8.819  28.438  0.00  0.00    -0.327 N 
ATOM     52  H   UNL     1       2.023  -9.198  27.686  0.00  0.00    +0.145 HD
ATOM     53  H   UNL     1       1.868  -9.253  29.250  0.00  0.00    +0.145 HD
ENDBRANCH   7  49
BRANCH   2  54
ATOM     54  C   UNL     1       1.051  -8.083  24.628  0.00  0.00    +0.012 C 
ATOM     55  C   UNL     1       1.037  -8.731  23.182  0.00  0.00    +0.005 C 
ENDBRANCH   2  54
BRANCH   6  56
ATOM     56  O   UNL     1       3.909  -7.697  25.814  0.00  0.00    -0.387 OA
ATOM     57  H   UNL     1       4.496  -6.913  25.890  0.00  0.00    +0.210 HD
ENDBRANCH   6  56
BRANCH   7  58
ATOM     58  O   UNL     1       3.867  -7.613  28.419  0.00  0.00    -0.375 OA
ATOM     59  H   UNL     1       3.544  -8.542  28.345  0.00  0.00    +0.211 HD
ENDBRANCH   7  58
BRANCH  15  60
ATOM     60  O   UNL     1       4.316   0.968  29.421  0.00  0.00    -0.495 OA
ATOM     61  C   UNL     1       3.484   1.418  30.485  0.00  0.00    +0.277 C 
ENDBRANCH  15  60
TORSDOF 10
ENDMDL
