MODEL 1
REMARK VINA RESULT:      -5.7      0.000      0.000
REMARK  Name = 
REMARK  9 active torsions:
REMARK  status: ('A' for Active; 'I' for Inactive)
REMARK    1  A    between atoms: C_1  and  C_2
REMARK    2  A    between atoms: C_2  and  N_3
REMARK    3  A    between atoms: N_3  and  C_4
REMARK    4  A    between atoms: N_3  and  C_6
REMARK    5  A    between atoms: C_4  and  C_5
REMARK    6  A    between atoms: C_6  and  C_7
REMARK    7  A    between atoms: C_7  and  N_8
REMARK    8  A    between atoms: C_9  and  C_11
REMARK    9  A    between atoms: C_14  and  N_15
REMARK                            x       y       z     vdW  Elec       q    Type
REMARK                         _______ _______ _______ _____ _____    ______ ____
ROOT
ATOM      1  N   UNL     1       8.013  -3.609  23.187  0.00  0.00    -0.310 N 
ATOM      2  H   UNL     1       7.376  -3.141  22.553  0.00  0.00    +0.149 HD
ATOM      3  C   UNL     1       9.199  -3.031  23.594  0.00  0.00    +0.244 C 
ATOM      4  O   UNL     1       9.998  -3.602  24.331  0.00  0.00    -0.270 OA
ENDROOT
BRANCH   3   5
ATOM      5  C   UNL     1       9.479  -1.641  23.158  0.00  0.00    +0.037 A 
ATOM      6  C   UNL     1      10.021  -0.670  24.004  0.00  0.00    +0.015 A 
ATOM      7  C   UNL     1      10.254   0.625  23.517  0.00  0.00    +0.023 A 
ATOM      8  C   UNL     1      10.000   0.951  22.179  0.00  0.00    +0.025 A 
ATOM      9  C   UNL     1       9.384  -0.002  21.367  0.00  0.00    +0.023 A 
ATOM     10  C   UNL     1       9.139  -1.291  21.844  0.00  0.00    +0.015 A 
BRANCH   8  11
ATOM     11  N   UNL     1      10.136   2.270  21.732  0.00  0.00    -0.358 N 
ATOM     12  H   UNL     1       9.985   2.968  22.454  0.00  0.00    +0.142 HD
ATOM     13  H   UNL     1      10.992   2.438  21.212  0.00  0.00    +0.142 HD
ENDBRANCH   8  11
ENDBRANCH   3   5
BRANCH   1  14
ATOM     14  C   UNL     1       7.678  -4.956  23.605  0.00  0.00    +0.120 C 
BRANCH  14  15
ATOM     15  C   UNL     1       6.506  -5.017  24.603  0.00  0.00    +0.103 C 
BRANCH  15  16
ATOM     16  N   UNL     1       6.829  -5.504  25.966  0.00  0.00    -0.301 NA
BRANCH  16  18
ATOM     17  C   UNL     1       6.907  -3.090  26.706  0.00  0.00    +0.020 C 
ATOM     18  C   UNL     1       7.543  -4.477  26.747  0.00  0.00    +0.081 C 
ENDBRANCH  16  18
BRANCH  16  19
ATOM     19  C   UNL     1       5.616  -6.016  26.635  0.00  0.00    +0.081 C 
ATOM     20  C   UNL     1       4.605  -6.756  25.758  0.00  0.00    +0.020 C 
ENDBRANCH  16  19
ENDBRANCH  15  16
ENDBRANCH  14  15
ENDBRANCH   1  14
TORSDOF 7
ENDMDL
MODEL 2
REMARK VINA RESULT:      -5.6      2.224      3.158
REMARK  Name = 
REMARK  9 active torsions:
REMARK  status: ('A' for Active; 'I' for Inactive)
REMARK    1  A    between atoms: C_1  and  C_2
REMARK    2  A    between atoms: C_2  and  N_3
REMARK    3  A    between atoms: N_3  and  C_4
REMARK    4  A    between atoms: N_3  and  C_6
REMARK    5  A    between atoms: C_4  and  C_5
REMARK    6  A    between atoms: C_6  and  C_7
REMARK    7  A    between atoms: C_7  and  N_8
REMARK    8  A    between atoms: C_9  and  C_11
REMARK    9  A    between atoms: C_14  and  N_15
REMARK                            x       y       z     vdW  Elec       q    Type
REMARK                         _______ _______ _______ _____ _____    ______ ____
ROOT
ATOM      1  N   UNL     1       9.163  -2.316  24.447  0.00  0.00    -0.310 N 
ATOM      2  H   UNL     1       8.599  -1.778  25.095  0.00  0.00    +0.149 HD
ATOM      3  C   UNL     1       9.910  -1.718  23.452  0.00  0.00    +0.244 C 
ATOM      4  O   UNL     1      10.567  -2.360  22.639  0.00  0.00    -0.270 OA
ENDROOT
BRANCH   3   5
ATOM      5  C   UNL     1       9.954  -0.235  23.414  0.00  0.00    +0.037 A 
ATOM      6  C   UNL     1       9.960   0.558  24.563  0.00  0.00    +0.015 A 
ATOM      7  C   UNL     1       9.999   1.956  24.444  0.00  0.00    +0.023 A 
ATOM      8  C   UNL     1      10.084   2.571  23.189  0.00  0.00    +0.025 A 
ATOM      9  C   UNL     1       9.995   1.774  22.048  0.00  0.00    +0.023 A 
ATOM     10  C   UNL     1       9.947   0.382  22.156  0.00  0.00    +0.015 A 
BRANCH   8  11
ATOM     11  N   UNL     1      10.017   3.965  23.077  0.00  0.00    -0.358 N 
ATOM     12  H   UNL     1      10.177   4.312  22.137  0.00  0.00    +0.142 HD
ATOM     13  H   UNL     1       9.183   4.368  23.495  0.00  0.00    +0.142 HD
ENDBRANCH   8  11
ENDBRANCH   3   5
BRANCH   1  14
ATOM     14  C   UNL     1       9.106  -3.761  24.547  0.00  0.00    +0.120 C 
BRANCH  14  15
ATOM     15  C   UNL     1       7.775  -4.361  24.054  0.00  0.00    +0.103 C 
BRANCH  15  16
ATOM     16  N   UNL     1       7.583  -4.410  22.585  0.00  0.00    -0.301 NA
BRANCH  16  18
ATOM     17  C   UNL     1       6.208  -5.795  20.980  0.00  0.00    +0.020 C 
ATOM     18  C   UNL     1       7.202  -5.763  22.138  0.00  0.00    +0.081 C 
ENDBRANCH  16  18
BRANCH  16  19
ATOM     19  C   UNL     1       6.640  -3.359  22.149  0.00  0.00    +0.081 C 
ATOM     20  C   UNL     1       5.721  -2.770  23.220  0.00  0.00    +0.020 C 
ENDBRANCH  16  19
ENDBRANCH  15  16
ENDBRANCH  14  15
ENDBRANCH   1  14
TORSDOF 7
ENDMDL
MODEL 3
REMARK VINA RESULT:      -5.6      1.479      2.614
REMARK  Name = 
REMARK  9 active torsions:
REMARK  status: ('A' for Active; 'I' for Inactive)
REMARK    1  A    between atoms: C_1  and  C_2
REMARK    2  A    between atoms: C_2  and  N_3
REMARK    3  A    between atoms: N_3  and  C_4
REMARK    4  A    between atoms: N_3  and  C_6
REMARK    5  A    between atoms: C_4  and  C_5
REMARK    6  A    between atoms: C_6  and  C_7
REMARK    7  A    between atoms: C_7  and  N_8
REMARK    8  A    between atoms: C_9  and  C_11
REMARK    9  A    between atoms: C_14  and  N_15
REMARK                            x       y       z     vdW  Elec       q    Type
REMARK                         _______ _______ _______ _____ _____    ______ ____
ROOT
ATOM      1  N   UNL     1       7.919  -3.206  24.411  0.00  0.00    -0.310 N 
ATOM      2  H   UNL     1       7.138  -2.590  24.220  0.00  0.00    +0.149 HD
ATOM      3  C   UNL     1       9.203  -2.912  23.999  0.00  0.00    +0.244 C 
ATOM      4  O   UNL     1      10.152  -3.668  24.191  0.00  0.00    -0.270 OA
ENDROOT
BRANCH   3   5
ATOM      5  C   UNL     1       9.440  -1.601  23.347  0.00  0.00    +0.037 A 
ATOM      6  C   UNL     1       9.200  -1.368  21.991  0.00  0.00    +0.015 A 
ATOM      7  C   UNL     1       9.451  -0.099  21.447  0.00  0.00    +0.023 A 
ATOM      8  C   UNL     1       9.894   0.957  22.253  0.00  0.00    +0.025 A 
ATOM      9  C   UNL     1      10.208   0.692  23.586  0.00  0.00    +0.023 A 
ATOM     10  C   UNL     1       9.969  -0.570  24.135  0.00  0.00    +0.015 A 
BRANCH   8  11
ATOM     11  N   UNL     1      10.242   2.187  21.682  0.00  0.00    -0.358 N 
ATOM     12  H   UNL     1      11.083   2.600  22.072  0.00  0.00    +0.142 HD
ATOM     13  H   UNL     1      10.259   2.175  20.667  0.00  0.00    +0.142 HD
ENDBRANCH   8  11
ENDBRANCH   3   5
BRANCH   1  14
ATOM     14  C   UNL     1       7.637  -4.463  25.076  0.00  0.00    +0.120 C 
BRANCH  14  15
ATOM     15  C   UNL     1       6.223  -5.006  24.794  0.00  0.00    +0.103 C 
BRANCH  15  16
ATOM     16  N   UNL     1       5.714  -4.824  23.414  0.00  0.00    -0.301 NA
BRANCH  16  18
ATOM     17  C   UNL     1       7.046  -5.787  21.496  0.00  0.00    +0.020 C 
ATOM     18  C   UNL     1       5.993  -6.007  22.579  0.00  0.00    +0.081 C 
ENDBRANCH  16  18
BRANCH  16  19
ATOM     19  C   UNL     1       4.287  -4.440  23.434  0.00  0.00    +0.081 C 
ATOM     20  C   UNL     1       3.266  -5.572  23.308  0.00  0.00    +0.020 C 
ENDBRANCH  16  19
ENDBRANCH  15  16
ENDBRANCH  14  15
ENDBRANCH   1  14
TORSDOF 7
ENDMDL
MODEL 4
REMARK VINA RESULT:      -5.5      1.255      1.886
REMARK  Name = 
REMARK  9 active torsions:
REMARK  status: ('A' for Active; 'I' for Inactive)
REMARK    1  A    between atoms: C_1  and  C_2
REMARK    2  A    between atoms: C_2  and  N_3
REMARK    3  A    between atoms: N_3  and  C_4
REMARK    4  A    between atoms: N_3  and  C_6
REMARK    5  A    between atoms: C_4  and  C_5
REMARK    6  A    between atoms: C_6  and  C_7
REMARK    7  A    between atoms: C_7  and  N_8
REMARK    8  A    between atoms: C_9  and  C_11
REMARK    9  A    between atoms: C_14  and  N_15
REMARK                            x       y       z     vdW  Elec       q    Type
REMARK                         _______ _______ _______ _____ _____    ______ ____
ROOT
ATOM      1  N   UNL     1       8.193  -2.343  22.752  0.00  0.00    -0.310 N 
ATOM      2  H   UNL     1       7.511  -1.689  22.386  0.00  0.00    +0.149 HD
ATOM      3  C   UNL     1       9.469  -1.951  23.108  0.00  0.00    +0.244 C 
ATOM      4  O   UNL     1      10.316  -2.740  23.517  0.00  0.00    -0.270 OA
ENDROOT
BRANCH   3   5
ATOM      5  C   UNL     1       9.795  -0.506  23.040  0.00  0.00    +0.037 A 
ATOM      6  C   UNL     1       9.607   0.266  21.891  0.00  0.00    +0.015 A 
ATOM      7  C   UNL     1       9.943   1.628  21.904  0.00  0.00    +0.023 A 
ATOM      8  C   UNL     1      10.419   2.243  23.069  0.00  0.00    +0.025 A 
ATOM      9  C   UNL     1      10.680   1.446  24.184  0.00  0.00    +0.023 A 
ATOM     10  C   UNL     1      10.357   0.088  24.178  0.00  0.00    +0.015 A 
BRANCH   8  11
ATOM     11  N   UNL     1      10.850   3.574  23.042  0.00  0.00    -0.358 N 
ATOM     12  H   UNL     1      11.206   3.911  23.931  0.00  0.00    +0.142 HD
ATOM     13  H   UNL     1      11.482   3.783  22.275  0.00  0.00    +0.142 HD
ENDBRANCH   8  11
ENDBRANCH   3   5
BRANCH   1  14
ATOM     14  C   UNL     1       7.813  -3.740  22.824  0.00  0.00    +0.120 C 
BRANCH  14  15
ATOM     15  C   UNL     1       6.839  -4.055  23.976  0.00  0.00    +0.103 C 
BRANCH  15  16
ATOM     16  N   UNL     1       7.197  -5.204  24.841  0.00  0.00    -0.301 NA
BRANCH  16  18
ATOM     17  C   UNL     1       8.971  -4.608  26.538  0.00  0.00    +0.020 C 
ATOM     18  C   UNL     1       8.634  -5.201  25.172  0.00  0.00    +0.081 C 
ENDBRANCH  16  18
BRANCH  16  19
ATOM     19  C   UNL     1       6.319  -5.252  26.029  0.00  0.00    +0.081 C 
ATOM     20  C   UNL     1       5.244  -6.339  26.049  0.00  0.00    +0.020 C 
ENDBRANCH  16  19
ENDBRANCH  15  16
ENDBRANCH  14  15
ENDBRANCH   1  14
TORSDOF 7
ENDMDL
MODEL 5
REMARK VINA RESULT:      -5.5      1.973      2.792
REMARK  Name = 
REMARK  9 active torsions:
REMARK  status: ('A' for Active; 'I' for Inactive)
REMARK    1  A    between atoms: C_1  and  C_2
REMARK    2  A    between atoms: C_2  and  N_3
REMARK    3  A    between atoms: N_3  and  C_4
REMARK    4  A    between atoms: N_3  and  C_6
REMARK    5  A    between atoms: C_4  and  C_5
REMARK    6  A    between atoms: C_6  and  C_7
REMARK    7  A    between atoms: C_7  and  N_8
REMARK    8  A    between atoms: C_9  and  C_11
REMARK    9  A    between atoms: C_14  and  N_15
REMARK                            x       y       z     vdW  Elec       q    Type
REMARK                         _______ _______ _______ _____ _____    ______ ____
ROOT
ATOM      1  N   UNL     1       9.411  -2.458  24.305  0.00  0.00    -0.310 N 
ATOM      2  H   UNL     1       9.715  -1.992  25.152  0.00  0.00    +0.149 HD
ATOM      3  C   UNL     1       9.275  -1.786  23.106  0.00  0.00    +0.244 C 
ATOM      4  O   UNL     1       8.872  -2.330  22.083  0.00  0.00    -0.270 OA
ENDROOT
BRANCH   3   5
ATOM      5  C   UNL     1       9.692  -0.363  23.057  0.00  0.00    +0.037 A 
ATOM      6  C   UNL     1       9.556   0.433  21.917  0.00  0.00    +0.015 A 
ATOM      7  C   UNL     1       9.977   1.771  21.949  0.00  0.00    +0.023 A 
ATOM      8  C   UNL     1      10.487   2.340  23.123  0.00  0.00    +0.025 A 
ATOM      9  C   UNL     1      10.693   1.515  24.228  0.00  0.00    +0.023 A 
ATOM     10  C   UNL     1      10.286   0.180  24.204  0.00  0.00    +0.015 A 
BRANCH   8  11
ATOM     11  N   UNL     1      11.000   3.643  23.114  0.00  0.00    -0.358 N 
ATOM     12  H   UNL     1      10.990   4.084  22.200  0.00  0.00    +0.142 HD
ATOM     13  H   UNL     1      10.604   4.242  23.832  0.00  0.00    +0.142 HD
ENDBRANCH   8  11
ENDBRANCH   3   5
BRANCH   1  14
ATOM     14  C   UNL     1       9.043  -3.857  24.403  0.00  0.00    +0.120 C 
BRANCH  14  15
ATOM     15  C   UNL     1       7.587  -4.081  24.852  0.00  0.00    +0.103 C 
BRANCH  15  16
ATOM     16  N   UNL     1       6.676  -4.683  23.849  0.00  0.00    -0.301 NA
BRANCH  16  18
ATOM     17  C   UNL     1       5.662  -2.376  24.027  0.00  0.00    +0.020 C 
ATOM     18  C   UNL     1       5.822  -3.661  23.217  0.00  0.00    +0.081 C 
ENDBRANCH  16  18
BRANCH  16  19
ATOM     19  C   UNL     1       7.438  -5.496  22.878  0.00  0.00    +0.081 C 
ATOM     20  C   UNL     1       6.805  -5.699  21.501  0.00  0.00    +0.020 C 
ENDBRANCH  16  19
ENDBRANCH  15  16
ENDBRANCH  14  15
ENDBRANCH   1  14
TORSDOF 7
ENDMDL
MODEL 6
REMARK VINA RESULT:      -5.5      0.924      2.341
REMARK  Name = 
REMARK  9 active torsions:
REMARK  status: ('A' for Active; 'I' for Inactive)
REMARK    1  A    between atoms: C_1  and  C_2
REMARK    2  A    between atoms: C_2  and  N_3
REMARK    3  A    between atoms: N_3  and  C_4
REMARK    4  A    between atoms: N_3  and  C_6
REMARK    5  A    between atoms: C_4  and  C_5
REMARK    6  A    between atoms: C_6  and  C_7
REMARK    7  A    between atoms: C_7  and  N_8
REMARK    8  A    between atoms: C_9  and  C_11
REMARK    9  A    between atoms: C_14  and  N_15
REMARK                            x       y       z     vdW  Elec       q    Type
REMARK                         _______ _______ _______ _____ _____    ______ ____
ROOT
ATOM      1  N   UNL     1       8.376  -2.680  25.355  0.00  0.00    -0.310 N 
ATOM      2  H   UNL     1       7.757  -1.892  25.508  0.00  0.00    +0.149 HD
ATOM      3  C   UNL     1       9.360  -2.662  24.386  0.00  0.00    +0.244 C 
ATOM      4  O   UNL     1      10.091  -3.623  24.165  0.00  0.00    -0.270 OA
ENDROOT
BRANCH   3   5
ATOM      5  C   UNL     1       9.565  -1.403  23.629  0.00  0.00    +0.037 A 
ATOM      6  C   UNL     1       9.297  -1.281  22.264  0.00  0.00    +0.015 A 
ATOM      7  C   UNL     1       9.521  -0.056  21.617  0.00  0.00    +0.023 A 
ATOM      8  C   UNL     1       9.963   1.066  22.328  0.00  0.00    +0.025 A 
ATOM      9  C   UNL     1      10.305   0.911  23.672  0.00  0.00    +0.023 A 
ATOM     10  C   UNL     1      10.094  -0.307  24.323  0.00  0.00    +0.015 A 
BRANCH   8  11
ATOM     11  N   UNL     1      10.282   2.251  21.656  0.00  0.00    -0.358 N 
ATOM     12  H   UNL     1      11.266   2.340  21.421  0.00  0.00    +0.142 HD
ATOM     13  H   UNL     1       9.681   2.444  20.860  0.00  0.00    +0.142 HD
ENDBRANCH   8  11
ENDBRANCH   3   5
BRANCH   1  14
ATOM     14  C   UNL     1       8.149  -3.876  26.142  0.00  0.00    +0.120 C 
BRANCH  14  15
ATOM     15  C   UNL     1       6.693  -4.377  26.097  0.00  0.00    +0.103 C 
BRANCH  15  16
ATOM     16  N   UNL     1       6.418  -5.512  25.185  0.00  0.00    -0.301 NA
BRANCH  16  18
ATOM     17  C   UNL     1       5.142  -6.408  27.173  0.00  0.00    +0.020 C 
ATOM     18  C   UNL     1       5.273  -6.313  25.655  0.00  0.00    +0.081 C 
ENDBRANCH  16  18
BRANCH  16  19
ATOM     19  C   UNL     1       6.274  -5.037  23.793  0.00  0.00    +0.081 C 
ATOM     20  C   UNL     1       7.351  -5.475  22.800  0.00  0.00    +0.020 C 
ENDBRANCH  16  19
ENDBRANCH  15  16
ENDBRANCH  14  15
ENDBRANCH   1  14
TORSDOF 7
ENDMDL
MODEL 7
REMARK VINA RESULT:      -5.5      1.466      2.239
REMARK  Name = 
REMARK  9 active torsions:
REMARK  status: ('A' for Active; 'I' for Inactive)
REMARK    1  A    between atoms: C_1  and  C_2
REMARK    2  A    between atoms: C_2  and  N_3
REMARK    3  A    between atoms: N_3  and  C_4
REMARK    4  A    between atoms: N_3  and  C_6
REMARK    5  A    between atoms: C_4  and  C_5
REMARK    6  A    between atoms: C_6  and  C_7
REMARK    7  A    between atoms: C_7  and  N_8
REMARK    8  A    between atoms: C_9  and  C_11
REMARK    9  A    between atoms: C_14  and  N_15
REMARK                            x       y       z     vdW  Elec       q    Type
REMARK                         _______ _______ _______ _____ _____    ______ ____
ROOT
ATOM      1  N   UNL     1       8.181  -2.134  22.763  0.00  0.00    -0.310 N 
ATOM      2  H   UNL     1       7.468  -1.430  22.616  0.00  0.00    +0.149 HD
ATOM      3  C   UNL     1       9.508  -1.807  22.955  0.00  0.00    +0.244 C 
ATOM      4  O   UNL     1      10.387  -2.652  23.097  0.00  0.00    -0.270 OA
ENDROOT
BRANCH   3   5
ATOM      5  C   UNL     1       9.862  -0.368  23.044  0.00  0.00    +0.037 A 
ATOM      6  C   UNL     1      10.366   0.223  24.205  0.00  0.00    +0.015 A 
ATOM      7  C   UNL     1      10.674   1.592  24.212  0.00  0.00    +0.023 A 
ATOM      8  C   UNL     1      10.533   2.369  23.056  0.00  0.00    +0.025 A 
ATOM      9  C   UNL     1       9.953   1.787  21.928  0.00  0.00    +0.023 A 
ATOM     10  C   UNL     1       9.635   0.428  21.914  0.00  0.00    +0.015 A 
BRANCH   8  11
ATOM     11  N   UNL     1      10.743   3.752  23.102  0.00  0.00    -0.358 N 
ATOM     12  H   UNL     1       9.890   4.296  23.189  0.00  0.00    +0.142 HD
ATOM     13  H   UNL     1      11.447   4.036  23.777  0.00  0.00    +0.142 HD
ENDBRANCH   8  11
ENDBRANCH   3   5
BRANCH   1  14
ATOM     14  C   UNL     1       7.776  -3.525  22.694  0.00  0.00    +0.120 C 
BRANCH  14  15
ATOM     15  C   UNL     1       6.808  -3.941  23.818  0.00  0.00    +0.103 C 
BRANCH  15  16
ATOM     16  N   UNL     1       7.424  -4.545  25.023  0.00  0.00    -0.301 NA
BRANCH  16  18
ATOM     17  C   UNL     1       6.539  -5.250  27.282  0.00  0.00    +0.020 C 
ATOM     18  C   UNL     1       6.456  -5.376  25.763  0.00  0.00    +0.081 C 
ENDBRANCH  16  18
BRANCH  16  19
ATOM     19  C   UNL     1       8.666  -5.262  24.668  0.00  0.00    +0.081 C 
ATOM     20  C   UNL     1       9.870  -5.056  25.588  0.00  0.00    +0.020 C 
ENDBRANCH  16  19
ENDBRANCH  15  16
ENDBRANCH  14  15
ENDBRANCH   1  14
TORSDOF 7
ENDMDL
MODEL 8
REMARK VINA RESULT:      -5.4      1.086      1.327
REMARK  Name = 
REMARK  9 active torsions:
REMARK  status: ('A' for Active; 'I' for Inactive)
REMARK    1  A    between atoms: C_1  and  C_2
REMARK    2  A    between atoms: C_2  and  N_3
REMARK    3  A    between atoms: N_3  and  C_4
REMARK    4  A    between atoms: N_3  and  C_6
REMARK    5  A    between atoms: C_4  and  C_5
REMARK    6  A    between atoms: C_6  and  C_7
REMARK    7  A    between atoms: C_7  and  N_8
REMARK    8  A    between atoms: C_9  and  C_11
REMARK    9  A    between atoms: C_14  and  N_15
REMARK                            x       y       z     vdW  Elec       q    Type
REMARK                         _______ _______ _______ _____ _____    ______ ____
ROOT
ATOM      1  N   UNL     1       8.201  -2.551  22.773  0.00  0.00    -0.310 N 
ATOM      2  H   UNL     1       7.589  -1.891  22.308  0.00  0.00    +0.149 HD
ATOM      3  C   UNL     1       9.418  -2.173  23.305  0.00  0.00    +0.244 C 
ATOM      4  O   UNL     1      10.186  -2.970  23.837  0.00  0.00    -0.270 OA
ENDROOT
BRANCH   3   5
ATOM      5  C   UNL     1       9.772  -0.733  23.274  0.00  0.00    +0.037 A 
ATOM      6  C   UNL     1      10.219  -0.032  24.397  0.00  0.00    +0.015 A 
ATOM      7  C   UNL     1      10.532   1.331  24.287  0.00  0.00    +0.023 A 
ATOM      8  C   UNL     1      10.451   1.994  23.057  0.00  0.00    +0.025 A 
ATOM      9  C   UNL     1       9.926   1.306  21.962  0.00  0.00    +0.023 A 
ATOM     10  C   UNL     1       9.604  -0.049  22.063  0.00  0.00    +0.015 A 
BRANCH   8  11
ATOM     11  N   UNL     1      10.664   3.376  22.980  0.00  0.00    -0.358 N 
ATOM     12  H   UNL     1       9.815   3.917  22.849  0.00  0.00    +0.142 HD
ATOM     13  H   UNL     1      11.237   3.742  23.734  0.00  0.00    +0.142 HD
ENDBRANCH   8  11
ENDBRANCH   3   5
BRANCH   1  14
ATOM     14  C   UNL     1       7.794  -3.942  22.800  0.00  0.00    +0.120 C 
BRANCH  14  15
ATOM     15  C   UNL     1       6.496  -4.188  23.593  0.00  0.00    +0.103 C 
BRANCH  15  16
ATOM     16  N   UNL     1       6.616  -5.046  24.796  0.00  0.00    -0.301 NA
BRANCH  16  18
ATOM     17  C   UNL     1       8.559  -4.806  26.392  0.00  0.00    +0.020 C 
ATOM     18  C   UNL     1       7.194  -4.302  25.931  0.00  0.00    +0.081 C 
ENDBRANCH  16  18
BRANCH  16  19
ATOM     19  C   UNL     1       5.321  -5.685  25.109  0.00  0.00    +0.081 C 
ATOM     20  C   UNL     1       5.221  -6.426  26.443  0.00  0.00    +0.020 C 
ENDBRANCH  16  19
ENDBRANCH  15  16
ENDBRANCH  14  15
ENDBRANCH   1  14
TORSDOF 7
ENDMDL
MODEL 9
REMARK VINA RESULT:      -5.1      1.614      6.961
REMARK  Name = 
REMARK  9 active torsions:
REMARK  status: ('A' for Active; 'I' for Inactive)
REMARK    1  A    between atoms: C_1  and  C_2
REMARK    2  A    between atoms: C_2  and  N_3
REMARK    3  A    between atoms: N_3  and  C_4
REMARK    4  A    between atoms: N_3  and  C_6
REMARK    5  A    between atoms: C_4  and  C_5
REMARK    6  A    between atoms: C_6  and  C_7
REMARK    7  A    between atoms: C_7  and  N_8
REMARK    8  A    between atoms: C_9  and  C_11
REMARK    9  A    between atoms: C_14  and  N_15
REMARK                            x       y       z     vdW  Elec       q    Type
REMARK                         _______ _______ _______ _____ _____    ______ ____
ROOT
ATOM      1  N   UNL     1       7.996  -2.929  23.457  0.00  0.00    -0.310 N 
ATOM      2  H   UNL     1       8.080  -2.580  24.404  0.00  0.00    +0.149 HD
ATOM      3  C   UNL     1       7.396  -4.139  23.171  0.00  0.00    +0.244 C 
ATOM      4  O   UNL     1       7.321  -4.591  22.032  0.00  0.00    -0.270 OA
ENDROOT
BRANCH   3   5
ATOM      5  C   UNL     1       6.772  -4.886  24.292  0.00  0.00    +0.037 A 
ATOM      6  C   UNL     1       7.268  -4.857  25.597  0.00  0.00    +0.015 A 
ATOM      7  C   UNL     1       6.623  -5.594  26.603  0.00  0.00    +0.023 A 
ATOM      8  C   UNL     1       5.458  -6.320  26.330  0.00  0.00    +0.025 A 
ATOM      9  C   UNL     1       5.020  -6.407  25.009  0.00  0.00    +0.023 A 
ATOM     10  C   UNL     1       5.659  -5.685  23.999  0.00  0.00    +0.015 A 
BRANCH   8  11
ATOM     11  N   UNL     1       4.884  -7.134  27.314  0.00  0.00    -0.358 N 
ATOM     12  H   UNL     1       3.906  -6.933  27.498  0.00  0.00    +0.142 HD
ATOM     13  H   UNL     1       5.048  -8.126  27.169  0.00  0.00    +0.142 HD
ENDBRANCH   8  11
ENDBRANCH   3   5
BRANCH   1  14
ATOM     14  C   UNL     1       8.598  -2.146  22.395  0.00  0.00    +0.120 C 
BRANCH  14  15
ATOM     15  C   UNL     1       9.995  -1.600  22.749  0.00  0.00    +0.103 C 
BRANCH  15  16
ATOM     16  N   UNL     1      10.264  -0.192  22.370  0.00  0.00    -0.301 NA
BRANCH  16  18
ATOM     17  C   UNL     1       8.765   1.752  21.773  0.00  0.00    +0.020 C 
ATOM     18  C   UNL     1       9.223   0.329  21.464  0.00  0.00    +0.081 C 
ENDBRANCH  16  18
BRANCH  16  19
ATOM     19  C   UNL     1      10.466   0.639  23.575  0.00  0.00    +0.081 C 
ATOM     20  C   UNL     1      10.136  -0.006  24.922  0.00  0.00    +0.020 C 
ENDBRANCH  16  19
ENDBRANCH  15  16
ENDBRANCH  14  15
ENDBRANCH   1  14
TORSDOF 7
ENDMDL
