MODEL 1
REMARK VINA RESULT:      -6.7      0.000      0.000
REMARK  Name = 
REMARK  8 active torsions:
REMARK  status: ('A' for Active; 'I' for Inactive)
REMARK    1  A    between atoms: O_1  and  C_2
REMARK    2  A    between atoms: C_2  and  C_3
REMARK    3  A    between atoms: C_3  and  O_4
REMARK    4  A    between atoms: O_4  and  N_5
REMARK    5  A    between atoms: C_6  and  C_8
REMARK    6  A    between atoms: C_15  and  N_16
REMARK    7  A    between atoms: N_16  and  C_17
REMARK    8  A    between atoms: C_20  and  C_24
REMARK                            x       y       z     vdW  Elec       q    Type
REMARK                         _______ _______ _______ _____ _____    ______ ____
ROOT
ATOM      1  C   UNL     1       7.218  -4.472  24.782  0.00  0.00    +0.063 A 
ATOM      2  C   UNL     1       7.972  -3.649  23.917  0.00  0.00    +0.082 A 
ATOM      3  C   UNL     1       7.417  -3.383  22.642  0.00  0.00    +0.180 A 
ATOM      4  F   UNL     1       8.150  -2.786  21.690  0.00  0.00    -0.201 F 
ATOM      5  C   UNL     1       6.112  -3.737  22.320  0.00  0.00    +0.160 A 
ATOM      6  F   UNL     1       5.606  -3.414  21.123  0.00  0.00    -0.202 F 
ATOM      7  C   UNL     1       5.326  -4.416  23.231  0.00  0.00    +0.042 A 
ATOM      8  C   UNL     1       5.891  -4.816  24.442  0.00  0.00    +0.018 A 
ENDROOT
BRANCH   1  11
ATOM      9  N   UNL     1       6.830  -5.491  26.965  0.00  0.00    -0.190 N 
ATOM     10  H   UNL     1       5.880  -5.729  26.694  0.00  0.00    +0.183 HD
ATOM     11  C   UNL     1       7.750  -5.108  26.023  0.00  0.00    +0.269 C 
ATOM     12  O   UNL     1       8.966  -5.214  26.161  0.00  0.00    -0.268 OA
BRANCH   9  13
ATOM     13  O   UNL     1       7.351  -6.158  28.099  0.00  0.00    -0.277 OA
BRANCH  13  14
ATOM     14  C   UNL     1       6.254  -6.456  28.971  0.00  0.00    +0.218 C 
BRANCH  14  15
ATOM     15  C   UNL     1       4.941  -6.345  28.212  0.00  0.00    +0.186 C 
BRANCH  15  16
ATOM     16  O   UNL     1       4.822  -7.423  27.289  0.00  0.00    -0.393 OA
ATOM     17  H   UNL     1       5.725  -7.707  27.067  0.00  0.00    +0.209 HD
ENDBRANCH  15  16
ENDBRANCH  14  15
ENDBRANCH  13  14
ENDBRANCH   9  13
ENDBRANCH   1  11
BRANCH   2  18
ATOM     18  N   UNL     1       9.250  -3.119  24.289  0.00  0.00    -0.309 N 
ATOM     19  H   UNL     1      10.005  -3.587  23.778  0.00  0.00    +0.152 HD
BRANCH  18  20
ATOM     20  C   UNL     1       9.525  -1.722  24.389  0.00  0.00    +0.067 A 
ATOM     21  C   UNL     1      10.281  -1.062  23.413  0.00  0.00    +0.146 A 
ATOM     22  F   UNL     1      10.886  -1.778  22.453  0.00  0.00    -0.204 F 
ATOM     23  C   UNL     1      10.351   0.330  23.367  0.00  0.00    +0.057 A 
ATOM     24  C   UNL     1       9.666   1.082  24.324  0.00  0.00    +0.028 A 
ATOM     25  C   UNL     1       9.024   0.439  25.382  0.00  0.00    +0.019 A 
ATOM     26  C   UNL     1       8.982  -0.956  25.432  0.00  0.00    +0.027 A 
BRANCH  24  27
ATOM     27  C   UNL     1       9.540   2.502  24.170  0.00  0.00    -0.070 C 
ATOM     28  C   UNL     1       9.450   3.674  23.939  0.00  0.00    +0.009 C 
ENDBRANCH  24  27
ENDBRANCH  18  20
ENDBRANCH   2  18
TORSDOF 8
ENDMDL
MODEL 2
REMARK VINA RESULT:      -6.7      1.657      2.003
REMARK  Name = 
REMARK  8 active torsions:
REMARK  status: ('A' for Active; 'I' for Inactive)
REMARK    1  A    between atoms: O_1  and  C_2
REMARK    2  A    between atoms: C_2  and  C_3
REMARK    3  A    between atoms: C_3  and  O_4
REMARK    4  A    between atoms: O_4  and  N_5
REMARK    5  A    between atoms: C_6  and  C_8
REMARK    6  A    between atoms: C_15  and  N_16
REMARK    7  A    between atoms: N_16  and  C_17
REMARK    8  A    between atoms: C_20  and  C_24
REMARK                            x       y       z     vdW  Elec       q    Type
REMARK                         _______ _______ _______ _____ _____    ______ ____
ROOT
ATOM      1  C   UNL     1       6.680  -5.250  25.348  0.00  0.00    +0.063 A 
ATOM      2  C   UNL     1       7.526  -4.868  24.284  0.00  0.00    +0.082 A 
ATOM      3  C   UNL     1       7.115  -5.233  22.979  0.00  0.00    +0.180 A 
ATOM      4  F   UNL     1       7.950  -5.092  21.937  0.00  0.00    -0.201 F 
ATOM      5  C   UNL     1       5.855  -5.760  22.725  0.00  0.00    +0.160 A 
ATOM      6  F   UNL     1       5.485  -6.037  21.468  0.00  0.00    -0.202 F 
ATOM      7  C   UNL     1       4.972  -5.996  23.761  0.00  0.00    +0.042 A 
ATOM      8  C   UNL     1       5.400  -5.778  25.072  0.00  0.00    +0.018 A 
ENDROOT
BRANCH   1  11
ATOM      9  N   UNL     1       6.053  -5.160  27.705  0.00  0.00    -0.190 N 
ATOM     10  H   UNL     1       5.129  -5.519  27.481  0.00  0.00    +0.183 HD
ATOM     11  C   UNL     1       7.071  -5.231  26.788  0.00  0.00    +0.269 C 
ATOM     12  O   UNL     1       8.264  -5.232  27.079  0.00  0.00    -0.268 OA
BRANCH   9  13
ATOM     13  O   UNL     1       6.444  -5.217  29.064  0.00  0.00    -0.277 OA
BRANCH  13  14
ATOM     14  C   UNL     1       5.391  -5.860  29.793  0.00  0.00    +0.218 C 
BRANCH  14  15
ATOM     15  C   UNL     1       4.624  -6.801  28.877  0.00  0.00    +0.186 C 
BRANCH  15  16
ATOM     16  O   UNL     1       5.473  -7.863  28.452  0.00  0.00    -0.393 OA
ATOM     17  H   UNL     1       4.982  -8.368  27.781  0.00  0.00    +0.209 HD
ENDBRANCH  15  16
ENDBRANCH  14  15
ENDBRANCH  13  14
ENDBRANCH   9  13
ENDBRANCH   1  11
BRANCH   2  18
ATOM     18  N   UNL     1       8.753  -4.162  24.499  0.00  0.00    -0.309 N 
ATOM     19  H   UNL     1       9.543  -4.662  24.078  0.00  0.00    +0.152 HD
BRANCH  18  20
ATOM     20  C   UNL     1       8.902  -2.758  24.294  0.00  0.00    +0.067 A 
ATOM     21  C   UNL     1       8.770  -1.853  25.355  0.00  0.00    +0.146 A 
ATOM     22  F   UNL     1       8.345  -2.296  26.549  0.00  0.00    -0.204 F 
ATOM     23  C   UNL     1       9.150  -0.518  25.223  0.00  0.00    +0.057 A 
ATOM     24  C   UNL     1       9.659  -0.069  24.003  0.00  0.00    +0.028 A 
ATOM     25  C   UNL     1       9.667  -0.921  22.898  0.00  0.00    +0.019 A 
ATOM     26  C   UNL     1       9.260  -2.249  23.036  0.00  0.00    +0.027 A 
BRANCH  24  27
ATOM     27  C   UNL     1      10.259   1.230  23.906  0.00  0.00    -0.070 C 
ATOM     28  C   UNL     1      10.704   2.330  23.740  0.00  0.00    +0.009 C 
ENDBRANCH  24  27
ENDBRANCH  18  20
ENDBRANCH   2  18
TORSDOF 8
ENDMDL
MODEL 3
REMARK VINA RESULT:      -6.7      6.071      8.500
REMARK  Name = 
REMARK  8 active torsions:
REMARK  status: ('A' for Active; 'I' for Inactive)
REMARK    1  A    between atoms: O_1  and  C_2
REMARK    2  A    between atoms: C_2  and  C_3
REMARK    3  A    between atoms: C_3  and  O_4
REMARK    4  A    between atoms: O_4  and  N_5
REMARK    5  A    between atoms: C_6  and  C_8
REMARK    6  A    between atoms: C_15  and  N_16
REMARK    7  A    between atoms: N_16  and  C_17
REMARK    8  A    between atoms: C_20  and  C_24
REMARK                            x       y       z     vdW  Elec       q    Type
REMARK                         _______ _______ _______ _____ _____    ______ ____
ROOT
ATOM      1  C   UNL     1       9.933   2.087  23.507  0.00  0.00    +0.063 A 
ATOM      2  C   UNL     1       9.329   1.671  22.300  0.00  0.00    +0.082 A 
ATOM      3  C   UNL     1       9.633   0.362  21.852  0.00  0.00    +0.180 A 
ATOM      4  F   UNL     1       9.270  -0.039  20.623  0.00  0.00    -0.201 F 
ATOM      5  C   UNL     1      10.322  -0.546  22.646  0.00  0.00    +0.160 A 
ATOM      6  F   UNL     1      10.536  -1.793  22.207  0.00  0.00    -0.202 F 
ATOM      7  C   UNL     1      10.784  -0.175  23.894  0.00  0.00    +0.042 A 
ATOM      8  C   UNL     1      10.624   1.149  24.305  0.00  0.00    +0.018 A 
ENDROOT
BRANCH   1  11
ATOM      9  N   UNL     1      10.995   4.284  23.486  0.00  0.00    -0.190 N 
ATOM     10  H   UNL     1      11.402   4.087  22.576  0.00  0.00    +0.183 HD
ATOM     11  C   UNL     1       9.986   3.500  23.983  0.00  0.00    +0.269 C 
ATOM     12  O   UNL     1       9.167   3.875  24.819  0.00  0.00    -0.268 OA
BRANCH   9  13
ATOM     13  O   UNL     1      10.981   5.639  23.895  0.00  0.00    -0.277 OA
BRANCH  13  14
ATOM     14  C   UNL     1      12.314   6.147  23.765  0.00  0.00    +0.218 C 
BRANCH  14  15
ATOM     15  C   UNL     1      13.053   5.394  22.668  0.00  0.00    +0.186 C 
BRANCH  15  16
ATOM     16  O   UNL     1      14.319   4.956  23.149  0.00  0.00    -0.393 OA
ATOM     17  H   UNL     1      14.991   5.530  22.743  0.00  0.00    +0.209 HD
ENDBRANCH  15  16
ENDBRANCH  14  15
ENDBRANCH  13  14
ENDBRANCH   9  13
ENDBRANCH   1  11
BRANCH   2  18
ATOM     18  N   UNL     1       8.465   2.527  21.543  0.00  0.00    -0.309 N 
ATOM     19  H   UNL     1       8.309   2.152  20.602  0.00  0.00    +0.152 HD
BRANCH  18  20
ATOM     20  C   UNL     1       7.252   3.074  22.055  0.00  0.00    +0.067 A 
ATOM     21  C   UNL     1       6.245   2.248  22.569  0.00  0.00    +0.146 A 
ATOM     22  F   UNL     1       6.355   0.916  22.437  0.00  0.00    -0.204 F 
ATOM     23  C   UNL     1       5.172   2.772  23.289  0.00  0.00    +0.057 A 
ATOM     24  C   UNL     1       5.090   4.151  23.489  0.00  0.00    +0.028 A 
ATOM     25  C   UNL     1       6.007   4.998  22.867  0.00  0.00    +0.019 A 
ATOM     26  C   UNL     1       7.064   4.463  22.127  0.00  0.00    +0.027 A 
BRANCH  24  27
ATOM     27  C   UNL     1       4.128   4.691  24.405  0.00  0.00    -0.070 C 
ATOM     28  C   UNL     1       3.253   5.082  25.124  0.00  0.00    +0.009 C 
ENDBRANCH  24  27
ENDBRANCH  18  20
ENDBRANCH   2  18
TORSDOF 8
ENDMDL
MODEL 4
REMARK VINA RESULT:      -6.6      4.755      8.316
REMARK  Name = 
REMARK  8 active torsions:
REMARK  status: ('A' for Active; 'I' for Inactive)
REMARK    1  A    between atoms: O_1  and  C_2
REMARK    2  A    between atoms: C_2  and  C_3
REMARK    3  A    between atoms: C_3  and  O_4
REMARK    4  A    between atoms: O_4  and  N_5
REMARK    5  A    between atoms: C_6  and  C_8
REMARK    6  A    between atoms: C_15  and  N_16
REMARK    7  A    between atoms: N_16  and  C_17
REMARK    8  A    between atoms: C_20  and  C_24
REMARK                            x       y       z     vdW  Elec       q    Type
REMARK                         _______ _______ _______ _____ _____    ______ ____
ROOT
ATOM      1  C   UNL     1       8.250   2.348  23.074  0.00  0.00    +0.063 A 
ATOM      2  C   UNL     1       7.524   1.423  23.856  0.00  0.00    +0.082 A 
ATOM      3  C   UNL     1       6.128   1.632  23.960  0.00  0.00    +0.180 A 
ATOM      4  F   UNL     1       5.396   0.928  24.839  0.00  0.00    -0.201 F 
ATOM      5  C   UNL     1       5.464   2.570  23.179  0.00  0.00    +0.160 A 
ATOM      6  F   UNL     1       4.134   2.695  23.265  0.00  0.00    -0.202 F 
ATOM      7  C   UNL     1       6.167   3.376  22.303  0.00  0.00    +0.042 A 
ATOM      8  C   UNL     1       7.560   3.291  22.281  0.00  0.00    +0.018 A 
ENDROOT
BRANCH   1  11
ATOM      9  N   UNL     1      10.243   3.742  23.279  0.00  0.00    -0.190 N 
ATOM     10  H   UNL     1       9.713   4.439  23.793  0.00  0.00    +0.183 HD
ATOM     11  C   UNL     1       9.737   2.482  23.085  0.00  0.00    +0.269 C 
ATOM     12  O   UNL     1      10.423   1.485  22.876  0.00  0.00    -0.268 OA
BRANCH   9  13
ATOM     13  O   UNL     1      11.654   3.832  23.358  0.00  0.00    -0.277 OA
BRANCH  13  14
ATOM     14  C   UNL     1      11.999   5.222  23.401  0.00  0.00    +0.218 C 
BRANCH  14  15
ATOM     15  C   UNL     1      13.179   5.494  22.480  0.00  0.00    +0.186 C 
BRANCH  15  16
ATOM     16  O   UNL     1      14.392   5.111  23.122  0.00  0.00    -0.393 OA
ATOM     17  H   UNL     1      14.891   4.571  22.486  0.00  0.00    +0.209 HD
ENDBRANCH  15  16
ENDBRANCH  14  15
ENDBRANCH  13  14
ENDBRANCH   9  13
ENDBRANCH   1  11
BRANCH   2  18
ATOM     18  N   UNL     1       8.158   0.332  24.534  0.00  0.00    -0.309 N 
ATOM     19  H   UNL     1       7.914   0.327  25.530  0.00  0.00    +0.152 HD
BRANCH  18  20
ATOM     20  C   UNL     1       8.180  -1.003  24.033  0.00  0.00    +0.067 A 
ATOM     21  C   UNL     1       8.159  -2.103  24.900  0.00  0.00    +0.146 A 
ATOM     22  F   UNL     1       8.276  -1.901  26.222  0.00  0.00    -0.204 F 
ATOM     23  C   UNL     1       7.933  -3.395  24.428  0.00  0.00    +0.057 A 
ATOM     24  C   UNL     1       7.740  -3.601  23.061  0.00  0.00    +0.028 A 
ATOM     25  C   UNL     1       7.896  -2.539  22.170  0.00  0.00    +0.019 A 
ATOM     26  C   UNL     1       8.147  -1.253  22.652  0.00  0.00    +0.027 A 
BRANCH  24  27
ATOM     27  C   UNL     1       7.290  -4.875  22.580  0.00  0.00    -0.070 C 
ATOM     28  C   UNL     1       7.014  -5.962  22.158  0.00  0.00    +0.009 C 
ENDBRANCH  24  27
ENDBRANCH  18  20
ENDBRANCH   2  18
TORSDOF 8
ENDMDL
MODEL 5
REMARK VINA RESULT:      -6.6      2.731      3.810
REMARK  Name = 
REMARK  8 active torsions:
REMARK  status: ('A' for Active; 'I' for Inactive)
REMARK    1  A    between atoms: O_1  and  C_2
REMARK    2  A    between atoms: C_2  and  C_3
REMARK    3  A    between atoms: C_3  and  O_4
REMARK    4  A    between atoms: O_4  and  N_5
REMARK    5  A    between atoms: C_6  and  C_8
REMARK    6  A    between atoms: C_15  and  N_16
REMARK    7  A    between atoms: N_16  and  C_17
REMARK    8  A    between atoms: C_20  and  C_24
REMARK                            x       y       z     vdW  Elec       q    Type
REMARK                         _______ _______ _______ _____ _____    ______ ____
ROOT
ATOM      1  C   UNL     1       6.757  -4.382  24.174  0.00  0.00    +0.063 A 
ATOM      2  C   UNL     1       7.904  -3.698  23.716  0.00  0.00    +0.082 A 
ATOM      3  C   UNL     1       9.084  -3.843  24.486  0.00  0.00    +0.180 A 
ATOM      4  F   UNL     1      10.156  -3.073  24.242  0.00  0.00    -0.201 F 
ATOM      5  C   UNL     1       9.178  -4.764  25.522  0.00  0.00    +0.160 A 
ATOM      6  F   UNL     1      10.331  -4.911  26.186  0.00  0.00    -0.202 F 
ATOM      7  C   UNL     1       8.089  -5.540  25.870  0.00  0.00    +0.042 A 
ATOM      8  C   UNL     1       6.872  -5.320  25.224  0.00  0.00    +0.018 A 
ENDROOT
BRANCH   1  11
ATOM      9  N   UNL     1       4.660  -5.207  23.236  0.00  0.00    -0.190 N 
ATOM     10  H   UNL     1       4.864  -6.140  23.581  0.00  0.00    +0.183 HD
ATOM     11  C   UNL     1       5.369  -4.124  23.691  0.00  0.00    +0.269 C 
ATOM     12  O   UNL     1       4.950  -2.969  23.680  0.00  0.00    -0.268 OA
BRANCH   9  13
ATOM     13  O   UNL     1       3.323  -4.949  22.852  0.00  0.00    -0.277 OA
BRANCH  13  14
ATOM     14  C   UNL     1       2.560  -6.134  23.115  0.00  0.00    +0.218 C 
BRANCH  14  15
ATOM     15  C   UNL     1       3.013  -6.765  24.422  0.00  0.00    +0.186 C 
BRANCH  15  16
ATOM     16  O   UNL     1       3.848  -7.888  24.154  0.00  0.00    -0.393 OA
ATOM     17  H   UNL     1       3.659  -8.551  24.840  0.00  0.00    +0.209 HD
ENDBRANCH  15  16
ENDBRANCH  14  15
ENDBRANCH  13  14
ENDBRANCH   9  13
ENDBRANCH   1  11
BRANCH   2  18
ATOM     18  N   UNL     1       7.886  -2.876  22.543  0.00  0.00    -0.309 N 
ATOM     19  H   UNL     1       7.000  -2.976  22.039  0.00  0.00    +0.152 HD
BRANCH  18  20
ATOM     20  C   UNL     1       8.302  -1.511  22.530  0.00  0.00    +0.067 A 
ATOM     21  C   UNL     1       7.813  -0.597  23.471  0.00  0.00    +0.146 A 
ATOM     22  F   UNL     1       6.824  -0.969  24.299  0.00  0.00    -0.204 F 
ATOM     23  C   UNL     1       8.387   0.665  23.624  0.00  0.00    +0.057 A 
ATOM     24  C   UNL     1       9.462   1.031  22.811  0.00  0.00    +0.028 A 
ATOM     25  C   UNL     1       9.870   0.187  21.778  0.00  0.00    +0.019 A 
ATOM     26  C   UNL     1       9.270  -1.064  21.618  0.00  0.00    +0.027 A 
BRANCH  24  27
ATOM     27  C   UNL     1      10.206   2.223  23.095  0.00  0.00    -0.070 C 
ATOM     28  C   UNL     1      10.915   3.165  23.312  0.00  0.00    +0.009 C 
ENDBRANCH  24  27
ENDBRANCH  18  20
ENDBRANCH   2  18
TORSDOF 8
ENDMDL
MODEL 6
REMARK VINA RESULT:      -6.5      3.184      4.857
REMARK  Name = 
REMARK  8 active torsions:
REMARK  status: ('A' for Active; 'I' for Inactive)
REMARK    1  A    between atoms: O_1  and  C_2
REMARK    2  A    between atoms: C_2  and  C_3
REMARK    3  A    between atoms: C_3  and  O_4
REMARK    4  A    between atoms: O_4  and  N_5
REMARK    5  A    between atoms: C_6  and  C_8
REMARK    6  A    between atoms: C_15  and  N_16
REMARK    7  A    between atoms: N_16  and  C_17
REMARK    8  A    between atoms: C_20  and  C_24
REMARK                            x       y       z     vdW  Elec       q    Type
REMARK                         _______ _______ _______ _____ _____    ______ ____
ROOT
ATOM      1  C   UNL     1       6.576  -2.545  23.320  0.00  0.00    +0.063 A 
ATOM      2  C   UNL     1       7.629  -3.345  23.816  0.00  0.00    +0.082 A 
ATOM      3  C   UNL     1       7.705  -4.674  23.332  0.00  0.00    +0.180 A 
ATOM      4  F   UNL     1       8.542  -5.559  23.897  0.00  0.00    -0.201 F 
ATOM      5  C   UNL     1       6.917  -5.118  22.277  0.00  0.00    +0.160 A 
ATOM      6  F   UNL     1       7.062  -6.365  21.811  0.00  0.00    -0.202 F 
ATOM      7  C   UNL     1       5.986  -4.279  21.696  0.00  0.00    +0.042 A 
ATOM      8  C   UNL     1       5.790  -3.010  22.243  0.00  0.00    +0.018 A 
ENDROOT
BRANCH   1  11
ATOM      9  N   UNL     1       6.450  -0.111  23.209  0.00  0.00    -0.190 N 
ATOM     10  H   UNL     1       6.556  -0.143  22.199  0.00  0.00    +0.183 HD
ATOM     11  C   UNL     1       6.147  -1.246  23.916  0.00  0.00    +0.269 C 
ATOM     12  O   UNL     1       5.596  -1.251  25.014  0.00  0.00    -0.268 OA
BRANCH   9  13
ATOM     13  O   UNL     1       5.969   1.102  23.757  0.00  0.00    -0.277 OA
BRANCH  13  14
ATOM     14  C   UNL     1       6.803   2.161  23.269  0.00  0.00    +0.218 C 
BRANCH  14  15
ATOM     15  C   UNL     1       7.396   1.776  21.922  0.00  0.00    +0.186 C 
BRANCH  15  16
ATOM     16  O   UNL     1       8.255   2.813  21.458  0.00  0.00    -0.393 OA
ATOM     17  H   UNL     1       8.176   3.550  22.088  0.00  0.00    +0.209 HD
ENDBRANCH  15  16
ENDBRANCH  14  15
ENDBRANCH  13  14
ENDBRANCH   9  13
ENDBRANCH   1  11
BRANCH   2  18
ATOM     18  N   UNL     1       8.572  -2.857  24.778  0.00  0.00    -0.309 N 
ATOM     19  H   UNL     1       9.204  -3.603  25.084  0.00  0.00    +0.152 HD
BRANCH  18  20
ATOM     20  C   UNL     1       9.298  -1.639  24.622  0.00  0.00    +0.067 A 
ATOM     21  C   UNL     1      10.024  -1.372  23.455  0.00  0.00    +0.146 A 
ATOM     22  F   UNL     1      10.168  -2.339  22.535  0.00  0.00    -0.204 F 
ATOM     23  C   UNL     1      10.530  -0.101  23.188  0.00  0.00    +0.057 A 
ATOM     24  C   UNL     1      10.323   0.926  24.111  0.00  0.00    +0.028 A 
ATOM     25  C   UNL     1       9.724   0.645  25.340  0.00  0.00    +0.019 A 
ATOM     26  C   UNL     1       9.243  -0.639  25.606  0.00  0.00    +0.027 A 
BRANCH  24  27
ATOM     27  C   UNL     1      10.636   2.282  23.764  0.00  0.00    -0.070 C 
ATOM     28  C   UNL     1      10.994   3.383  23.457  0.00  0.00    +0.009 C 
ENDBRANCH  24  27
ENDBRANCH  18  20
ENDBRANCH   2  18
TORSDOF 8
ENDMDL
MODEL 7
REMARK VINA RESULT:      -6.5      2.206      5.499
REMARK  Name = 
REMARK  8 active torsions:
REMARK  status: ('A' for Active; 'I' for Inactive)
REMARK    1  A    between atoms: O_1  and  C_2
REMARK    2  A    between atoms: C_2  and  C_3
REMARK    3  A    between atoms: C_3  and  O_4
REMARK    4  A    between atoms: O_4  and  N_5
REMARK    5  A    between atoms: C_6  and  C_8
REMARK    6  A    between atoms: C_15  and  N_16
REMARK    7  A    between atoms: N_16  and  C_17
REMARK    8  A    between atoms: C_20  and  C_24
REMARK                            x       y       z     vdW  Elec       q    Type
REMARK                         _______ _______ _______ _____ _____    ______ ____
ROOT
ATOM      1  C   UNL     1       9.070  -0.281  24.829  0.00  0.00    +0.063 A 
ATOM      2  C   UNL     1       9.346  -0.969  23.627  0.00  0.00    +0.082 A 
ATOM      3  C   UNL     1       9.710  -0.179  22.509  0.00  0.00    +0.180 A 
ATOM      4  F   UNL     1       9.790  -0.726  21.285  0.00  0.00    -0.201 F 
ATOM      5  C   UNL     1       9.984   1.178  22.625  0.00  0.00    +0.160 A 
ATOM      6  F   UNL     1      10.384   1.875  21.554  0.00  0.00    -0.202 F 
ATOM      7  C   UNL     1       9.854   1.817  23.843  0.00  0.00    +0.042 A 
ATOM      8  C   UNL     1       9.361   1.097  24.932  0.00  0.00    +0.018 A 
ENDROOT
BRANCH   1  11
ATOM      9  N   UNL     1       7.034  -1.074  25.917  0.00  0.00    -0.190 N 
ATOM     10  H   UNL     1       6.593  -1.207  25.012  0.00  0.00    +0.183 HD
ATOM     11  C   UNL     1       8.389  -0.885  26.012  0.00  0.00    +0.269 C 
ATOM     12  O   UNL     1       9.054  -1.137  27.014  0.00  0.00    -0.268 OA
BRANCH   9  13
ATOM     13  O   UNL     1       6.423  -1.715  27.021  0.00  0.00    -0.277 OA
BRANCH  13  14
ATOM     14  C   UNL     1       5.753  -2.882  26.530  0.00  0.00    +0.218 C 
BRANCH  14  15
ATOM     15  C   UNL     1       6.399  -4.134  27.105  0.00  0.00    +0.186 C 
BRANCH  15  16
ATOM     16  O   UNL     1       7.815  -3.986  27.116  0.00  0.00    -0.393 OA
ATOM     17  H   UNL     1       8.173  -4.640  26.491  0.00  0.00    +0.209 HD
ENDBRANCH  15  16
ENDBRANCH  14  15
ENDBRANCH  13  14
ENDBRANCH   9  13
ENDBRANCH   1  11
BRANCH   2  18
ATOM     18  N   UNL     1       9.245  -2.394  23.521  0.00  0.00    -0.309 N 
ATOM     19  H   UNL     1       9.720  -2.854  24.304  0.00  0.00    +0.152 HD
BRANCH  18  20
ATOM     20  C   UNL     1       8.030  -3.078  23.219  0.00  0.00    +0.067 A 
ATOM     21  C   UNL     1       7.833  -4.409  23.608  0.00  0.00    +0.146 A 
ATOM     22  F   UNL     1       8.857  -5.100  24.134  0.00  0.00    -0.204 F 
ATOM     23  C   UNL     1       6.576  -5.007  23.539  0.00  0.00    +0.057 A 
ATOM     24  C   UNL     1       5.492  -4.270  23.057  0.00  0.00    +0.028 A 
ATOM     25  C   UNL     1       5.698  -2.992  22.537  0.00  0.00    +0.019 A 
ATOM     26  C   UNL     1       6.968  -2.413  22.588  0.00  0.00    +0.027 A 
BRANCH  24  27
ATOM     27  C   UNL     1       4.159  -4.783  23.183  0.00  0.00    -0.070 C 
ATOM     28  C   UNL     1       3.044  -5.173  23.385  0.00  0.00    +0.009 C 
ENDBRANCH  24  27
ENDBRANCH  18  20
ENDBRANCH   2  18
TORSDOF 8
ENDMDL
MODEL 8
REMARK VINA RESULT:      -6.4      4.448      8.170
REMARK  Name = 
REMARK  8 active torsions:
REMARK  status: ('A' for Active; 'I' for Inactive)
REMARK    1  A    between atoms: O_1  and  C_2
REMARK    2  A    between atoms: C_2  and  C_3
REMARK    3  A    between atoms: C_3  and  O_4
REMARK    4  A    between atoms: O_4  and  N_5
REMARK    5  A    between atoms: C_6  and  C_8
REMARK    6  A    between atoms: C_15  and  N_16
REMARK    7  A    between atoms: N_16  and  C_17
REMARK    8  A    between atoms: C_20  and  C_24
REMARK                            x       y       z     vdW  Elec       q    Type
REMARK                         _______ _______ _______ _____ _____    ______ ____
ROOT
ATOM      1  C   UNL     1       8.933   1.457  24.726  0.00  0.00    +0.063 A 
ATOM      2  C   UNL     1       8.883   0.140  25.233  0.00  0.00    +0.082 A 
ATOM      3  C   UNL     1       8.067  -0.076  26.371  0.00  0.00    +0.180 A 
ATOM      4  F   UNL     1       8.120  -1.241  27.036  0.00  0.00    -0.201 F 
ATOM      5  C   UNL     1       7.201   0.899  26.850  0.00  0.00    +0.160 A 
ATOM      6  F   UNL     1       6.403   0.633  27.892  0.00  0.00    -0.202 F 
ATOM      7  C   UNL     1       7.148   2.144  26.253  0.00  0.00    +0.042 A 
ATOM      8  C   UNL     1       8.040   2.433  25.220  0.00  0.00    +0.018 A 
ENDROOT
BRANCH   1  11
ATOM      9  N   UNL     1      10.431   3.215  23.939  0.00  0.00    -0.190 N 
ATOM     10  H   UNL     1      10.452   3.624  24.868  0.00  0.00    +0.183 HD
ATOM     11  C   UNL     1       9.944   1.947  23.745  0.00  0.00    +0.269 C 
ATOM     12  O   UNL     1      10.253   1.225  22.800  0.00  0.00    -0.268 OA
BRANCH   9  13
ATOM     13  O   UNL     1      11.442   3.630  23.040  0.00  0.00    -0.277 OA
BRANCH  13  14
ATOM     14  C   UNL     1      11.905   4.917  23.470  0.00  0.00    +0.218 C 
BRANCH  14  15
ATOM     15  C   UNL     1      13.017   5.403  22.552  0.00  0.00    +0.186 C 
BRANCH  15  16
ATOM     16  O   UNL     1      14.284   5.141  23.146  0.00  0.00    -0.393 OA
ATOM     17  H   UNL     1      14.618   5.988  23.487  0.00  0.00    +0.209 HD
ENDBRANCH  15  16
ENDBRANCH  14  15
ENDBRANCH  13  14
ENDBRANCH   9  13
ENDBRANCH   1  11
BRANCH   2  18
ATOM     18  N   UNL     1       9.631  -0.933  24.649  0.00  0.00    -0.309 N 
ATOM     19  H   UNL     1      10.341  -1.283  25.301  0.00  0.00    +0.152 HD
BRANCH  18  20
ATOM     20  C   UNL     1       9.033  -2.024  23.952  0.00  0.00    +0.067 A 
ATOM     21  C   UNL     1       8.950  -3.296  24.531  0.00  0.00    +0.146 A 
ATOM     22  F   UNL     1       9.579  -3.532  25.694  0.00  0.00    -0.204 F 
ATOM     23  C   UNL     1       8.160  -4.299  23.972  0.00  0.00    +0.057 A 
ATOM     24  C   UNL     1       7.448  -4.037  22.800  0.00  0.00    +0.028 A 
ATOM     25  C   UNL     1       7.628  -2.823  22.136  0.00  0.00    +0.019 A 
ATOM     26  C   UNL     1       8.443  -1.835  22.693  0.00  0.00    +0.027 A 
BRANCH  24  27
ATOM     27  C   UNL     1       6.464  -4.968  22.330  0.00  0.00    -0.070 C 
ATOM     28  C   UNL     1       5.609  -5.754  22.036  0.00  0.00    +0.009 C 
ENDBRANCH  24  27
ENDBRANCH  18  20
ENDBRANCH   2  18
TORSDOF 8
ENDMDL
MODEL 9
REMARK VINA RESULT:      -6.3      2.963      4.968
REMARK  Name = 
REMARK  8 active torsions:
REMARK  status: ('A' for Active; 'I' for Inactive)
REMARK    1  A    between atoms: O_1  and  C_2
REMARK    2  A    between atoms: C_2  and  C_3
REMARK    3  A    between atoms: C_3  and  O_4
REMARK    4  A    between atoms: O_4  and  N_5
REMARK    5  A    between atoms: C_6  and  C_8
REMARK    6  A    between atoms: C_15  and  N_16
REMARK    7  A    between atoms: N_16  and  C_17
REMARK    8  A    between atoms: C_20  and  C_24
REMARK                            x       y       z     vdW  Elec       q    Type
REMARK                         _______ _______ _______ _____ _____    ______ ____
ROOT
ATOM      1  C   UNL     1       9.279  -1.631  23.317  0.00  0.00    +0.063 A 
ATOM      2  C   UNL     1       9.501  -0.537  24.183  0.00  0.00    +0.082 A 
ATOM      3  C   UNL     1       9.939   0.671  23.586  0.00  0.00    +0.180 A 
ATOM      4  F   UNL     1      10.367   1.691  24.347  0.00  0.00    -0.201 F 
ATOM      5  C   UNL     1       9.959   0.845  22.208  0.00  0.00    +0.160 A 
ATOM      6  F   UNL     1      10.323   2.024  21.687  0.00  0.00    -0.202 F 
ATOM      7  C   UNL     1       9.597  -0.189  21.366  0.00  0.00    +0.042 A 
ATOM      8  C   UNL     1       9.296  -1.434  21.919  0.00  0.00    +0.018 A 
ENDROOT
BRANCH   1  11
ATOM      9  N   UNL     1       7.890  -3.624  23.546  0.00  0.00    -0.190 N 
ATOM     10  H   UNL     1       7.298  -3.309  22.783  0.00  0.00    +0.183 HD
ATOM     11  C   UNL     1       9.114  -3.044  23.766  0.00  0.00    +0.269 C 
ATOM     12  O   UNL     1      10.047  -3.597  24.343  0.00  0.00    -0.268 OA
BRANCH   9  13
ATOM     13  O   UNL     1       7.780  -4.987  23.913  0.00  0.00    -0.277 OA
BRANCH  13  14
ATOM     14  C   UNL     1       6.830  -5.074  24.981  0.00  0.00    +0.218 C 
BRANCH  14  15
ATOM     15  C   UNL     1       7.543  -5.390  26.287  0.00  0.00    +0.186 C 
BRANCH  15  16
ATOM     16  O   UNL     1       8.917  -5.667  26.034  0.00  0.00    -0.393 OA
ATOM     17  H   UNL     1       9.158  -5.188  25.223  0.00  0.00    +0.209 HD
ENDBRANCH  15  16
ENDBRANCH  14  15
ENDBRANCH  13  14
ENDBRANCH   9  13
ENDBRANCH   1  11
BRANCH   2  18
ATOM     18  N   UNL     1       9.317  -0.634  25.600  0.00  0.00    -0.309 N 
ATOM     19  H   UNL     1       9.987  -0.040  26.099  0.00  0.00    +0.152 HD
BRANCH  18  20
ATOM     20  C   UNL     1       8.041  -0.568  26.236  0.00  0.00    +0.067 A 
ATOM     21  C   UNL     1       7.372   0.653  26.389  0.00  0.00    +0.146 A 
ATOM     22  F   UNL     1       8.004   1.795  26.075  0.00  0.00    -0.204 F 
ATOM     23  C   UNL     1       6.035   0.703  26.781  0.00  0.00    +0.057 A 
ATOM     24  C   UNL     1       5.352  -0.487  27.042  0.00  0.00    +0.028 A 
ATOM     25  C   UNL     1       6.041  -1.699  27.028  0.00  0.00    +0.019 A 
ATOM     26  C   UNL     1       7.388  -1.735  26.659  0.00  0.00    +0.027 A 
BRANCH  24  27
ATOM     27  C   UNL     1       3.930  -0.476  27.228  0.00  0.00    -0.070 C 
ATOM     28  C   UNL     1       2.739  -0.554  27.327  0.00  0.00    +0.009 C 
ENDBRANCH  24  27
ENDBRANCH  18  20
ENDBRANCH   2  18
TORSDOF 8
ENDMDL
