MODEL 1
REMARK VINA RESULT:      -6.8      0.000      0.000
REMARK  Name = 
REMARK  6 active torsions:
REMARK  status: ('A' for Active; 'I' for Inactive)
REMARK    1  A    between atoms: C_1  and  O_2
REMARK    2  A    between atoms: O_2  and  C_3
REMARK    3  A    between atoms: C_7  and  C_10
REMARK    4  A    between atoms: N_15  and  C_16
REMARK    5  A    between atoms: C_19  and  S_22
REMARK    6  A    between atoms: S_22  and  N_23
REMARK                            x       y       z     vdW  Elec       q    Type
REMARK                         _______ _______ _______ _____ _____    ______ ____
ROOT
ATOM      1  C   UNL     1      10.029   4.028  23.559  0.00  0.00    +0.092 A 
ATOM      2  N   UNL     1       8.939   4.903  23.741  0.00  0.00    -0.297 N 
ATOM      3  C   UNL     1       9.471   6.173  23.831  0.00  0.00    +0.206 A 
ATOM      4  N   UNL     1      10.773   6.194  23.721  0.00  0.00    -0.223 NA
ATOM      5  C   UNL     1      11.133   4.889  23.554  0.00  0.00    +0.155 A 
ATOM      6 CL   UNL     1      12.785   4.510  23.337  0.00  0.00    -0.060 Cl
ENDROOT
BRANCH   1  10
ATOM      7  C   UNL     1      10.226  -0.232  22.881  0.00  0.00    +0.155 A 
ATOM      8  C   UNL     1      10.540   0.292  24.137  0.00  0.00    +0.049 A 
ATOM      9  C   UNL     1      10.380   1.662  24.406  0.00  0.00    +0.014 A 
ATOM     10  C   UNL     1      10.002   2.557  23.395  0.00  0.00    +0.005 A 
ATOM     11  C   UNL     1       9.610   2.002  22.169  0.00  0.00    +0.052 A 
ATOM     12  C   UNL     1       9.694   0.632  21.928  0.00  0.00    +0.165 A 
ATOM     13  F   UNL     1       9.271   0.191  20.734  0.00  0.00    -0.202 F 
BRANCH   7  15
ATOM     14  C   UNL     1       9.903  -2.446  23.673  0.00  0.00    +0.277 C 
ATOM     15  O   UNL     1      10.494  -1.564  22.722  0.00  0.00    -0.492 OA
ENDBRANCH   7  15
ENDBRANCH   1  10
BRANCH   2  16
ATOM     16  C   UNL     1       7.533   4.661  23.845  0.00  0.00    +0.048 A 
ATOM     17  C   UNL     1       6.866   4.674  25.075  0.00  0.00    +0.028 A 
ATOM     18  C   UNL     1       5.513   4.328  25.147  0.00  0.00    +0.030 A 
ATOM     19  C   UNL     1       4.819   4.013  23.978  0.00  0.00    +0.105 A 
ATOM     20  C   UNL     1       5.443   4.086  22.735  0.00  0.00    +0.030 A 
ATOM     21  C   UNL     1       6.799   4.401  22.670  0.00  0.00    +0.028 A 
BRANCH  19  22
ATOM     22  S   UNL     1       3.154   3.438  24.065  0.00  0.00    +0.056 S 
ATOM     23  O   UNL     1       2.258   4.568  24.165  0.00  0.00    -0.153 OA
ATOM     24  O   UNL     1       3.081   2.295  24.946  0.00  0.00    -0.153 OA
BRANCH  22  25
ATOM     25  N   UNL     1       2.981   2.838  22.503  0.00  0.00    -0.204 NA
ATOM     26  H   UNL     1       2.644   1.876  22.516  0.00  0.00    +0.144 HD
ATOM     27  H   UNL     1       3.831   2.988  21.962  0.00  0.00    +0.144 HD
ENDBRANCH  22  25
ENDBRANCH  19  22
ENDBRANCH   2  16
TORSDOF 5
ENDMDL
MODEL 2
REMARK VINA RESULT:      -6.6      1.097      1.743
REMARK  Name = 
REMARK  6 active torsions:
REMARK  status: ('A' for Active; 'I' for Inactive)
REMARK    1  A    between atoms: C_1  and  O_2
REMARK    2  A    between atoms: O_2  and  C_3
REMARK    3  A    between atoms: C_7  and  C_10
REMARK    4  A    between atoms: N_15  and  C_16
REMARK    5  A    between atoms: C_19  and  S_22
REMARK    6  A    between atoms: S_22  and  N_23
REMARK                            x       y       z     vdW  Elec       q    Type
REMARK                         _______ _______ _______ _____ _____    ______ ____
ROOT
ATOM      1  C   UNL     1       9.911   3.874  23.479  0.00  0.00    +0.092 A 
ATOM      2  N   UNL     1       8.736   4.631  23.666  0.00  0.00    -0.297 N 
ATOM      3  C   UNL     1       9.141   5.937  23.845  0.00  0.00    +0.206 A 
ATOM      4  N   UNL     1      10.438   6.087  23.787  0.00  0.00    -0.223 NA
ATOM      5  C   UNL     1      10.927   4.834  23.564  0.00  0.00    +0.155 A 
ATOM      6 CL   UNL     1      12.614   4.625  23.391  0.00  0.00    -0.060 Cl
ENDROOT
BRANCH   1  10
ATOM      7  C   UNL     1       9.952  -0.406  22.906  0.00  0.00    +0.155 A 
ATOM      8  C   UNL     1       9.832   0.447  21.806  0.00  0.00    +0.049 A 
ATOM      9  C   UNL     1       9.923   1.840  21.961  0.00  0.00    +0.014 A 
ATOM     10  C   UNL     1      10.031   2.419  23.234  0.00  0.00    +0.005 A 
ATOM     11  C   UNL     1      10.236   1.548  24.313  0.00  0.00    +0.052 A 
ATOM     12  C   UNL     1      10.224   0.164  24.146  0.00  0.00    +0.165 A 
ATOM     13  F   UNL     1      10.455  -0.587  25.232  0.00  0.00    -0.202 F 
BRANCH   7  15
ATOM     14  C   UNL     1       8.450  -2.136  22.284  0.00  0.00    +0.277 C 
ATOM     15  O   UNL     1       9.772  -1.735  22.636  0.00  0.00    -0.492 OA
ENDBRANCH   7  15
ENDBRANCH   1  10
BRANCH   2  16
ATOM     16  C   UNL     1       7.358   4.252  23.701  0.00  0.00    +0.048 A 
ATOM     17  C   UNL     1       6.642   3.946  22.538  0.00  0.00    +0.028 A 
ATOM     18  C   UNL     1       5.269   3.684  22.605  0.00  0.00    +0.030 A 
ATOM     19  C   UNL     1       4.626   3.685  23.843  0.00  0.00    +0.105 A 
ATOM     20  C   UNL     1       5.341   3.896  25.019  0.00  0.00    +0.030 A 
ATOM     21  C   UNL     1       6.702   4.187  24.947  0.00  0.00    +0.028 A 
BRANCH  19  22
ATOM     22  S   UNL     1       2.874   3.499  23.931  0.00  0.00    +0.056 S 
ATOM     23  O   UNL     1       2.250   4.802  23.925  0.00  0.00    -0.153 OA
ATOM     24  O   UNL     1       2.544   2.471  24.891  0.00  0.00    -0.153 OA
BRANCH  22  25
ATOM     25  N   UNL     1       2.585   2.834  22.413  0.00  0.00    -0.204 NA
ATOM     26  H   UNL     1       2.379   1.838  22.483  0.00  0.00    +0.144 HD
ATOM     27  H   UNL     1       3.334   3.073  21.765  0.00  0.00    +0.144 HD
ENDBRANCH  22  25
ENDBRANCH  19  22
ENDBRANCH   2  16
TORSDOF 5
ENDMDL
MODEL 3
REMARK VINA RESULT:      -6.5      5.935      8.409
REMARK  Name = 
REMARK  6 active torsions:
REMARK  status: ('A' for Active; 'I' for Inactive)
REMARK    1  A    between atoms: C_1  and  O_2
REMARK    2  A    between atoms: O_2  and  C_3
REMARK    3  A    between atoms: C_7  and  C_10
REMARK    4  A    between atoms: N_15  and  C_16
REMARK    5  A    between atoms: C_19  and  S_22
REMARK    6  A    between atoms: S_22  and  N_23
REMARK                            x       y       z     vdW  Elec       q    Type
REMARK                         _______ _______ _______ _____ _____    ______ ____
ROOT
ATOM      1  C   UNL     1       6.220  -4.216  23.577  0.00  0.00    +0.092 A 
ATOM      2  N   UNL     1       6.688  -3.163  22.764  0.00  0.00    -0.297 N 
ATOM      3  C   UNL     1       6.305  -3.470  21.474  0.00  0.00    +0.206 A 
ATOM      4  N   UNL     1       5.645  -4.595  21.387  0.00  0.00    -0.223 NA
ATOM      5  C   UNL     1       5.583  -5.066  22.665  0.00  0.00    +0.155 A 
ATOM      6 CL   UNL     1       4.752  -6.529  22.966  0.00  0.00    -0.060 Cl
ENDROOT
BRANCH   1  10
ATOM      7  C   UNL     1       6.385  -4.904  27.836  0.00  0.00    +0.155 A 
ATOM      8  C   UNL     1       7.457  -5.282  27.024  0.00  0.00    +0.049 A 
ATOM      9  C   UNL     1       7.467  -4.971  25.654  0.00  0.00    +0.014 A 
ATOM     10  C   UNL     1       6.358  -4.368  25.043  0.00  0.00    +0.005 A 
ATOM     11  C   UNL     1       5.332  -3.920  25.887  0.00  0.00    +0.052 A 
ATOM     12  C   UNL     1       5.360  -4.160  27.260  0.00  0.00    +0.165 A 
ATOM     13  F   UNL     1       4.347  -3.670  27.989  0.00  0.00    -0.202 F 
BRANCH   7  15
ATOM     14  C   UNL     1       5.621  -6.425  29.492  0.00  0.00    +0.277 C 
ATOM     15  O   UNL     1       6.460  -5.329  29.135  0.00  0.00    -0.492 OA
ENDBRANCH   7  15
ENDBRANCH   1  10
BRANCH   2  16
ATOM     16  C   UNL     1       7.428  -1.980  23.074  0.00  0.00    +0.048 A 
ATOM     17  C   UNL     1       6.797  -0.783  23.433  0.00  0.00    +0.028 A 
ATOM     18  C   UNL     1       7.550   0.380  23.625  0.00  0.00    +0.030 A 
ATOM     19  C   UNL     1       8.939   0.330  23.500  0.00  0.00    +0.105 A 
ATOM     20  C   UNL     1       9.590  -0.872  23.236  0.00  0.00    +0.030 A 
ATOM     21  C   UNL     1       8.835  -2.022  23.015  0.00  0.00    +0.028 A 
BRANCH  19  22
ATOM     22  S   UNL     1       9.890   1.813  23.598  0.00  0.00    +0.056 S 
ATOM     23  O   UNL     1      11.212   1.505  24.094  0.00  0.00    -0.153 OA
ATOM     24  O   UNL     1       9.075   2.877  24.138  0.00  0.00    -0.153 OA
BRANCH  22  25
ATOM     25  N   UNL     1      10.068   2.143  21.959  0.00  0.00    -0.204 NA
ATOM     26  H   UNL     1      10.224   3.138  21.801  0.00  0.00    +0.144 HD
ATOM     27  H   UNL     1       9.301   1.738  21.423  0.00  0.00    +0.144 HD
ENDBRANCH  22  25
ENDBRANCH  19  22
ENDBRANCH   2  16
TORSDOF 5
ENDMDL
MODEL 4
REMARK VINA RESULT:      -6.2      4.991      6.868
REMARK  Name = 
REMARK  6 active torsions:
REMARK  status: ('A' for Active; 'I' for Inactive)
REMARK    1  A    between atoms: C_1  and  O_2
REMARK    2  A    between atoms: O_2  and  C_3
REMARK    3  A    between atoms: C_7  and  C_10
REMARK    4  A    between atoms: N_15  and  C_16
REMARK    5  A    between atoms: C_19  and  S_22
REMARK    6  A    between atoms: S_22  and  N_23
REMARK                            x       y       z     vdW  Elec       q    Type
REMARK                         _______ _______ _______ _____ _____    ______ ____
ROOT
ATOM      1  C   UNL     1       8.992   0.174  23.810  0.00  0.00    +0.092 A 
ATOM      2  N   UNL     1       8.717  -0.897  22.935  0.00  0.00    -0.297 N 
ATOM      3  C   UNL     1       9.456  -0.664  21.794  0.00  0.00    +0.206 A 
ATOM      4  N   UNL     1      10.169   0.430  21.856  0.00  0.00    -0.223 NA
ATOM      5  C   UNL     1       9.897   0.957  23.084  0.00  0.00    +0.155 A 
ATOM      6 CL   UNL     1      10.682   2.400  23.554  0.00  0.00    -0.060 Cl
ENDROOT
BRANCH   1  10
ATOM      7  C   UNL     1       7.135   0.747  27.666  0.00  0.00    +0.155 A 
ATOM      8  C   UNL     1       7.985  -0.340  27.454  0.00  0.00    +0.049 A 
ATOM      9  C   UNL     1       8.680  -0.485  26.241  0.00  0.00    +0.014 A 
ATOM     10  C   UNL     1       8.461   0.399  25.174  0.00  0.00    +0.005 A 
ATOM     11  C   UNL     1       7.674   1.528  25.435  0.00  0.00    +0.052 A 
ATOM     12  C   UNL     1       7.047   1.712  26.667  0.00  0.00    +0.165 A 
ATOM     13  F   UNL     1       6.335   2.836  26.832  0.00  0.00    -0.202 F 
BRANCH   7  15
ATOM     14  C   UNL     1       7.047   1.479  29.923  0.00  0.00    +0.277 C 
ATOM     15  O   UNL     1       6.461   0.736  28.857  0.00  0.00    -0.492 OA
ENDBRANCH   7  15
ENDBRANCH   1  10
BRANCH   2  16
ATOM     16  C   UNL     1       7.864  -2.036  23.067  0.00  0.00    +0.048 A 
ATOM     17  C   UNL     1       8.365  -3.308  23.370  0.00  0.00    +0.028 A 
ATOM     18  C   UNL     1       7.511  -4.416  23.386  0.00  0.00    +0.030 A 
ATOM     19  C   UNL     1       6.149  -4.240  23.141  0.00  0.00    +0.105 A 
ATOM     20  C   UNL     1       5.619  -2.970  22.930  0.00  0.00    +0.030 A 
ATOM     21  C   UNL     1       6.476  -1.872  22.885  0.00  0.00    +0.028 A 
BRANCH  19  22
ATOM     22  S   UNL     1       5.085  -5.641  23.016  0.00  0.00    +0.056 S 
ATOM     23  O   UNL     1       3.765  -5.210  22.613  0.00  0.00    -0.153 OA
ATOM     24  O   UNL     1       5.316  -6.527  24.133  0.00  0.00    -0.153 OA
BRANCH  22  25
ATOM     25  N   UNL     1       5.763  -6.393  21.673  0.00  0.00    -0.204 NA
ATOM     26  H   UNL     1       5.611  -7.400  21.701  0.00  0.00    +0.144 HD
ATOM     27  H   UNL     1       6.735  -6.108  21.552  0.00  0.00    +0.144 HD
ENDBRANCH  22  25
ENDBRANCH  19  22
ENDBRANCH   2  16
TORSDOF 5
ENDMDL
MODEL 5
REMARK VINA RESULT:      -6.2      4.012      6.673
REMARK  Name = 
REMARK  6 active torsions:
REMARK  status: ('A' for Active; 'I' for Inactive)
REMARK    1  A    between atoms: C_1  and  O_2
REMARK    2  A    between atoms: O_2  and  C_3
REMARK    3  A    between atoms: C_7  and  C_10
REMARK    4  A    between atoms: N_15  and  C_16
REMARK    5  A    between atoms: C_19  and  S_22
REMARK    6  A    between atoms: S_22  and  N_23
REMARK                            x       y       z     vdW  Elec       q    Type
REMARK                         _______ _______ _______ _____ _____    ______ ____
ROOT
ATOM      1  C   UNL     1       8.856   2.212  24.277  0.00  0.00    +0.092 A 
ATOM      2  N   UNL     1       9.624   1.033  24.359  0.00  0.00    -0.297 N 
ATOM      3  C   UNL     1      10.920   1.392  24.048  0.00  0.00    +0.206 A 
ATOM      4  N   UNL     1      11.052   2.666  23.786  0.00  0.00    -0.223 NA
ATOM      5  C   UNL     1       9.798   3.184  23.920  0.00  0.00    +0.155 A 
ATOM      6 CL   UNL     1       9.569   4.861  23.684  0.00  0.00    -0.060 Cl
ENDROOT
BRANCH   1  10
ATOM      7  C   UNL     1       4.582   2.385  24.865  0.00  0.00    +0.155 A 
ATOM      8  C   UNL     1       5.434   2.236  25.962  0.00  0.00    +0.049 A 
ATOM      9  C   UNL     1       6.829   2.283  25.802  0.00  0.00    +0.014 A 
ATOM     10  C   UNL     1       7.406   2.377  24.527  0.00  0.00    +0.005 A 
ATOM     11  C   UNL     1       6.538   2.611  23.451  0.00  0.00    +0.052 A 
ATOM     12  C   UNL     1       5.155   2.642  23.624  0.00  0.00    +0.165 A 
ATOM     13  F   UNL     1       4.407   2.899  22.541  0.00  0.00    -0.202 F 
BRANCH   7  15
ATOM     14  C   UNL     1       2.873   2.332  26.513  0.00  0.00    +0.277 C 
ATOM     15  O   UNL     1       3.249   2.246  25.140  0.00  0.00    -0.492 OA
ENDBRANCH   7  15
ENDBRANCH   1  10
BRANCH   2  16
ATOM     16  C   UNL     1       9.265  -0.316  24.669  0.00  0.00    +0.048 A 
ATOM     17  C   UNL     1       8.804  -0.688  25.937  0.00  0.00    +0.028 A 
ATOM     18  C   UNL     1       8.564  -2.034  26.233  0.00  0.00    +0.030 A 
ATOM     19  C   UNL     1       8.745  -3.000  25.242  0.00  0.00    +0.105 A 
ATOM     20  C   UNL     1       9.114  -2.637  23.949  0.00  0.00    +0.030 A 
ATOM     21  C   UNL     1       9.381  -1.299  23.666  0.00  0.00    +0.028 A 
BRANCH  19  22
ATOM     22  S   UNL     1       8.586  -4.712  25.636  0.00  0.00    +0.056 S 
ATOM     23  O   UNL     1       7.661  -5.334  24.716  0.00  0.00    -0.153 OA
ATOM     24  O   UNL     1       8.499  -4.874  27.069  0.00  0.00    -0.153 OA
BRANCH  22  25
ATOM     25  N   UNL     1      10.118  -5.247  25.195  0.00  0.00    -0.204 NA
ATOM     26  H   UNL     1      10.300  -5.062  24.209  0.00  0.00    +0.144 HD
ATOM     27  H   UNL     1      10.260  -6.214  25.484  0.00  0.00    +0.144 HD
ENDBRANCH  22  25
ENDBRANCH  19  22
ENDBRANCH   2  16
TORSDOF 5
ENDMDL
MODEL 6
REMARK VINA RESULT:      -6.1      3.188      6.167
REMARK  Name = 
REMARK  6 active torsions:
REMARK  status: ('A' for Active; 'I' for Inactive)
REMARK    1  A    between atoms: C_1  and  O_2
REMARK    2  A    between atoms: O_2  and  C_3
REMARK    3  A    between atoms: C_7  and  C_10
REMARK    4  A    between atoms: N_15  and  C_16
REMARK    5  A    between atoms: C_19  and  S_22
REMARK    6  A    between atoms: S_22  and  N_23
REMARK                            x       y       z     vdW  Elec       q    Type
REMARK                         _______ _______ _______ _____ _____    ______ ____
ROOT
ATOM      1  C   UNL     1       9.111   3.567  23.763  0.00  0.00    +0.092 A 
ATOM      2  N   UNL     1      10.052   2.519  23.708  0.00  0.00    -0.297 N 
ATOM      3  C   UNL     1      11.284   3.114  23.528  0.00  0.00    +0.206 A 
ATOM      4  N   UNL     1      11.222   4.419  23.469  0.00  0.00    -0.223 NA
ATOM      5  C   UNL     1       9.898   4.714  23.610  0.00  0.00    +0.155 A 
ATOM      6 CL   UNL     1       9.415   6.353  23.618  0.00  0.00    -0.060 Cl
ENDROOT
BRANCH   1  10
ATOM      7  C   UNL     1       4.855   2.966  24.188  0.00  0.00    +0.155 A 
ATOM      8  C   UNL     1       5.673   3.008  25.319  0.00  0.00    +0.049 A 
ATOM      9  C   UNL     1       7.042   3.308  25.209  0.00  0.00    +0.014 A 
ATOM     10  C   UNL     1       7.645   3.469  23.954  0.00  0.00    +0.005 A 
ATOM     11  C   UNL     1       6.796   3.508  22.839  0.00  0.00    +0.052 A 
ATOM     12  C   UNL     1       5.424   3.289  22.959  0.00  0.00    +0.165 A 
ATOM     13  F   UNL     1       4.689   3.373  21.841  0.00  0.00    -0.202 F 
BRANCH   7  15
ATOM     14  C   UNL     1       2.609   3.648  24.541  0.00  0.00    +0.277 C 
ATOM     15  O   UNL     1       3.560   2.592  24.418  0.00  0.00    -0.492 OA
ENDBRANCH   7  15
ENDBRANCH   1  10
BRANCH   2  16
ATOM     16  C   UNL     1       9.901   1.100  23.791  0.00  0.00    +0.048 A 
ATOM     17  C   UNL     1      10.024   0.273  22.668  0.00  0.00    +0.028 A 
ATOM     18  C   UNL     1       9.764  -1.097  22.771  0.00  0.00    +0.030 A 
ATOM     19  C   UNL     1       9.425  -1.644  24.009  0.00  0.00    +0.105 A 
ATOM     20  C   UNL     1       9.390  -0.853  25.154  0.00  0.00    +0.030 A 
ATOM     21  C   UNL     1       9.619   0.518  25.043  0.00  0.00    +0.028 A 
BRANCH  19  22
ATOM     22  S   UNL     1       8.956  -3.340  24.129  0.00  0.00    +0.056 S 
ATOM     23  O   UNL     1      10.109  -4.135  24.488  0.00  0.00    -0.153 OA
ATOM     24  O   UNL     1       8.078  -3.679  23.032  0.00  0.00    -0.153 OA
BRANCH  22  25
ATOM     25  N   UNL     1       7.988  -3.269  25.502  0.00  0.00    -0.204 NA
ATOM     26  H   UNL     1       8.022  -4.146  26.019  0.00  0.00    +0.144 HD
ATOM     27  H   UNL     1       7.050  -2.945  25.266  0.00  0.00    +0.144 HD
ENDBRANCH  22  25
ENDBRANCH  19  22
ENDBRANCH   2  16
TORSDOF 5
ENDMDL
MODEL 7
REMARK VINA RESULT:      -6.1      4.433      5.929
REMARK  Name = 
REMARK  6 active torsions:
REMARK  status: ('A' for Active; 'I' for Inactive)
REMARK    1  A    between atoms: C_1  and  O_2
REMARK    2  A    between atoms: O_2  and  C_3
REMARK    3  A    between atoms: C_7  and  C_10
REMARK    4  A    between atoms: N_15  and  C_16
REMARK    5  A    between atoms: C_19  and  S_22
REMARK    6  A    between atoms: S_22  and  N_23
REMARK                            x       y       z     vdW  Elec       q    Type
REMARK                         _______ _______ _______ _____ _____    ______ ____
ROOT
ATOM      1  C   UNL     1       8.822  -1.012  24.140  0.00  0.00    +0.092 A 
ATOM      2  N   UNL     1       9.332  -0.028  23.269  0.00  0.00    -0.297 N 
ATOM      3  C   UNL     1      10.217  -0.674  22.431  0.00  0.00    +0.206 A 
ATOM      4  N   UNL     1      10.317  -1.954  22.675  0.00  0.00    -0.223 NA
ATOM      5  C   UNL     1       9.470  -2.180  23.719  0.00  0.00    +0.155 A 
ATOM      6 CL   UNL     1       9.297  -3.773  24.313  0.00  0.00    -0.060 Cl
ENDROOT
BRANCH   1  10
ATOM      7  C   UNL     1       5.936  -0.189  27.245  0.00  0.00    +0.155 A 
ATOM      8  C   UNL     1       5.533  -0.813  26.062  0.00  0.00    +0.049 A 
ATOM      9  C   UNL     1       6.474  -1.184  25.087  0.00  0.00    +0.014 A 
ATOM     10  C   UNL     1       7.827  -0.845  25.225  0.00  0.00    +0.005 A 
ATOM     11  C   UNL     1       8.225  -0.298  26.452  0.00  0.00    +0.052 A 
ATOM     12  C   UNL     1       7.299  -0.002  27.453  0.00  0.00    +0.165 A 
ATOM     13  F   UNL     1       7.776   0.495  28.603  0.00  0.00    -0.202 F 
BRANCH   7  15
ATOM     14  C   UNL     1       3.765   0.749  27.460  0.00  0.00    +0.277 C 
ATOM     15  O   UNL     1       4.920   0.188  28.081  0.00  0.00    -0.492 OA
ENDBRANCH   7  15
ENDBRANCH   1  10
BRANCH   2  16
ATOM     16  C   UNL     1       9.084   1.377  23.173  0.00  0.00    +0.048 A 
ATOM     17  C   UNL     1       9.816   2.312  23.913  0.00  0.00    +0.028 A 
ATOM     18  C   UNL     1       9.473   3.667  23.871  0.00  0.00    +0.030 A 
ATOM     19  C   UNL     1       8.425   4.089  23.053  0.00  0.00    +0.105 A 
ATOM     20  C   UNL     1       7.746   3.185  22.239  0.00  0.00    +0.030 A 
ATOM     21  C   UNL     1       8.071   1.831  22.305  0.00  0.00    +0.028 A 
BRANCH  19  22
ATOM     22  S   UNL     1       7.887   5.768  23.097  0.00  0.00    +0.056 S 
ATOM     23  O   UNL     1       9.018   6.629  23.363  0.00  0.00    -0.153 OA
ATOM     24  O   UNL     1       6.640   5.859  23.821  0.00  0.00    -0.153 OA
BRANCH  22  25
ATOM     25  N   UNL     1       7.505   5.985  21.473  0.00  0.00    -0.204 NA
ATOM     26  H   UNL     1       7.881   6.865  21.123  0.00  0.00    +0.144 HD
ATOM     27  H   UNL     1       6.506   5.851  21.316  0.00  0.00    +0.144 HD
ENDBRANCH  22  25
ENDBRANCH  19  22
ENDBRANCH   2  16
TORSDOF 5
ENDMDL
MODEL 8
REMARK VINA RESULT:      -6.1      4.522      6.834
REMARK  Name = 
REMARK  6 active torsions:
REMARK  status: ('A' for Active; 'I' for Inactive)
REMARK    1  A    between atoms: C_1  and  O_2
REMARK    2  A    between atoms: O_2  and  C_3
REMARK    3  A    between atoms: C_7  and  C_10
REMARK    4  A    between atoms: N_15  and  C_16
REMARK    5  A    between atoms: C_19  and  S_22
REMARK    6  A    between atoms: S_22  and  N_23
REMARK                            x       y       z     vdW  Elec       q    Type
REMARK                         _______ _______ _______ _____ _____    ______ ____
ROOT
ATOM      1  C   UNL     1       8.673   0.473  23.524  0.00  0.00    +0.092 A 
ATOM      2  N   UNL     1       8.709  -0.928  23.674  0.00  0.00    -0.297 N 
ATOM      3  C   UNL     1      10.017  -1.253  23.968  0.00  0.00    +0.206 A 
ATOM      4  N   UNL     1      10.806  -0.213  24.025  0.00  0.00    -0.223 NA
ATOM      5  C   UNL     1      10.001   0.854  23.755  0.00  0.00    +0.155 A 
ATOM      6 CL   UNL     1      10.677   2.424  23.770  0.00  0.00    -0.060 Cl
ENDROOT
BRANCH   1  10
ATOM      7  C   UNL     1       5.367   3.174  22.878  0.00  0.00    +0.155 A 
ATOM      8  C   UNL     1       6.408   3.108  21.949  0.00  0.00    +0.049 A 
ATOM      9  C   UNL     1       7.438   2.162  22.088  0.00  0.00    +0.014 A 
ATOM     10  C   UNL     1       7.505   1.330  23.215  0.00  0.00    +0.005 A 
ATOM     11  C   UNL     1       6.409   1.351  24.088  0.00  0.00    +0.052 A 
ATOM     12  C   UNL     1       5.348   2.237  23.906  0.00  0.00    +0.165 A 
ATOM     13  F   UNL     1       4.332   2.166  24.778  0.00  0.00    -0.202 F 
BRANCH   7  15
ATOM     14  C   UNL     1       4.860   5.481  23.117  0.00  0.00    +0.277 C 
ATOM     15  O   UNL     1       4.467   4.184  22.673  0.00  0.00    -0.492 OA
ENDBRANCH   7  15
ENDBRANCH   1  10
BRANCH   2  16
ATOM     16  C   UNL     1       7.688  -1.922  23.559  0.00  0.00    +0.048 A 
ATOM     17  C   UNL     1       6.951  -2.362  24.665  0.00  0.00    +0.028 A 
ATOM     18  C   UNL     1       6.035  -3.410  24.529  0.00  0.00    +0.030 A 
ATOM     19  C   UNL     1       5.828  -3.987  23.275  0.00  0.00    +0.105 A 
ATOM     20  C   UNL     1       6.484  -3.500  22.147  0.00  0.00    +0.030 A 
ATOM     21  C   UNL     1       7.417  -2.475  22.291  0.00  0.00    +0.028 A 
BRANCH  19  22
ATOM     22  S   UNL     1       4.786  -5.401  23.113  0.00  0.00    +0.056 S 
ATOM     23  O   UNL     1       3.430  -4.973  22.856  0.00  0.00    -0.153 OA
ATOM     24  O   UNL     1       5.126  -6.373  24.127  0.00  0.00    -0.153 OA
BRANCH  22  25
ATOM     25  N   UNL     1       5.368  -6.015  21.660  0.00  0.00    -0.204 NA
ATOM     26  H   UNL     1       5.422  -5.286  20.949  0.00  0.00    +0.144 HD
ATOM     27  H   UNL     1       4.846  -6.847  21.384  0.00  0.00    +0.144 HD
ENDBRANCH  22  25
ENDBRANCH  19  22
ENDBRANCH   2  16
TORSDOF 5
ENDMDL
MODEL 9
REMARK VINA RESULT:      -6.1      5.043      7.379
REMARK  Name = 
REMARK  6 active torsions:
REMARK  status: ('A' for Active; 'I' for Inactive)
REMARK    1  A    between atoms: C_1  and  O_2
REMARK    2  A    between atoms: O_2  and  C_3
REMARK    3  A    between atoms: C_7  and  C_10
REMARK    4  A    between atoms: N_15  and  C_16
REMARK    5  A    between atoms: C_19  and  S_22
REMARK    6  A    between atoms: S_22  and  N_23
REMARK                            x       y       z     vdW  Elec       q    Type
REMARK                         _______ _______ _______ _____ _____    ______ ____
ROOT
ATOM      1  C   UNL     1       8.431  -0.160  23.296  0.00  0.00    +0.092 A 
ATOM      2  N   UNL     1       8.598  -1.560  23.289  0.00  0.00    -0.297 N 
ATOM      3  C   UNL     1       9.451  -1.843  22.242  0.00  0.00    +0.206 A 
ATOM      4  N   UNL     1       9.842  -0.778  21.594  0.00  0.00    -0.223 NA
ATOM      5  C   UNL     1       9.228   0.263  22.225  0.00  0.00    +0.155 A 
ATOM      6 CL   UNL     1       9.526   1.854  21.675  0.00  0.00    -0.060 Cl
ENDROOT
BRANCH   1  10
ATOM      7  C   UNL     1       5.864   1.958  26.047  0.00  0.00    +0.155 A 
ATOM      8  C   UNL     1       7.150   1.579  26.440  0.00  0.00    +0.049 A 
ATOM      9  C   UNL     1       8.036   0.984  25.526  0.00  0.00    +0.014 A 
ATOM     10  C   UNL     1       7.621   0.659  24.227  0.00  0.00    +0.005 A 
ATOM     11  C   UNL     1       6.361   1.123  23.826  0.00  0.00    +0.052 A 
ATOM     12  C   UNL     1       5.512   1.784  24.712  0.00  0.00    +0.165 A 
ATOM     13  F   UNL     1       4.337   2.214  24.231  0.00  0.00    -0.202 F 
BRANCH   7  15
ATOM     14  C   UNL     1       5.728   2.775  28.273  0.00  0.00    +0.277 C 
ATOM     15  O   UNL     1       5.074   2.458  27.046  0.00  0.00    -0.492 OA
ENDBRANCH   7  15
ENDBRANCH   1  10
BRANCH   2  16
ATOM     16  C   UNL     1       8.049  -2.586  24.119  0.00  0.00    +0.048 A 
ATOM     17  C   UNL     1       6.943  -3.348  23.724  0.00  0.00    +0.028 A 
ATOM     18  C   UNL     1       6.371  -4.269  24.608  0.00  0.00    +0.030 A 
ATOM     19  C   UNL     1       6.937  -4.457  25.869  0.00  0.00    +0.105 A 
ATOM     20  C   UNL     1       8.093  -3.776  26.243  0.00  0.00    +0.030 A 
ATOM     21  C   UNL     1       8.642  -2.837  25.372  0.00  0.00    +0.028 A 
BRANCH  19  22
ATOM     22  S   UNL     1       6.146  -5.507  27.046  0.00  0.00    +0.056 S 
ATOM     23  O   UNL     1       5.578  -6.650  26.367  0.00  0.00    -0.153 OA
ATOM     24  O   UNL     1       5.405  -4.705  27.991  0.00  0.00    -0.153 OA
BRANCH  22  25
ATOM     25  N   UNL     1       7.498  -6.075  27.870  0.00  0.00    -0.204 NA
ATOM     26  H   UNL     1       7.302  -6.183  28.865  0.00  0.00    +0.144 HD
ATOM     27  H   UNL     1       8.318  -5.511  27.652  0.00  0.00    +0.144 HD
ENDBRANCH  22  25
ENDBRANCH  19  22
ENDBRANCH   2  16
TORSDOF 5
ENDMDL
