MODEL 1
REMARK VINA RESULT:      -4.4      0.000      0.000
REMARK  Name = 
REMARK  2 active torsions:
REMARK  status: ('A' for Active; 'I' for Inactive)
REMARK    1  A    between atoms: C_1  and  N_2
REMARK    2  A    between atoms: C_10  and  O_12
REMARK                            x       y       z     vdW  Elec       q    Type
REMARK                         _______ _______ _______ _____ _____    ______ ____
ROOT
ATOM      1  C   UNL     1       7.273   1.685  23.160  0.00  0.00    +0.105 C 
ATOM      2  N   UNL     1       8.477   1.285  23.865  0.00  0.00    -0.299 NA
ATOM      3  C   UNL     1       8.564  -0.129  24.237  0.00  0.00    +0.059 C 
ATOM      4  C   UNL     1       8.449  -1.068  23.027  0.00  0.00    +0.050 C 
ATOM      5  C   UNL     1       9.246  -0.625  21.790  0.00  0.00    +0.117 C 
ATOM      6  C   UNL     1       9.802   0.808  21.798  0.00  0.00    +0.050 C 
ATOM      7  C   UNL     1       9.963  -0.183  24.857  0.00  0.00    +0.020 C 
ATOM      8  C   UNL     1      10.741   0.922  24.146  0.00  0.00    +0.020 C 
ATOM      9  C   UNL     1       9.738   1.521  23.157  0.00  0.00    +0.059 C 
ENDROOT
BRANCH   5  10
ATOM     10  O   UNL     1      10.324  -1.539  21.573  0.00  0.00    -0.392 OA
ATOM     11  H   UNL     1      11.129  -1.124  21.936  0.00  0.00    +0.210 HD
ENDBRANCH   5  10
TORSDOF 1
ENDMDL
MODEL 2
REMARK VINA RESULT:      -4.4      1.640      2.158
REMARK  Name = 
REMARK  2 active torsions:
REMARK  status: ('A' for Active; 'I' for Inactive)
REMARK    1  A    between atoms: C_1  and  N_2
REMARK    2  A    between atoms: C_10  and  O_12
REMARK                            x       y       z     vdW  Elec       q    Type
REMARK                         _______ _______ _______ _____ _____    ______ ____
ROOT
ATOM      1  C   UNL     1       7.209  -1.145  22.997  0.00  0.00    +0.105 C 
ATOM      2  N   UNL     1       8.264  -0.553  23.799  0.00  0.00    -0.299 NA
ATOM      3  C   UNL     1       9.626  -0.706  23.281  0.00  0.00    +0.059 C 
ATOM      4  C   UNL     1       9.792  -0.127  21.868  0.00  0.00    +0.050 C 
ATOM      5  C   UNL     1       9.113   1.234  21.647  0.00  0.00    +0.117 C 
ATOM      6  C   UNL     1       8.126   1.702  22.728  0.00  0.00    +0.050 C 
ATOM      7  C   UNL     1      10.424   0.097  24.313  0.00  0.00    +0.020 C 
ATOM      8  C   UNL     1       9.443   1.152  24.819  0.00  0.00    +0.020 C 
ATOM      9  C   UNL     1       8.157   0.890  24.030  0.00  0.00    +0.059 C 
ENDROOT
BRANCH   5  10
ATOM     10  O   UNL     1      10.116   2.236  21.470  0.00  0.00    -0.392 OA
ATOM     11  H   UNL     1      10.849   1.824  20.974  0.00  0.00    +0.210 HD
ENDBRANCH   5  10
TORSDOF 1
ENDMDL
MODEL 3
REMARK VINA RESULT:      -4.4      1.012      2.262
REMARK  Name = 
REMARK  2 active torsions:
REMARK  status: ('A' for Active; 'I' for Inactive)
REMARK    1  A    between atoms: C_1  and  N_2
REMARK    2  A    between atoms: C_10  and  O_12
REMARK                            x       y       z     vdW  Elec       q    Type
REMARK                         _______ _______ _______ _____ _____    ______ ____
ROOT
ATOM      1  C   UNL     1       8.124   0.751  25.077  0.00  0.00    +0.105 C 
ATOM      2  N   UNL     1       8.529   1.270  23.783  0.00  0.00    -0.299 NA
ATOM      3  C   UNL     1       9.970   1.280  23.517  0.00  0.00    +0.059 C 
ATOM      4  C   UNL     1      10.603  -0.114  23.631  0.00  0.00    +0.050 C 
ATOM      5  C   UNL     1       9.786  -1.247  22.990  0.00  0.00    +0.117 C 
ATOM      6  C   UNL     1       8.339  -0.919  22.590  0.00  0.00    +0.050 C 
ATOM      7  C   UNL     1       9.998   1.792  22.074  0.00  0.00    +0.020 C 
ATOM      8  C   UNL     1       8.669   1.331  21.478  0.00  0.00    +0.020 C 
ATOM      9  C   UNL     1       7.981   0.574  22.616  0.00  0.00    +0.059 C 
ENDROOT
BRANCH   5  10
ATOM     10  O   UNL     1      10.483  -1.739  21.844  0.00  0.00    -0.392 OA
ATOM     11  H   UNL     1       9.817  -1.899  21.149  0.00  0.00    +0.210 HD
ENDBRANCH   5  10
TORSDOF 1
ENDMDL
MODEL 4
REMARK VINA RESULT:      -4.3      1.602      2.585
REMARK  Name = 
REMARK  2 active torsions:
REMARK  status: ('A' for Active; 'I' for Inactive)
REMARK    1  A    between atoms: C_1  and  N_2
REMARK    2  A    between atoms: C_10  and  O_12
REMARK                            x       y       z     vdW  Elec       q    Type
REMARK                         _______ _______ _______ _____ _____    ______ ____
ROOT
ATOM      1  C   UNL     1       8.050   0.017  25.137  0.00  0.00    +0.105 C 
ATOM      2  N   UNL     1       8.673  -0.679  24.026  0.00  0.00    -0.299 NA
ATOM      3  C   UNL     1       8.139  -0.374  22.697  0.00  0.00    +0.059 C 
ATOM      4  C   UNL     1       8.216   1.122  22.356  0.00  0.00    +0.050 C 
ATOM      5  C   UNL     1       9.535   1.805  22.748  0.00  0.00    +0.117 C 
ATOM      6  C   UNL     1      10.476   1.019  23.676  0.00  0.00    +0.050 C 
ATOM      7  C   UNL     1       9.076  -1.199  21.808  0.00  0.00    +0.020 C 
ATOM      8  C   UNL     1      10.385  -1.267  22.591  0.00  0.00    +0.020 C 
ATOM      9  C   UNL     1      10.113  -0.461  23.864  0.00  0.00    +0.059 C 
ENDROOT
BRANCH   5  10
ATOM     10  O   UNL     1      10.249   2.165  21.564  0.00  0.00    -0.392 OA
ATOM     11  H   UNL     1       9.622   2.637  20.983  0.00  0.00    +0.210 HD
ENDBRANCH   5  10
TORSDOF 1
ENDMDL
MODEL 5
REMARK VINA RESULT:      -4.0      1.837      2.829
REMARK  Name = 
REMARK  2 active torsions:
REMARK  status: ('A' for Active; 'I' for Inactive)
REMARK    1  A    between atoms: C_1  and  N_2
REMARK    2  A    between atoms: C_10  and  O_12
REMARK                            x       y       z     vdW  Elec       q    Type
REMARK                         _______ _______ _______ _____ _____    ______ ____
ROOT
ATOM      1  C   UNL     1      10.880   0.723  24.631  0.00  0.00    +0.105 C 
ATOM      2  N   UNL     1      10.505   0.084  23.382  0.00  0.00    -0.299 NA
ATOM      3  C   UNL     1       9.685  -1.124  23.501  0.00  0.00    +0.059 C 
ATOM      4  C   UNL     1       8.374  -0.877  24.261  0.00  0.00    +0.050 C 
ATOM      5  C   UNL     1       7.646   0.422  23.885  0.00  0.00    +0.117 C 
ATOM      6  C   UNL     1       8.432   1.442  23.045  0.00  0.00    +0.050 C 
ATOM      7  C   UNL     1       9.425  -1.447  22.026  0.00  0.00    +0.020 C 
ATOM      8  C   UNL     1       9.475  -0.093  21.322  0.00  0.00    +0.020 C 
ATOM      9  C   UNL     1       9.743   0.913  22.445  0.00  0.00    +0.059 C 
ENDROOT
BRANCH   5  10
ATOM     10  O   UNL     1       6.431   0.101  23.205  0.00  0.00    -0.392 OA
ATOM     11  H   UNL     1       5.732   0.032  23.882  0.00  0.00    +0.210 HD
ENDBRANCH   5  10
TORSDOF 1
ENDMDL
MODEL 6
REMARK VINA RESULT:      -4.0      1.689      2.861
REMARK  Name = 
REMARK  2 active torsions:
REMARK  status: ('A' for Active; 'I' for Inactive)
REMARK    1  A    between atoms: C_1  and  N_2
REMARK    2  A    between atoms: C_10  and  O_12
REMARK                            x       y       z     vdW  Elec       q    Type
REMARK                         _______ _______ _______ _____ _____    ______ ____
ROOT
ATOM      1  C   UNL     1       6.869  -0.506  23.935  0.00  0.00    +0.105 C 
ATOM      2  N   UNL     1       7.777  -0.064  22.892  0.00  0.00    -0.299 NA
ATOM      3  C   UNL     1       8.332   1.283  23.053  0.00  0.00    +0.059 C 
ATOM      4  C   UNL     1       9.089   1.458  24.377  0.00  0.00    +0.050 C 
ATOM      5  C   UNL     1      10.001   0.281  24.758  0.00  0.00    +0.117 C 
ATOM      6  C   UNL     1       9.829  -1.019  23.957  0.00  0.00    +0.050 C 
ATOM      7  C   UNL     1       9.280   1.355  21.852  0.00  0.00    +0.020 C 
ATOM      8  C   UNL     1       9.695  -0.094  21.604  0.00  0.00    +0.020 C 
ATOM      9  C   UNL     1       8.969  -0.892  22.691  0.00  0.00    +0.059 C 
ENDROOT
BRANCH   5  10
ATOM     10  O   UNL     1      11.366   0.698  24.675  0.00  0.00    -0.392 OA
ATOM     11  H   UNL     1      11.870  -0.044  24.292  0.00  0.00    +0.210 HD
ENDBRANCH   5  10
TORSDOF 1
ENDMDL
MODEL 7
REMARK VINA RESULT:      -4.0      1.028      2.230
REMARK  Name = 
REMARK  2 active torsions:
REMARK  status: ('A' for Active; 'I' for Inactive)
REMARK    1  A    between atoms: C_1  and  N_2
REMARK    2  A    between atoms: C_10  and  O_12
REMARK                            x       y       z     vdW  Elec       q    Type
REMARK                         _______ _______ _______ _____ _____    ______ ____
ROOT
ATOM      1  C   UNL     1       9.772   2.546  23.714  0.00  0.00    +0.105 C 
ATOM      2  N   UNL     1       8.728   1.540  23.789  0.00  0.00    -0.299 NA
ATOM      3  C   UNL     1       8.087   1.184  22.520  0.00  0.00    +0.059 C 
ATOM      4  C   UNL     1       9.089   0.679  21.471  0.00  0.00    +0.050 C 
ATOM      5  C   UNL     1      10.150  -0.293  22.010  0.00  0.00    +0.117 C 
ATOM      6  C   UNL     1      10.274  -0.410  23.537  0.00  0.00    +0.050 C 
ATOM      7  C   UNL     1       7.140   0.069  22.973  0.00  0.00    +0.020 C 
ATOM      8  C   UNL     1       7.830  -0.552  24.186  0.00  0.00    +0.020 C 
ATOM      9  C   UNL     1       9.132   0.240  24.332  0.00  0.00    +0.059 C 
ENDROOT
BRANCH   5  10
ATOM     10  O   UNL     1       9.917  -1.593  21.463  0.00  0.00    -0.392 OA
ATOM     11  H   UNL     1      10.535  -1.705  20.716  0.00  0.00    +0.210 HD
ENDBRANCH   5  10
TORSDOF 1
ENDMDL
MODEL 8
REMARK VINA RESULT:      -4.0      2.344      3.461
REMARK  Name = 
REMARK  2 active torsions:
REMARK  status: ('A' for Active; 'I' for Inactive)
REMARK    1  A    between atoms: C_1  and  N_2
REMARK    2  A    between atoms: C_10  and  O_12
REMARK                            x       y       z     vdW  Elec       q    Type
REMARK                         _______ _______ _______ _____ _____    ______ ____
ROOT
ATOM      1  C   UNL     1      10.360   0.146  24.667  0.00  0.00    +0.105 C 
ATOM      2  N   UNL     1       9.446   0.352  23.557  0.00  0.00    -0.299 NA
ATOM      3  C   UNL     1       8.215   1.083  23.866  0.00  0.00    +0.059 C 
ATOM      4  C   UNL     1       8.485   2.475  24.457  0.00  0.00    +0.050 C 
ATOM      5  C   UNL     1       9.605   3.264  23.761  0.00  0.00    +0.117 C 
ATOM      6  C   UNL     1      10.502   2.484  22.786  0.00  0.00    +0.050 C 
ATOM      7  C   UNL     1       7.575   1.179  22.478  0.00  0.00    +0.020 C 
ATOM      8  C   UNL     1       8.755   1.169  21.510  0.00  0.00    +0.020 C 
ATOM      9  C   UNL     1       9.990   1.086  22.411  0.00  0.00    +0.059 C 
ENDROOT
BRANCH   5  10
ATOM     10  O   UNL     1       9.037   4.381  23.075  0.00  0.00    -0.392 OA
ATOM     11  H   UNL     1       8.557   4.912  23.738  0.00  0.00    +0.210 HD
ENDBRANCH   5  10
TORSDOF 1
ENDMDL
MODEL 9
REMARK VINA RESULT:      -4.0      2.191      3.288
REMARK  Name = 
REMARK  2 active torsions:
REMARK  status: ('A' for Active; 'I' for Inactive)
REMARK    1  A    between atoms: C_1  and  N_2
REMARK    2  A    between atoms: C_10  and  O_12
REMARK                            x       y       z     vdW  Elec       q    Type
REMARK                         _______ _______ _______ _____ _____    ______ ____
ROOT
ATOM      1  C   UNL     1       9.678  -3.042  24.178  0.00  0.00    +0.105 C 
ATOM      2  N   UNL     1       9.945  -1.888  23.339  0.00  0.00    -0.299 NA
ATOM      3  C   UNL     1       9.150  -1.787  22.113  0.00  0.00    +0.059 C 
ATOM      4  C   UNL     1       7.639  -1.772  22.386  0.00  0.00    +0.050 C 
ATOM      5  C   UNL     1       7.207  -0.890  23.568  0.00  0.00    +0.117 C 
ATOM      6  C   UNL     1       8.320  -0.383  24.500  0.00  0.00    +0.050 C 
ATOM      7  C   UNL     1       9.633  -0.442  21.560  0.00  0.00    +0.020 C 
ATOM      8  C   UNL     1      10.041   0.356  22.796  0.00  0.00    +0.020 C 
ATOM      9  C   UNL     1       9.748  -0.581  23.971  0.00  0.00    +0.059 C 
ENDROOT
BRANCH   5  10
ATOM     10  O   UNL     1       6.470   0.230  23.075  0.00  0.00    -0.392 OA
ATOM     11  H   UNL     1       7.112   0.837  22.660  0.00  0.00    +0.210 HD
ENDBRANCH   5  10
TORSDOF 1
ENDMDL
