MODEL 1
REMARK VINA RESULT:      -7.5      0.000      0.000
REMARK  Name = 
REMARK  11 active torsions:
REMARK  status: ('A' for Active; 'I' for Inactive)
REMARK    1  A    between atoms: C_1  and  O_2
REMARK    2  A    between atoms: O_2  and  C_3
REMARK    3  A    between atoms: C_3  and  C_5
REMARK    4  A    between atoms: C_6  and  O_7
REMARK    5  A    between atoms: C_11  and  O_12
REMARK    6  A    between atoms: O_12  and  C_13
REMARK    7  A    between atoms: C_13  and  C_14
REMARK    8  A    between atoms: C_15  and  C_16
REMARK    9  A    between atoms: C_18  and  C_19
REMARK   10  A    between atoms: C_21  and  C_24
REMARK   11  A    between atoms: C_24  and  O_25
REMARK                            x       y       z     vdW  Elec       q    Type
REMARK                         _______ _______ _______ _____ _____    ______ ____
ROOT
ATOM      1  C   UNL     1       9.029  -2.346  23.726  0.00  0.00    +0.014 C 
ATOM      2  C   UNL     1       8.415  -1.299  24.304  0.00  0.00    +0.007 C 
ENDROOT
BRANCH   2   3
ATOM      3  C   UNL     1       8.199  -0.004  23.657  0.00  0.00    -0.024 A 
ATOM      4  C   UNL     1       7.007   0.243  22.971  0.00  0.00    +0.011 A 
ATOM      5  C   UNL     1       6.780   1.495  22.399  0.00  0.00    +0.039 A 
ATOM      6  C   UNL     1       7.733   2.505  22.532  0.00  0.00    +0.134 A 
ATOM      7  F   UNL     1       7.469   3.695  21.975  0.00  0.00    -0.205 F 
ATOM      8  C   UNL     1       8.923   2.296  23.237  0.00  0.00    +0.056 A 
ATOM      9  C   UNL     1       9.136   1.028  23.795  0.00  0.00    +0.022 A 
BRANCH   8  10
ATOM     10  C   UNL     1       9.913   3.349  23.423  0.00  0.00    +0.171 A 
ATOM     11  O   UNL     1       9.428   4.561  23.827  0.00  0.00    -0.354 OA
ATOM     12  N   UNL     1      10.457   5.472  23.946  0.00  0.00    -0.071 NA
ATOM     13  C   UNL     1      11.572   4.800  23.613  0.00  0.00    +0.190 A 
ATOM     14  C   UNL     1      11.276   3.455  23.282  0.00  0.00    +0.088 A 
BRANCH  13  15
ATOM     15  C   UNL     1      12.865   5.471  23.621  0.00  0.00    +0.359 C 
ATOM     16  O   UNL     1      13.805   5.144  22.914  0.00  0.00    -0.243 OA
BRANCH  15  17
ATOM     17  O   UNL     1      12.932   6.511  24.498  0.00  0.00    -0.476 OA
ATOM     18  H   UNL     1      12.411   6.280  25.299  0.00  0.00    +0.295 HD
ENDBRANCH  15  17
ENDBRANCH  13  15
ENDBRANCH   8  10
ENDBRANCH   2   3
BRANCH   1  19
ATOM     19  C   UNL     1       9.322  -3.599  24.482  0.00  0.00    +0.256 C 
BRANCH  19  20
ATOM     20  O   UNL     1       8.656  -4.704  23.870  0.00  0.00    -0.487 OA
BRANCH  20  22
ATOM     21  C   UNL     1       6.362  -5.417  23.785  0.00  0.00    +0.142 A 
ATOM     22  C   UNL     1       7.528  -5.142  24.528  0.00  0.00    +0.138 A 
ATOM     23  C   UNL     1       7.478  -5.244  25.930  0.00  0.00    +0.047 A 
ATOM     24  C   UNL     1       6.308  -5.610  26.591  0.00  0.00    +0.007 A 
ATOM     25  C   UNL     1       5.151  -5.838  25.865  0.00  0.00    +0.046 A 
ATOM     26  C   UNL     1       5.173  -5.728  24.476  0.00  0.00    +0.134 A 
BRANCH  21  27
ATOM     27  C   UNL     1       6.317  -5.457  22.301  0.00  0.00    +0.346 C 
ATOM     28  O   UNL     1       7.106  -6.135  21.652  0.00  0.00    -0.245 OA
BRANCH  27  30
ATOM     29  C   UNL     1       5.814  -3.182  22.006  0.00  0.00    +0.280 C 
ATOM     30  O   UNL     1       5.452  -4.548  21.794  0.00  0.00    -0.464 OA
ENDBRANCH  27  30
ENDBRANCH  21  27
BRANCH  26  31
ATOM     31  O   UNL     1       3.969  -5.954  23.858  0.00  0.00    -0.506 OA
ATOM     32  H   UNL     1       4.042  -5.685  22.916  0.00  0.00    +0.292 HD
ENDBRANCH  26  31
ENDBRANCH  20  22
ENDBRANCH  19  20
ENDBRANCH   1  19
TORSDOF 10
ENDMDL
MODEL 2
REMARK VINA RESULT:      -7.5      2.401      3.714
REMARK  Name = 
REMARK  11 active torsions:
REMARK  status: ('A' for Active; 'I' for Inactive)
REMARK    1  A    between atoms: C_1  and  O_2
REMARK    2  A    between atoms: O_2  and  C_3
REMARK    3  A    between atoms: C_3  and  C_5
REMARK    4  A    between atoms: C_6  and  O_7
REMARK    5  A    between atoms: C_11  and  O_12
REMARK    6  A    between atoms: O_12  and  C_13
REMARK    7  A    between atoms: C_13  and  C_14
REMARK    8  A    between atoms: C_15  and  C_16
REMARK    9  A    between atoms: C_18  and  C_19
REMARK   10  A    between atoms: C_21  and  C_24
REMARK   11  A    between atoms: C_24  and  O_25
REMARK                            x       y       z     vdW  Elec       q    Type
REMARK                         _______ _______ _______ _____ _____    ______ ____
ROOT
ATOM      1  C   UNL     1       6.320  -2.713  22.257  0.00  0.00    +0.014 C 
ATOM      2  C   UNL     1       6.602  -1.630  23.003  0.00  0.00    +0.007 C 
ENDROOT
BRANCH   2   3
ATOM      3  C   UNL     1       7.641  -0.650  22.682  0.00  0.00    -0.024 A 
ATOM      4  C   UNL     1       8.873  -1.078  22.180  0.00  0.00    +0.011 A 
ATOM      5  C   UNL     1       9.843  -0.141  21.824  0.00  0.00    +0.039 A 
ATOM      6  C   UNL     1       9.574   1.222  21.950  0.00  0.00    +0.134 A 
ATOM      7  F   UNL     1      10.531   2.088  21.587  0.00  0.00    -0.205 F 
ATOM      8  C   UNL     1       8.339   1.681  22.423  0.00  0.00    +0.056 A 
ATOM      9  C   UNL     1       7.383   0.722  22.784  0.00  0.00    +0.022 A 
BRANCH   8  10
ATOM     10  C   UNL     1       8.023   3.099  22.523  0.00  0.00    +0.171 A 
ATOM     11  O   UNL     1       8.834   3.837  23.338  0.00  0.00    -0.354 OA
ATOM     12  N   UNL     1       8.418   5.153  23.362  0.00  0.00    -0.071 NA
ATOM     13  C   UNL     1       7.349   5.206  22.551  0.00  0.00    +0.190 A 
ATOM     14  C   UNL     1       7.068   3.935  21.994  0.00  0.00    +0.088 A 
BRANCH  13  15
ATOM     15  C   UNL     1       6.643   6.464  22.347  0.00  0.00    +0.359 C 
ATOM     16  O   UNL     1       5.951   7.002  23.196  0.00  0.00    -0.243 OA
BRANCH  15  17
ATOM     17  O   UNL     1       6.829   6.997  21.106  0.00  0.00    -0.476 OA
ATOM     18  H   UNL     1       6.320   6.462  20.457  0.00  0.00    +0.295 HD
ENDBRANCH  15  17
ENDBRANCH  13  15
ENDBRANCH   8  10
ENDBRANCH   2   3
BRANCH   1  19
ATOM     19  C   UNL     1       5.329  -3.736  22.701  0.00  0.00    +0.256 C 
BRANCH  19  20
ATOM     20  O   UNL     1       6.007  -4.907  23.155  0.00  0.00    -0.487 OA
BRANCH  20  22
ATOM     21  C   UNL     1       7.011  -5.257  25.311  0.00  0.00    +0.142 A 
ATOM     22  C   UNL     1       5.864  -5.182  24.497  0.00  0.00    +0.138 A 
ATOM     23  C   UNL     1       4.610  -5.473  25.065  0.00  0.00    +0.047 A 
ATOM     24  C   UNL     1       4.485  -5.830  26.405  0.00  0.00    +0.007 A 
ATOM     25  C   UNL     1       5.617  -5.946  27.194  0.00  0.00    +0.046 A 
ATOM     26  C   UNL     1       6.870  -5.677  26.649  0.00  0.00    +0.134 A 
BRANCH  21  27
ATOM     27  C   UNL     1       8.371  -4.862  24.861  0.00  0.00    +0.346 C 
ATOM     28  O   UNL     1       9.283  -5.679  24.779  0.00  0.00    -0.245 OA
BRANCH  27  30
ATOM     29  C   UNL     1       8.593  -2.807  25.976  0.00  0.00    +0.280 C 
ATOM     30  O   UNL     1       8.498  -3.520  24.741  0.00  0.00    -0.464 OA
ENDBRANCH  27  30
ENDBRANCH  21  27
BRANCH  26  31
ATOM     31  O   UNL     1       7.925  -5.843  27.511  0.00  0.00    -0.506 OA
ATOM     32  H   UNL     1       8.389  -6.679  27.285  0.00  0.00    +0.292 HD
ENDBRANCH  26  31
ENDBRANCH  20  22
ENDBRANCH  19  20
ENDBRANCH   1  19
TORSDOF 10
ENDMDL
MODEL 3
REMARK VINA RESULT:      -7.3      2.426      3.835
REMARK  Name = 
REMARK  11 active torsions:
REMARK  status: ('A' for Active; 'I' for Inactive)
REMARK    1  A    between atoms: C_1  and  O_2
REMARK    2  A    between atoms: O_2  and  C_3
REMARK    3  A    between atoms: C_3  and  C_5
REMARK    4  A    between atoms: C_6  and  O_7
REMARK    5  A    between atoms: C_11  and  O_12
REMARK    6  A    between atoms: O_12  and  C_13
REMARK    7  A    between atoms: C_13  and  C_14
REMARK    8  A    between atoms: C_15  and  C_16
REMARK    9  A    between atoms: C_18  and  C_19
REMARK   10  A    between atoms: C_21  and  C_24
REMARK   11  A    between atoms: C_24  and  O_25
REMARK                            x       y       z     vdW  Elec       q    Type
REMARK                         _______ _______ _______ _____ _____    ______ ____
ROOT
ATOM      1  C   UNL     1       6.171  -2.714  22.688  0.00  0.00    +0.014 C 
ATOM      2  C   UNL     1       6.530  -1.600  23.349  0.00  0.00    +0.007 C 
ENDROOT
BRANCH   2   3
ATOM      3  C   UNL     1       7.567  -0.669  22.903  0.00  0.00    -0.024 A 
ATOM      4  C   UNL     1       8.730  -1.156  22.300  0.00  0.00    +0.011 A 
ATOM      5  C   UNL     1       9.694  -0.265  21.827  0.00  0.00    +0.039 A 
ATOM      6  C   UNL     1       9.486   1.109  21.937  0.00  0.00    +0.134 A 
ATOM      7  F   UNL     1      10.435   1.929  21.460  0.00  0.00    -0.205 F 
ATOM      8  C   UNL     1       8.319   1.627  22.510  0.00  0.00    +0.056 A 
ATOM      9  C   UNL     1       7.368   0.715  22.987  0.00  0.00    +0.022 A 
BRANCH   8  10
ATOM     10  C   UNL     1       8.064   3.058  22.596  0.00  0.00    +0.171 A 
ATOM     11  O   UNL     1       8.914   3.771  23.394  0.00  0.00    -0.354 OA
ATOM     12  N   UNL     1       8.555   5.103  23.407  0.00  0.00    -0.071 NA
ATOM     13  C   UNL     1       7.479   5.192  22.607  0.00  0.00    +0.190 A 
ATOM     14  C   UNL     1       7.138   3.927  22.069  0.00  0.00    +0.088 A 
BRANCH  13  15
ATOM     15  C   UNL     1       6.824   6.476  22.396  0.00  0.00    +0.359 C 
ATOM     16  O   UNL     1       6.265   7.108  23.278  0.00  0.00    -0.243 OA
BRANCH  15  17
ATOM     17  O   UNL     1       6.894   6.917  21.109  0.00  0.00    -0.476 OA
ATOM     18  H   UNL     1       7.059   7.886  21.119  0.00  0.00    +0.295 HD
ENDBRANCH  15  17
ENDBRANCH  13  15
ENDBRANCH   8  10
ENDBRANCH   2   3
BRANCH   1  19
ATOM     19  C   UNL     1       5.189  -3.683  23.256  0.00  0.00    +0.256 C 
BRANCH  19  20
ATOM     20  O   UNL     1       5.778  -4.980  23.342  0.00  0.00    -0.487 OA
BRANCH  20  22
ATOM     21  C   UNL     1       6.580  -5.507  25.546  0.00  0.00    +0.142 A 
ATOM     22  C   UNL     1       6.830  -5.086  24.225  0.00  0.00    +0.138 A 
ATOM     23  C   UNL     1       8.137  -4.707  23.872  0.00  0.00    +0.047 A 
ATOM     24  C   UNL     1       9.179  -4.741  24.794  0.00  0.00    +0.007 A 
ATOM     25  C   UNL     1       8.925  -5.113  26.104  0.00  0.00    +0.046 A 
ATOM     26  C   UNL     1       7.635  -5.479  26.481  0.00  0.00    +0.134 A 
BRANCH  21  27
ATOM     27  C   UNL     1       5.273  -6.040  26.011  0.00  0.00    +0.346 C 
ATOM     28  O   UNL     1       4.762  -7.028  25.494  0.00  0.00    -0.245 OA
BRANCH  27  30
ATOM     29  C   UNL     1       3.477  -4.594  26.453  0.00  0.00    +0.280 C 
ATOM     30  O   UNL     1       4.678  -5.219  26.907  0.00  0.00    -0.464 OA
ENDBRANCH  27  30
ENDBRANCH  21  27
BRANCH  26  31
ATOM     31  O   UNL     1       7.489  -5.809  27.805  0.00  0.00    -0.506 OA
ATOM     32  H   UNL     1       7.310  -6.772  27.873  0.00  0.00    +0.292 HD
ENDBRANCH  26  31
ENDBRANCH  20  22
ENDBRANCH  19  20
ENDBRANCH   1  19
TORSDOF 10
ENDMDL
MODEL 4
REMARK VINA RESULT:      -7.3      1.770      2.754
REMARK  Name = 
REMARK  11 active torsions:
REMARK  status: ('A' for Active; 'I' for Inactive)
REMARK    1  A    between atoms: C_1  and  O_2
REMARK    2  A    between atoms: O_2  and  C_3
REMARK    3  A    between atoms: C_3  and  C_5
REMARK    4  A    between atoms: C_6  and  O_7
REMARK    5  A    between atoms: C_11  and  O_12
REMARK    6  A    between atoms: O_12  and  C_13
REMARK    7  A    between atoms: C_13  and  C_14
REMARK    8  A    between atoms: C_15  and  C_16
REMARK    9  A    between atoms: C_18  and  C_19
REMARK   10  A    between atoms: C_21  and  C_24
REMARK   11  A    between atoms: C_24  and  O_25
REMARK                            x       y       z     vdW  Elec       q    Type
REMARK                         _______ _______ _______ _____ _____    ______ ____
ROOT
ATOM      1  C   UNL     1       8.187  -1.307  22.985  0.00  0.00    +0.014 C 
ATOM      2  C   UNL     1       7.492  -0.163  22.851  0.00  0.00    +0.007 C 
ENDROOT
BRANCH   2   3
ATOM      3  C   UNL     1       7.728   1.047  23.639  0.00  0.00    -0.024 A 
ATOM      4  C   UNL     1       6.974   1.289  24.790  0.00  0.00    +0.011 A 
ATOM      5  C   UNL     1       7.236   2.416  25.570  0.00  0.00    +0.039 A 
ATOM      6  C   UNL     1       8.264   3.287  25.211  0.00  0.00    +0.134 A 
ATOM      7  F   UNL     1       8.487   4.353  25.994  0.00  0.00    -0.205 F 
ATOM      8  C   UNL     1       9.055   3.055  24.081  0.00  0.00    +0.056 A 
ATOM      9  C   UNL     1       8.769   1.923  23.306  0.00  0.00    +0.022 A 
BRANCH   8  10
ATOM     10  C   UNL     1      10.161   3.930  23.712  0.00  0.00    +0.171 A 
ATOM     11  O   UNL     1       9.889   5.269  23.708  0.00  0.00    -0.354 OA
ATOM     12  N   UNL     1      11.006   5.982  23.324  0.00  0.00    -0.071 NA
ATOM     13  C   UNL     1      11.959   5.063  23.098  0.00  0.00    +0.190 A 
ATOM     14  C   UNL     1      11.472   3.755  23.337  0.00  0.00    +0.088 A 
BRANCH  13  15
ATOM     15  C   UNL     1      13.287   5.473  22.662  0.00  0.00    +0.359 C 
ATOM     16  O   UNL     1      13.492   6.281  21.770  0.00  0.00    -0.243 OA
BRANCH  15  17
ATOM     17  O   UNL     1      14.296   4.867  23.349  0.00  0.00    -0.476 OA
ATOM     18  H   UNL     1      14.200   5.084  24.303  0.00  0.00    +0.295 HD
ENDBRANCH  15  17
ENDBRANCH  13  15
ENDBRANCH   8  10
ENDBRANCH   2   3
BRANCH   1  19
ATOM     19  C   UNL     1       7.818  -2.542  22.233  0.00  0.00    +0.256 C 
BRANCH  19  20
ATOM     20  O   UNL     1       8.264  -3.696  22.944  0.00  0.00    -0.487 OA
BRANCH  20  22
ATOM     21  C   UNL     1       7.617  -4.737  25.012  0.00  0.00    +0.142 A 
ATOM     22  C   UNL     1       7.300  -4.323  23.703  0.00  0.00    +0.138 A 
ATOM     23  C   UNL     1       6.033  -4.638  23.181  0.00  0.00    +0.047 A 
ATOM     24  C   UNL     1       5.093  -5.344  23.928  0.00  0.00    +0.007 A 
ATOM     25  C   UNL     1       5.420  -5.789  25.199  0.00  0.00    +0.046 A 
ATOM     26  C   UNL     1       6.675  -5.501  25.731  0.00  0.00    +0.134 A 
BRANCH  21  27
ATOM     27  C   UNL     1       8.872  -4.368  25.716  0.00  0.00    +0.346 C 
ATOM     28  O   UNL     1       9.942  -4.901  25.442  0.00  0.00    -0.245 OA
BRANCH  27  30
ATOM     29  C   UNL     1       8.441  -2.171  26.424  0.00  0.00    +0.280 C 
ATOM     30  O   UNL     1       8.644  -3.543  26.764  0.00  0.00    -0.464 OA
ENDBRANCH  27  30
ENDBRANCH  21  27
BRANCH  26  31
ATOM     31  O   UNL     1       6.901  -6.007  26.986  0.00  0.00    -0.506 OA
ATOM     32  H   UNL     1       6.668  -6.961  26.989  0.00  0.00    +0.292 HD
ENDBRANCH  26  31
ENDBRANCH  20  22
ENDBRANCH  19  20
ENDBRANCH   1  19
TORSDOF 10
ENDMDL
MODEL 5
REMARK VINA RESULT:      -7.2      4.108      9.133
REMARK  Name = 
REMARK  11 active torsions:
REMARK  status: ('A' for Active; 'I' for Inactive)
REMARK    1  A    between atoms: C_1  and  O_2
REMARK    2  A    between atoms: O_2  and  C_3
REMARK    3  A    between atoms: C_3  and  C_5
REMARK    4  A    between atoms: C_6  and  O_7
REMARK    5  A    between atoms: C_11  and  O_12
REMARK    6  A    between atoms: O_12  and  C_13
REMARK    7  A    between atoms: C_13  and  C_14
REMARK    8  A    between atoms: C_15  and  C_16
REMARK    9  A    between atoms: C_18  and  C_19
REMARK   10  A    between atoms: C_21  and  C_24
REMARK   11  A    between atoms: C_24  and  O_25
REMARK                            x       y       z     vdW  Elec       q    Type
REMARK                         _______ _______ _______ _____ _____    ______ ____
ROOT
ATOM      1  C   UNL     1       8.711  -1.156  21.994  0.00  0.00    +0.014 C 
ATOM      2  C   UNL     1       8.914  -2.222  22.788  0.00  0.00    +0.007 C 
ENDROOT
BRANCH   2   3
ATOM      3  C   UNL     1       7.903  -3.236  23.090  0.00  0.00    -0.024 A 
ATOM      4  C   UNL     1       7.189  -3.840  22.052  0.00  0.00    +0.011 A 
ATOM      5  C   UNL     1       6.262  -4.844  22.337  0.00  0.00    +0.039 A 
ATOM      6  C   UNL     1       6.066  -5.257  23.654  0.00  0.00    +0.134 A 
ATOM      7  F   UNL     1       5.173  -6.231  23.881  0.00  0.00    -0.205 F 
ATOM      8  C   UNL     1       6.787  -4.690  24.711  0.00  0.00    +0.056 A 
ATOM      9  C   UNL     1       7.705  -3.677  24.404  0.00  0.00    +0.022 A 
BRANCH   8  10
ATOM     10  C   UNL     1       6.627  -5.135  26.089  0.00  0.00    +0.171 A 
ATOM     11  O   UNL     1       7.705  -5.767  26.643  0.00  0.00    -0.354 OA
ATOM     12  N   UNL     1       7.420  -6.155  27.936  0.00  0.00    -0.071 NA
ATOM     13  C   UNL     1       6.159  -5.751  28.162  0.00  0.00    +0.190 A 
ATOM     14  C   UNL     1       5.622  -5.097  27.026  0.00  0.00    +0.088 A 
BRANCH  13  15
ATOM     15  C   UNL     1       5.523  -6.010  29.447  0.00  0.00    +0.359 C 
ATOM     16  O   UNL     1       4.806  -6.972  29.670  0.00  0.00    -0.243 OA
BRANCH  15  17
ATOM     17  O   UNL     1       5.805  -5.070  30.392  0.00  0.00    -0.476 OA
ATOM     18  H   UNL     1       6.042  -5.529  31.229  0.00  0.00    +0.295 HD
ENDBRANCH  15  17
ENDBRANCH  13  15
ENDBRANCH   8  10
ENDBRANCH   2   3
BRANCH   1  19
ATOM     19  C   UNL     1       9.748  -0.097  21.820  0.00  0.00    +0.256 C 
BRANCH  19  20
ATOM     20  O   UNL     1      10.332   0.224  23.082  0.00  0.00    -0.487 OA
BRANCH  20  22
ATOM     21  C   UNL     1       8.902   1.461  24.566  0.00  0.00    +0.142 A 
ATOM     22  C   UNL     1       9.941   1.433  23.616  0.00  0.00    +0.138 A 
ATOM     23  C   UNL     1      10.492   2.651  23.178  0.00  0.00    +0.047 A 
ATOM     24  C   UNL     1      10.034   3.872  23.663  0.00  0.00    +0.007 A 
ATOM     25  C   UNL     1       8.984   3.903  24.565  0.00  0.00    +0.046 A 
ATOM     26  C   UNL     1       8.412   2.710  25.002  0.00  0.00    +0.134 A 
BRANCH  21  27
ATOM     27  C   UNL     1       8.319   0.246  25.191  0.00  0.00    +0.346 C 
ATOM     28  O   UNL     1       7.122  -0.008  25.108  0.00  0.00    -0.245 OA
BRANCH  27  30
ATOM     29  C   UNL     1       8.690  -0.896  27.209  0.00  0.00    +0.280 C 
ATOM     30  O   UNL     1       9.212  -0.402  25.975  0.00  0.00    -0.464 OA
ENDBRANCH  27  30
ENDBRANCH  21  27
BRANCH  26  31
ATOM     31  O   UNL     1       7.366   2.855  25.878  0.00  0.00    -0.506 OA
ATOM     32  H   UNL     1       6.581   3.177  25.381  0.00  0.00    +0.292 HD
ENDBRANCH  26  31
ENDBRANCH  20  22
ENDBRANCH  19  20
ENDBRANCH   1  19
TORSDOF 10
ENDMDL
MODEL 6
REMARK VINA RESULT:      -7.2      3.705      9.638
REMARK  Name = 
REMARK  11 active torsions:
REMARK  status: ('A' for Active; 'I' for Inactive)
REMARK    1  A    between atoms: C_1  and  O_2
REMARK    2  A    between atoms: O_2  and  C_3
REMARK    3  A    between atoms: C_3  and  C_5
REMARK    4  A    between atoms: C_6  and  O_7
REMARK    5  A    between atoms: C_11  and  O_12
REMARK    6  A    between atoms: O_12  and  C_13
REMARK    7  A    between atoms: C_13  and  C_14
REMARK    8  A    between atoms: C_15  and  C_16
REMARK    9  A    between atoms: C_18  and  C_19
REMARK   10  A    between atoms: C_21  and  C_24
REMARK   11  A    between atoms: C_24  and  O_25
REMARK                            x       y       z     vdW  Elec       q    Type
REMARK                         _______ _______ _______ _____ _____    ______ ____
ROOT
ATOM      1  C   UNL     1       6.971   0.535  24.593  0.00  0.00    +0.014 C 
ATOM      2  C   UNL     1       6.644  -0.197  23.513  0.00  0.00    +0.007 C 
ENDROOT
BRANCH   2   3
ATOM      3  C   UNL     1       6.684  -1.659  23.459  0.00  0.00    -0.024 A 
ATOM      4  C   UNL     1       6.830  -2.308  22.230  0.00  0.00    +0.011 A 
ATOM      5  C   UNL     1       6.921  -3.700  22.185  0.00  0.00    +0.039 A 
ATOM      6  C   UNL     1       6.888  -4.438  23.368  0.00  0.00    +0.134 A 
ATOM      7  F   UNL     1       6.988  -5.773  23.278  0.00  0.00    -0.205 F 
ATOM      8  C   UNL     1       6.772  -3.814  24.614  0.00  0.00    +0.056 A 
ATOM      9  C   UNL     1       6.671  -2.417  24.637  0.00  0.00    +0.022 A 
BRANCH   8  10
ATOM     10  C   UNL     1       6.777  -4.564  25.863  0.00  0.00    +0.171 A 
ATOM     11  O   UNL     1       8.000  -4.994  26.298  0.00  0.00    -0.354 OA
ATOM     12  N   UNL     1       7.867  -5.705  27.473  0.00  0.00    -0.071 NA
ATOM     13  C   UNL     1       6.552  -5.701  27.749  0.00  0.00    +0.190 A 
ATOM     14  C   UNL     1       5.828  -4.987  26.763  0.00  0.00    +0.088 A 
BRANCH  13  15
ATOM     15  C   UNL     1       6.047  -6.379  28.935  0.00  0.00    +0.359 C 
ATOM     16  O   UNL     1       6.147  -5.935  30.067  0.00  0.00    -0.243 OA
BRANCH  15  17
ATOM     17  O   UNL     1       5.443  -7.570  28.664  0.00  0.00    -0.476 OA
ATOM     18  H   UNL     1       4.534  -7.392  28.335  0.00  0.00    +0.295 HD
ENDBRANCH  15  17
ENDBRANCH  13  15
ENDBRANCH   8  10
ENDBRANCH   2   3
BRANCH   1  19
ATOM     19  C   UNL     1       7.022   2.025  24.545  0.00  0.00    +0.256 C 
BRANCH  19  20
ATOM     20  O   UNL     1       8.129   2.499  25.312  0.00  0.00    -0.487 OA
BRANCH  20  22
ATOM     21  C   UNL     1       9.933   3.337  23.964  0.00  0.00    +0.142 A 
ATOM     22  C   UNL     1       8.800   3.571  24.767  0.00  0.00    +0.138 A 
ATOM     23  C   UNL     1       8.438   4.899  25.057  0.00  0.00    +0.047 A 
ATOM     24  C   UNL     1       9.172   5.977  24.568  0.00  0.00    +0.007 A 
ATOM     25  C   UNL     1      10.311   5.746  23.814  0.00  0.00    +0.046 A 
ATOM     26  C   UNL     1      10.697   4.439  23.527  0.00  0.00    +0.134 A 
BRANCH  21  27
ATOM     27  C   UNL     1      10.350   1.991  23.493  0.00  0.00    +0.346 C 
ATOM     28  O   UNL     1      10.955   1.214  24.223  0.00  0.00    -0.245 OA
BRANCH  27  30
ATOM     29  C   UNL     1       9.772   0.508  21.766  0.00  0.00    +0.280 C 
ATOM     30  O   UNL     1      10.141   1.829  22.166  0.00  0.00    -0.464 OA
ENDBRANCH  27  30
ENDBRANCH  21  27
BRANCH  26  31
ATOM     31  O   UNL     1      11.851   4.324  22.792  0.00  0.00    -0.506 OA
ATOM     32  H   UNL     1      11.936   3.396  22.481  0.00  0.00    +0.292 HD
ENDBRANCH  26  31
ENDBRANCH  20  22
ENDBRANCH  19  20
ENDBRANCH   1  19
TORSDOF 10
ENDMDL
MODEL 7
REMARK VINA RESULT:      -7.1      3.708     10.019
REMARK  Name = 
REMARK  11 active torsions:
REMARK  status: ('A' for Active; 'I' for Inactive)
REMARK    1  A    between atoms: C_1  and  O_2
REMARK    2  A    between atoms: O_2  and  C_3
REMARK    3  A    between atoms: C_3  and  C_5
REMARK    4  A    between atoms: C_6  and  O_7
REMARK    5  A    between atoms: C_11  and  O_12
REMARK    6  A    between atoms: O_12  and  C_13
REMARK    7  A    between atoms: C_13  and  C_14
REMARK    8  A    between atoms: C_15  and  C_16
REMARK    9  A    between atoms: C_18  and  C_19
REMARK   10  A    between atoms: C_21  and  C_24
REMARK   11  A    between atoms: C_24  and  O_25
REMARK                            x       y       z     vdW  Elec       q    Type
REMARK                         _______ _______ _______ _____ _____    ______ ____
ROOT
ATOM      1  C   UNL     1       7.797   0.395  25.767  0.00  0.00    +0.014 C 
ATOM      2  C   UNL     1       7.720  -0.361  24.658  0.00  0.00    +0.007 C 
ENDROOT
BRANCH   2   3
ATOM      3  C   UNL     1       8.060  -1.784  24.600  0.00  0.00    -0.024 A 
ATOM      4  C   UNL     1       9.380  -2.176  24.361  0.00  0.00    +0.011 A 
ATOM      5  C   UNL     1       9.713  -3.531  24.358  0.00  0.00    +0.039 A 
ATOM      6  C   UNL     1       8.733  -4.490  24.615  0.00  0.00    +0.134 A 
ATOM      7  F   UNL     1       9.099  -5.780  24.612  0.00  0.00    -0.205 F 
ATOM      8  C   UNL     1       7.409  -4.125  24.886  0.00  0.00    +0.056 A 
ATOM      9  C   UNL     1       7.094  -2.760  24.874  0.00  0.00    +0.022 A 
BRANCH   8  10
ATOM     10  C   UNL     1       6.380  -5.108  25.197  0.00  0.00    +0.171 A 
ATOM     11  O   UNL     1       6.535  -5.784  26.375  0.00  0.00    -0.354 OA
ATOM     12  N   UNL     1       5.511  -6.694  26.542  0.00  0.00    -0.071 NA
ATOM     13  C   UNL     1       4.733  -6.563  25.455  0.00  0.00    +0.190 A 
ATOM     14  C   UNL     1       5.240  -5.569  24.583  0.00  0.00    +0.088 A 
BRANCH  13  15
ATOM     15  C   UNL     1       3.546  -7.392  25.296  0.00  0.00    +0.359 C 
ATOM     16  O   UNL     1       2.696  -7.536  26.160  0.00  0.00    -0.243 OA
BRANCH  15  17
ATOM     17  O   UNL     1       3.468  -8.001  24.080  0.00  0.00    -0.476 OA
ATOM     18  H   UNL     1       3.568  -8.971  24.208  0.00  0.00    +0.295 HD
ENDBRANCH  15  17
ENDBRANCH  13  15
ENDBRANCH   8  10
ENDBRANCH   2   3
BRANCH   1  19
ATOM     19  C   UNL     1       7.549   1.866  25.733  0.00  0.00    +0.256 C 
BRANCH  19  20
ATOM     20  O   UNL     1       7.616   2.341  24.389  0.00  0.00    -0.487 OA
BRANCH  20  22
ATOM     21  C   UNL     1       9.763   3.220  23.762  0.00  0.00    +0.142 A 
ATOM     22  C   UNL     1       8.439   3.428  24.194  0.00  0.00    +0.138 A 
ATOM     23  C   UNL     1       8.021   4.738  24.493  0.00  0.00    +0.047 A 
ATOM     24  C   UNL     1       8.885   5.823  24.369  0.00  0.00    +0.007 A 
ATOM     25  C   UNL     1      10.200   5.613  23.987  0.00  0.00    +0.046 A 
ATOM     26  C   UNL     1      10.640   4.323  23.700  0.00  0.00    +0.134 A 
BRANCH  21  27
ATOM     27  C   UNL     1      10.289   1.907  23.308  0.00  0.00    +0.346 C 
ATOM     28  O   UNL     1      10.855   1.140  24.079  0.00  0.00    -0.245 OA
BRANCH  27  30
ATOM     29  C   UNL     1       9.230   0.854  21.495  0.00  0.00    +0.280 C 
ATOM     30  O   UNL     1      10.221   1.770  21.963  0.00  0.00    -0.464 OA
ENDBRANCH  27  30
ENDBRANCH  21  27
BRANCH  26  31
ATOM     31  O   UNL     1      11.964   4.226  23.353  0.00  0.00    -0.506 OA
ATOM     32  H   UNL     1      12.366   3.477  23.845  0.00  0.00    +0.292 HD
ENDBRANCH  26  31
ENDBRANCH  20  22
ENDBRANCH  19  20
ENDBRANCH   1  19
TORSDOF 10
ENDMDL
MODEL 8
REMARK VINA RESULT:      -7.1      2.020      2.525
REMARK  Name = 
REMARK  11 active torsions:
REMARK  status: ('A' for Active; 'I' for Inactive)
REMARK    1  A    between atoms: C_1  and  O_2
REMARK    2  A    between atoms: O_2  and  C_3
REMARK    3  A    between atoms: C_3  and  C_5
REMARK    4  A    between atoms: C_6  and  O_7
REMARK    5  A    between atoms: C_11  and  O_12
REMARK    6  A    between atoms: O_12  and  C_13
REMARK    7  A    between atoms: C_13  and  C_14
REMARK    8  A    between atoms: C_15  and  C_16
REMARK    9  A    between atoms: C_18  and  C_19
REMARK   10  A    between atoms: C_21  and  C_24
REMARK   11  A    between atoms: C_24  and  O_25
REMARK                            x       y       z     vdW  Elec       q    Type
REMARK                         _______ _______ _______ _____ _____    ______ ____
ROOT
ATOM      1  C   UNL     1       7.484  -2.621  25.903  0.00  0.00    +0.014 C 
ATOM      2  C   UNL     1       8.678  -2.648  25.285  0.00  0.00    +0.007 C 
ENDROOT
BRANCH   2   3
ATOM      3  C   UNL     1       9.146  -1.632  24.341  0.00  0.00    -0.024 A 
ATOM      4  C   UNL     1       9.600  -2.013  23.075  0.00  0.00    +0.011 A 
ATOM      5  C   UNL     1       9.995  -1.040  22.156  0.00  0.00    +0.039 A 
ATOM      6  C   UNL     1       9.917   0.310  22.495  0.00  0.00    +0.134 A 
ATOM      7  F   UNL     1      10.299   1.211  21.578  0.00  0.00    -0.205 F 
ATOM      8  C   UNL     1       9.439   0.723  23.744  0.00  0.00    +0.056 A 
ATOM      9  C   UNL     1       9.057  -0.271  24.655  0.00  0.00    +0.022 A 
BRANCH   8  10
ATOM     10  C   UNL     1       9.310   2.129  24.101  0.00  0.00    +0.171 A 
ATOM     11  O   UNL     1       8.357   2.424  25.035  0.00  0.00    -0.354 OA
ATOM     12  N   UNL     1       8.321   3.783  25.269  0.00  0.00    -0.071 NA
ATOM     13  C   UNL     1       9.264   4.310  24.471  0.00  0.00    +0.190 A 
ATOM     14  C   UNL     1       9.918   3.302  23.721  0.00  0.00    +0.088 A 
BRANCH  13  15
ATOM     15  C   UNL     1       9.496   5.748  24.456  0.00  0.00    +0.359 C 
ATOM     16  O   UNL     1       9.667   6.400  23.438  0.00  0.00    -0.243 OA
BRANCH  15  17
ATOM     17  O   UNL     1       9.503   6.310  25.697  0.00  0.00    -0.476 OA
ATOM     18  H   UNL     1       8.612   6.196  26.098  0.00  0.00    +0.295 HD
ENDBRANCH  15  17
ENDBRANCH  13  15
ENDBRANCH   8  10
ENDBRANCH   2   3
BRANCH   1  19
ATOM     19  C   UNL     1       7.019  -3.748  26.764  0.00  0.00    +0.256 C 
BRANCH  19  20
ATOM     20  O   UNL     1       7.281  -4.993  26.119  0.00  0.00    -0.487 OA
BRANCH  20  22
ATOM     21  C   UNL     1       5.810  -5.602  24.318  0.00  0.00    +0.142 A 
ATOM     22  C   UNL     1       6.164  -5.669  25.680  0.00  0.00    +0.138 A 
ATOM     23  C   UNL     1       5.317  -6.358  26.567  0.00  0.00    +0.047 A 
ATOM     24  C   UNL     1       4.146  -6.971  26.127  0.00  0.00    +0.007 A 
ATOM     25  C   UNL     1       3.775  -6.867  24.796  0.00  0.00    +0.046 A 
ATOM     26  C   UNL     1       4.591  -6.177  23.903  0.00  0.00    +0.134 A 
BRANCH  21  27
ATOM     27  C   UNL     1       6.674  -5.006  23.267  0.00  0.00    +0.346 C 
ATOM     28  O   UNL     1       7.717  -5.545  22.912  0.00  0.00    -0.245 OA
BRANCH  27  30
ATOM     29  C   UNL     1       6.133  -3.549  21.507  0.00  0.00    +0.280 C 
ATOM     30  O   UNL     1       6.263  -3.766  22.913  0.00  0.00    -0.464 OA
ENDBRANCH  27  30
ENDBRANCH  21  27
BRANCH  26  31
ATOM     31  O   UNL     1       4.120  -6.118  22.615  0.00  0.00    -0.506 OA
ATOM     32  H   UNL     1       3.192  -5.795  22.633  0.00  0.00    +0.292 HD
ENDBRANCH  26  31
ENDBRANCH  20  22
ENDBRANCH  19  20
ENDBRANCH   1  19
TORSDOF 10
ENDMDL
MODEL 9
REMARK VINA RESULT:      -7.1      2.126      3.210
REMARK  Name = 
REMARK  11 active torsions:
REMARK  status: ('A' for Active; 'I' for Inactive)
REMARK    1  A    between atoms: C_1  and  O_2
REMARK    2  A    between atoms: O_2  and  C_3
REMARK    3  A    between atoms: C_3  and  C_5
REMARK    4  A    between atoms: C_6  and  O_7
REMARK    5  A    between atoms: C_11  and  O_12
REMARK    6  A    between atoms: O_12  and  C_13
REMARK    7  A    between atoms: C_13  and  C_14
REMARK    8  A    between atoms: C_15  and  C_16
REMARK    9  A    between atoms: C_18  and  C_19
REMARK   10  A    between atoms: C_21  and  C_24
REMARK   11  A    between atoms: C_24  and  O_25
REMARK                            x       y       z     vdW  Elec       q    Type
REMARK                         _______ _______ _______ _____ _____    ______ ____
ROOT
ATOM      1  C   UNL     1       6.163  -2.722  22.277  0.00  0.00    +0.014 C 
ATOM      2  C   UNL     1       6.561  -1.722  23.084  0.00  0.00    +0.007 C 
ENDROOT
BRANCH   2   3
ATOM      3  C   UNL     1       7.610  -0.757  22.752  0.00  0.00    -0.024 A 
ATOM      4  C   UNL     1       8.573  -1.076  21.790  0.00  0.00    +0.011 A 
ATOM      5  C   UNL     1       9.540  -0.135  21.436  0.00  0.00    +0.039 A 
ATOM      6  C   UNL     1       9.533   1.128  22.027  0.00  0.00    +0.134 A 
ATOM      7  F   UNL     1      10.476   2.004  21.650  0.00  0.00    -0.205 F 
ATOM      8  C   UNL     1       8.565   1.485  22.972  0.00  0.00    +0.056 A 
ATOM      9  C   UNL     1       7.608   0.523  23.320  0.00  0.00    +0.022 A 
BRANCH   8  10
ATOM     10  C   UNL     1       8.514   2.813  23.570  0.00  0.00    +0.171 A 
ATOM     11  O   UNL     1       7.730   3.729  22.927  0.00  0.00    -0.354 OA
ATOM     12  N   UNL     1       7.783   4.945  23.578  0.00  0.00    -0.071 NA
ATOM     13  C   UNL     1       8.606   4.757  24.623  0.00  0.00    +0.190 A 
ATOM     14  C   UNL     1       9.085   3.424  24.661  0.00  0.00    +0.088 A 
BRANCH  13  15
ATOM     15  C   UNL     1       8.900   5.854  25.534  0.00  0.00    +0.359 C 
ATOM     16  O   UNL     1       9.578   6.825  25.234  0.00  0.00    -0.243 OA
BRANCH  15  17
ATOM     17  O   UNL     1       8.343   5.701  26.768  0.00  0.00    -0.476 OA
ATOM     18  H   UNL     1       8.843   6.255  27.408  0.00  0.00    +0.295 HD
ENDBRANCH  15  17
ENDBRANCH  13  15
ENDBRANCH   8  10
ENDBRANCH   2   3
BRANCH   1  19
ATOM     19  C   UNL     1       5.170  -3.743  22.723  0.00  0.00    +0.256 C 
BRANCH  19  20
ATOM     20  O   UNL     1       5.848  -4.908  23.193  0.00  0.00    -0.487 OA
BRANCH  20  22
ATOM     21  C   UNL     1       6.967  -5.207  25.299  0.00  0.00    +0.142 A 
ATOM     22  C   UNL     1       5.776  -5.117  24.553  0.00  0.00    +0.138 A 
ATOM     23  C   UNL     1       4.549  -5.325  25.208  0.00  0.00    +0.047 A 
ATOM     24  C   UNL     1       4.491  -5.616  26.568  0.00  0.00    +0.007 A 
ATOM     25  C   UNL     1       5.664  -5.749  27.293  0.00  0.00    +0.046 A 
ATOM     26  C   UNL     1       6.892  -5.561  26.662  0.00  0.00    +0.134 A 
BRANCH  21  27
ATOM     27  C   UNL     1       8.312  -4.896  24.751  0.00  0.00    +0.346 C 
ATOM     28  O   UNL     1       8.962  -5.730  24.130  0.00  0.00    -0.245 OA
BRANCH  27  30
ATOM     29  C   UNL     1       9.797  -3.117  24.365  0.00  0.00    +0.280 C 
ATOM     30  O   UNL     1       8.766  -3.692  25.171  0.00  0.00    -0.464 OA
ENDBRANCH  27  30
ENDBRANCH  21  27
BRANCH  26  31
ATOM     31  O   UNL     1       7.989  -5.737  27.466  0.00  0.00    -0.506 OA
ATOM     32  H   UNL     1       8.644  -5.033  27.265  0.00  0.00    +0.292 HD
ENDBRANCH  26  31
ENDBRANCH  20  22
ENDBRANCH  19  20
ENDBRANCH   1  19
TORSDOF 10
ENDMDL
