MODEL 1
REMARK VINA RESULT:      -6.9      0.000      0.000
REMARK  Name = 
REMARK  14 active torsions:
REMARK  status: ('A' for Active; 'I' for Inactive)
REMARK    1  A    between atoms: C_1  and  O_2
REMARK    2  A    between atoms: O_2  and  C_3
REMARK    3  A    between atoms: C_4  and  O_5
REMARK    4  A    between atoms: O_5  and  C_6
REMARK    5  A    between atoms: C_8  and  C_9
REMARK    6  A    between atoms: C_9  and  N_10
REMARK    7  A    between atoms: N_10  and  C_11
REMARK    8  A    between atoms: C_11  and  C_12
REMARK    9  A    between atoms: C_12  and  O_13
REMARK   10  A    between atoms: O_13  and  C_14
REMARK   11  A    between atoms: C_14  and  C_15
REMARK   12  A    between atoms: C_15  and  C_16
REMARK   13  A    between atoms: C_22  and  C_23
REMARK   14  A    between atoms: C_22  and  C_24
REMARK                            x       y       z     vdW  Elec       q    Type
REMARK                         _______ _______ _______ _____ _____    ______ ____
ROOT
ATOM      1  N   UNL     1       6.567  -4.463  24.076  0.00  0.00    +0.251 N 
ATOM      2  C   UNL     1       6.505  -3.283  23.049  0.00  0.00    +0.162 C 
ATOM      3  C   UNL     1       6.664  -3.732  21.590  0.00  0.00    +0.210 C 
ATOM      4  O   UNL     1       5.672  -4.703  21.253  0.00  0.00    -0.369 OA
ATOM      5  C   UNL     1       5.850  -5.883  22.036  0.00  0.00    +0.210 C 
ATOM      6  C   UNL     1       5.647  -5.598  23.533  0.00  0.00    +0.162 C 
ENDROOT
BRANCH   1   7
ATOM      7  C   UNL     1       6.049  -3.978  25.481  0.00  0.00    +0.171 C 
BRANCH   7  12
ATOM      8  C   UNL     1       3.713  -6.520  28.068  0.00  0.00    +0.163 A 
ATOM      9  C   UNL     1       3.059  -5.668  27.176  0.00  0.00    +0.065 A 
ATOM     10  C   UNL     1       3.789  -4.864  26.300  0.00  0.00    +0.030 A 
ATOM     11 BR   UNL     1       2.784  -3.706  25.172  0.00  0.00    -0.050 Br
ATOM     12  C   UNL     1       5.192  -4.926  26.278  0.00  0.00    +0.015 A 
ATOM     13  C   UNL     1       5.823  -5.891  27.077  0.00  0.00    +0.059 A 
ATOM     14  C   UNL     1       5.106  -6.645  28.010  0.00  0.00    +0.162 A 
BRANCH   8  16
ATOM     15  C   UNL     1       1.688  -6.916  29.220  0.00  0.00    +0.277 C 
ATOM     16  O   UNL     1       3.049  -7.278  28.998  0.00  0.00    -0.491 OA
ENDBRANCH   8  16
BRANCH  14  17
ATOM     17  O   UNL     1       5.719  -7.486  28.905  0.00  0.00    -0.491 OA
ATOM     18  C   UNL     1       6.370  -6.857  30.004  0.00  0.00    +0.277 C 
ENDBRANCH  14  17
ENDBRANCH   7  12
ENDBRANCH   1   7
BRANCH   1  19
ATOM     19  C   UNL     1       8.055  -4.889  24.256  0.00  0.00    +0.162 C 
BRANCH  19  20
ATOM     20  C   UNL     1       9.000  -3.845  24.903  0.00  0.00    +0.210 C 
BRANCH  20  21
ATOM     21  O   UNL     1      10.044  -3.358  24.067  0.00  0.00    -0.375 OA
BRANCH  21  22
ATOM     22  C   UNL     1       9.950  -1.994  23.663  0.00  0.00    +0.160 C 
BRANCH  22  23
ATOM     23  C   UNL     1       9.181  -1.095  24.619  0.00  0.00    +0.032 C 
BRANCH  23  24
ATOM     24  C   UNL     1       8.557   0.133  23.933  0.00  0.00    -0.005 C 
ATOM     25  C   UNL     1       9.185   1.468  24.409  0.00  0.00    -0.002 C 
ATOM     26  C   UNL     1       8.932   2.749  23.499  0.00  0.00    -0.029 C 
ATOM     27  C   UNL     1       9.301   4.099  24.156  0.00  0.00    +0.011 C 
ATOM     28  C   UNL     1       7.554   2.935  22.862  0.00  0.00    +0.011 C 
ATOM     29  C   UNL     1      10.091   2.108  22.628  0.00  0.00    -0.005 C 
ATOM     30  C   UNL     1       9.757   0.892  21.754  0.00  0.00    +0.004 C 
ATOM     31  C   UNL     1      10.680   1.595  23.971  0.00  0.00    +0.008 C 
ATOM     32  C   UNL     1       8.709  -0.022  22.402  0.00  0.00    +0.004 C 
ENDBRANCH  23  24
ENDBRANCH  22  23
ENDBRANCH  21  22
ENDBRANCH  20  21
ENDBRANCH  19  20
ENDBRANCH   1  19
TORSDOF 10
ENDMDL
MODEL 2
REMARK VINA RESULT:      -6.8      2.482      4.299
REMARK  Name = 
REMARK  14 active torsions:
REMARK  status: ('A' for Active; 'I' for Inactive)
REMARK    1  A    between atoms: C_1  and  O_2
REMARK    2  A    between atoms: O_2  and  C_3
REMARK    3  A    between atoms: C_4  and  O_5
REMARK    4  A    between atoms: O_5  and  C_6
REMARK    5  A    between atoms: C_8  and  C_9
REMARK    6  A    between atoms: C_9  and  N_10
REMARK    7  A    between atoms: N_10  and  C_11
REMARK    8  A    between atoms: C_11  and  C_12
REMARK    9  A    between atoms: C_12  and  O_13
REMARK   10  A    between atoms: O_13  and  C_14
REMARK   11  A    between atoms: C_14  and  C_15
REMARK   12  A    between atoms: C_15  and  C_16
REMARK   13  A    between atoms: C_22  and  C_23
REMARK   14  A    between atoms: C_22  and  C_24
REMARK                            x       y       z     vdW  Elec       q    Type
REMARK                         _______ _______ _______ _____ _____    ______ ____
ROOT
ATOM      1  N   UNL     1       7.823  -2.414  25.470  0.00  0.00    +0.251 N 
ATOM      2  C   UNL     1       8.655  -1.871  26.680  0.00  0.00    +0.162 C 
ATOM      3  C   UNL     1       8.269  -0.445  27.096  0.00  0.00    +0.210 C 
ATOM      4  O   UNL     1       6.878  -0.373  27.410  0.00  0.00    -0.369 OA
ATOM      5  C   UNL     1       6.094  -0.654  26.250  0.00  0.00    +0.210 C 
ATOM      6  C   UNL     1       6.326  -2.092  25.754  0.00  0.00    +0.162 C 
ENDROOT
BRANCH   1   7
ATOM      7  C   UNL     1       8.023  -3.969  25.337  0.00  0.00    +0.171 C 
BRANCH   7  12
ATOM      8  C   UNL     1       4.775  -6.606  24.281  0.00  0.00    +0.163 A 
ATOM      9  C   UNL     1       5.108  -6.437  25.627  0.00  0.00    +0.065 A 
ATOM     10  C   UNL     1       6.127  -5.561  26.000  0.00  0.00    +0.030 A 
ATOM     11 BR   UNL     1       6.523  -5.459  27.859  0.00  0.00    -0.050 Br
ATOM     12  C   UNL     1       6.810  -4.809  25.030  0.00  0.00    +0.015 A 
ATOM     13  C   UNL     1       6.365  -4.883  23.702  0.00  0.00    +0.059 A 
ATOM     14  C   UNL     1       5.398  -5.813  23.310  0.00  0.00    +0.162 A 
BRANCH   8  16
ATOM     15  C   UNL     1       2.486  -7.183  24.190  0.00  0.00    +0.277 C 
ATOM     16  O   UNL     1       3.833  -7.506  23.853  0.00  0.00    -0.491 OA
ENDBRANCH   8  16
BRANCH  14  17
ATOM     17  O   UNL     1       5.054  -6.007  21.996  0.00  0.00    -0.491 OA
ATOM     18  C   UNL     1       6.100  -5.834  21.046  0.00  0.00    +0.277 C 
ENDBRANCH  14  17
ENDBRANCH   7  12
ENDBRANCH   1   7
BRANCH   1  19
ATOM     19  C   UNL     1       8.369  -1.767  24.160  0.00  0.00    +0.162 C 
BRANCH  19  20
ATOM     20  C   UNL     1       9.704  -2.334  23.614  0.00  0.00    +0.210 C 
BRANCH  20  21
ATOM     21  O   UNL     1      10.091  -1.866  22.326  0.00  0.00    -0.375 OA
BRANCH  21  22
ATOM     22  C   UNL     1      10.314  -0.464  22.200  0.00  0.00    +0.160 C 
BRANCH  22  23
ATOM     23  C   UNL     1       9.312   0.266  21.319  0.00  0.00    +0.032 C 
BRANCH  23  24
ATOM     24  C   UNL     1       9.012   1.699  21.795  0.00  0.00    -0.005 C 
ATOM     25  C   UNL     1       7.493   1.995  21.881  0.00  0.00    -0.002 C 
ATOM     26  C   UNL     1       7.053   3.263  22.736  0.00  0.00    -0.029 C 
ATOM     27  C   UNL     1       5.583   3.702  22.543  0.00  0.00    +0.011 C 
ATOM     28  C   UNL     1       7.902   4.533  22.655  0.00  0.00    +0.011 C 
ATOM     29  C   UNL     1       7.285   2.271  23.950  0.00  0.00    -0.005 C 
ATOM     30  C   UNL     1       8.727   1.957  24.368  0.00  0.00    +0.004 C 
ATOM     31  C   UNL     1       6.798   1.147  22.995  0.00  0.00    +0.008 C 
ATOM     32  C   UNL     1       9.686   1.917  23.170  0.00  0.00    +0.004 C 
ENDBRANCH  23  24
ENDBRANCH  22  23
ENDBRANCH  21  22
ENDBRANCH  20  21
ENDBRANCH  19  20
ENDBRANCH   1  19
TORSDOF 10
ENDMDL
MODEL 3
REMARK VINA RESULT:      -6.8      1.896      2.615
REMARK  Name = 
REMARK  14 active torsions:
REMARK  status: ('A' for Active; 'I' for Inactive)
REMARK    1  A    between atoms: C_1  and  O_2
REMARK    2  A    between atoms: O_2  and  C_3
REMARK    3  A    between atoms: C_4  and  O_5
REMARK    4  A    between atoms: O_5  and  C_6
REMARK    5  A    between atoms: C_8  and  C_9
REMARK    6  A    between atoms: C_9  and  N_10
REMARK    7  A    between atoms: N_10  and  C_11
REMARK    8  A    between atoms: C_11  and  C_12
REMARK    9  A    between atoms: C_12  and  O_13
REMARK   10  A    between atoms: O_13  and  C_14
REMARK   11  A    between atoms: C_14  and  C_15
REMARK   12  A    between atoms: C_15  and  C_16
REMARK   13  A    between atoms: C_22  and  C_23
REMARK   14  A    between atoms: C_22  and  C_24
REMARK                            x       y       z     vdW  Elec       q    Type
REMARK                         _______ _______ _______ _____ _____    ______ ____
ROOT
ATOM      1  N   UNL     1       6.776  -4.740  24.073  0.00  0.00    +0.251 N 
ATOM      2  C   UNL     1       5.613  -3.705  23.913  0.00  0.00    +0.162 C 
ATOM      3  C   UNL     1       5.572  -3.040  22.530  0.00  0.00    +0.210 C 
ATOM      4  O   UNL     1       5.470  -4.026  21.503  0.00  0.00    -0.369 OA
ATOM      5  C   UNL     1       6.635  -4.851  21.492  0.00  0.00    +0.210 C 
ATOM      6  C   UNL     1       6.770  -5.643  22.804  0.00  0.00    +0.162 C 
ENDROOT
BRANCH   1   7
ATOM      7  C   UNL     1       6.539  -5.618  25.358  0.00  0.00    +0.171 C 
BRANCH   7  12
ATOM      8  C   UNL     1       2.601  -6.976  26.482  0.00  0.00    +0.163 A 
ATOM      9  C   UNL     1       3.171  -5.896  27.159  0.00  0.00    +0.065 A 
ATOM     10  C   UNL     1       4.426  -5.410  26.791  0.00  0.00    +0.030 A 
ATOM     11 BR   UNL     1       5.117  -3.970  27.826  0.00  0.00    -0.050 Br
ATOM     12  C   UNL     1       5.119  -5.979  25.710  0.00  0.00    +0.015 A 
ATOM     13  C   UNL     1       4.470  -6.964  24.953  0.00  0.00    +0.059 A 
ATOM     14  C   UNL     1       3.249  -7.507  25.359  0.00  0.00    +0.162 A 
BRANCH   8  16
ATOM     15  C   UNL     1       1.193  -7.662  28.251  0.00  0.00    +0.277 C 
ATOM     16  O   UNL     1       1.405  -7.539  26.847  0.00  0.00    -0.491 OA
ENDBRANCH   8  16
BRANCH  14  17
ATOM     17  O   UNL     1       2.666  -8.573  24.719  0.00  0.00    -0.491 OA
ATOM     18  C   UNL     1       1.822  -8.251  23.619  0.00  0.00    +0.277 C 
ENDBRANCH  14  17
ENDBRANCH   7  12
ENDBRANCH   1   7
BRANCH   1  19
ATOM     19  C   UNL     1       8.109  -3.962  24.288  0.00  0.00    +0.162 C 
BRANCH  19  20
ATOM     20  C   UNL     1       8.819  -4.170  25.649  0.00  0.00    +0.210 C 
BRANCH  20  21
ATOM     21  O   UNL     1       8.761  -3.067  26.548  0.00  0.00    -0.375 OA
BRANCH  21  22
ATOM     22  C   UNL     1       7.934  -1.973  26.160  0.00  0.00    +0.160 C 
BRANCH  22  23
ATOM     23  C   UNL     1       8.663  -0.651  25.982  0.00  0.00    +0.032 C 
BRANCH  23  24
ATOM     24  C   UNL     1       9.016  -0.341  24.516  0.00  0.00    -0.005 C 
ATOM     25  C   UNL     1       8.190   0.836  23.938  0.00  0.00    -0.002 C 
ATOM     26  C   UNL     1       8.736   1.513  22.605  0.00  0.00    -0.029 C 
ATOM     27  C   UNL     1       7.737   2.458  21.897  0.00  0.00    +0.011 C 
ATOM     28  C   UNL     1       9.334   0.618  21.519  0.00  0.00    +0.011 C 
ATOM     29  C   UNL     1       9.717   2.238  23.617  0.00  0.00    -0.005 C 
ATOM     30  C   UNL     1      10.888   1.435  24.196  0.00  0.00    +0.004 C 
ATOM     31  C   UNL     1       8.543   2.190  24.634  0.00  0.00    +0.008 C 
ATOM     32  C   UNL     1      10.529  -0.040  24.422  0.00  0.00    +0.004 C 
ENDBRANCH  23  24
ENDBRANCH  22  23
ENDBRANCH  21  22
ENDBRANCH  20  21
ENDBRANCH  19  20
ENDBRANCH   1  19
TORSDOF 10
ENDMDL
MODEL 4
REMARK VINA RESULT:      -6.7      2.134      3.400
REMARK  Name = 
REMARK  14 active torsions:
REMARK  status: ('A' for Active; 'I' for Inactive)
REMARK    1  A    between atoms: C_1  and  O_2
REMARK    2  A    between atoms: O_2  and  C_3
REMARK    3  A    between atoms: C_4  and  O_5
REMARK    4  A    between atoms: O_5  and  C_6
REMARK    5  A    between atoms: C_8  and  C_9
REMARK    6  A    between atoms: C_9  and  N_10
REMARK    7  A    between atoms: N_10  and  C_11
REMARK    8  A    between atoms: C_11  and  C_12
REMARK    9  A    between atoms: C_12  and  O_13
REMARK   10  A    between atoms: O_13  and  C_14
REMARK   11  A    between atoms: C_14  and  C_15
REMARK   12  A    between atoms: C_15  and  C_16
REMARK   13  A    between atoms: C_22  and  C_23
REMARK   14  A    between atoms: C_22  and  C_24
REMARK                            x       y       z     vdW  Elec       q    Type
REMARK                         _______ _______ _______ _____ _____    ______ ____
ROOT
ATOM      1  N   UNL     1       7.438  -2.602  24.860  0.00  0.00    +0.251 N 
ATOM      2  C   UNL     1       8.073  -2.244  26.245  0.00  0.00    +0.162 C 
ATOM      3  C   UNL     1       7.513  -0.955  26.860  0.00  0.00    +0.210 C 
ATOM      4  O   UNL     1       6.095  -1.040  27.000  0.00  0.00    -0.369 OA
ATOM      5  C   UNL     1       5.477  -1.148  25.718  0.00  0.00    +0.210 C 
ATOM      6  C   UNL     1       5.894  -2.445  25.004  0.00  0.00    +0.162 C 
ENDROOT
BRANCH   1   7
ATOM      7  C   UNL     1       7.793  -4.086  24.475  0.00  0.00    +0.171 C 
BRANCH   7  12
ATOM      8  C   UNL     1       4.562  -6.843  25.236  0.00  0.00    +0.163 A 
ATOM      9  C   UNL     1       4.823  -6.442  23.925  0.00  0.00    +0.065 A 
ATOM     10  C   UNL     1       5.886  -5.583  23.644  0.00  0.00    +0.030 A 
ATOM     11 BR   UNL     1       6.104  -5.066  21.825  0.00  0.00    -0.050 Br
ATOM     12  C   UNL     1       6.731  -5.136  24.673  0.00  0.00    +0.015 A 
ATOM     13  C   UNL     1       6.542  -5.664  25.959  0.00  0.00    +0.059 A 
ATOM     14  C   UNL     1       5.437  -6.464  26.262  0.00  0.00    +0.162 A 
BRANCH   8  16
ATOM     15  C   UNL     1       2.216  -6.998  25.468  0.00  0.00    +0.277 C 
ATOM     16  O   UNL     1       3.491  -7.627  25.577  0.00  0.00    -0.491 OA
ENDBRANCH   8  16
BRANCH  14  17
ATOM     17  O   UNL     1       5.149  -6.869  27.541  0.00  0.00    -0.491 OA
ATOM     18  C   UNL     1       5.775  -6.128  28.584  0.00  0.00    +0.277 C 
ENDBRANCH  14  17
ENDBRANCH   7  12
ENDBRANCH   1   7
BRANCH   1  19
ATOM     19  C   UNL     1       8.066  -1.682  23.771  0.00  0.00    +0.162 C 
BRANCH  19  20
ATOM     20  C   UNL     1       8.804  -2.392  22.607  0.00  0.00    +0.210 C 
BRANCH  20  21
ATOM     21  O   UNL     1       9.994  -1.756  22.154  0.00  0.00    -0.375 OA
BRANCH  21  22
ATOM     22  C   UNL     1      10.251  -0.449  22.663  0.00  0.00    +0.160 C 
BRANCH  22  23
ATOM     23  C   UNL     1       9.859   0.687  21.731  0.00  0.00    +0.032 C 
BRANCH  23  24
ATOM     24  C   UNL     1       9.707   2.040  22.451  0.00  0.00    -0.005 C 
ATOM     25  C   UNL     1       8.371   2.750  22.113  0.00  0.00    -0.002 C 
ATOM     26  C   UNL     1       7.912   3.923  23.086  0.00  0.00    -0.029 C 
ATOM     27  C   UNL     1       6.757   4.801  22.550  0.00  0.00    +0.011 C 
ATOM     28  C   UNL     1       8.972   4.881  23.630  0.00  0.00    +0.011 C 
ATOM     29  C   UNL     1       7.444   2.711  23.995  0.00  0.00    -0.005 C 
ATOM     30  C   UNL     1       8.513   1.920  24.758  0.00  0.00    +0.004 C 
ATOM     31  C   UNL     1       7.139   1.964  22.668  0.00  0.00    +0.008 C 
ATOM     32  C   UNL     1       9.828   1.809  23.975  0.00  0.00    +0.004 C 
ENDBRANCH  23  24
ENDBRANCH  22  23
ENDBRANCH  21  22
ENDBRANCH  20  21
ENDBRANCH  19  20
ENDBRANCH   1  19
TORSDOF 10
ENDMDL
MODEL 5
REMARK VINA RESULT:      -6.7      2.370      2.749
REMARK  Name = 
REMARK  14 active torsions:
REMARK  status: ('A' for Active; 'I' for Inactive)
REMARK    1  A    between atoms: C_1  and  O_2
REMARK    2  A    between atoms: O_2  and  C_3
REMARK    3  A    between atoms: C_4  and  O_5
REMARK    4  A    between atoms: O_5  and  C_6
REMARK    5  A    between atoms: C_8  and  C_9
REMARK    6  A    between atoms: C_9  and  N_10
REMARK    7  A    between atoms: N_10  and  C_11
REMARK    8  A    between atoms: C_11  and  C_12
REMARK    9  A    between atoms: C_12  and  O_13
REMARK   10  A    between atoms: O_13  and  C_14
REMARK   11  A    between atoms: C_14  and  C_15
REMARK   12  A    between atoms: C_15  and  C_16
REMARK   13  A    between atoms: C_22  and  C_23
REMARK   14  A    between atoms: C_22  and  C_24
REMARK                            x       y       z     vdW  Elec       q    Type
REMARK                         _______ _______ _______ _____ _____    ______ ____
ROOT
ATOM      1  N   UNL     1       6.493  -5.060  23.729  0.00  0.00    +0.251 N 
ATOM      2  C   UNL     1       6.134  -3.611  23.259  0.00  0.00    +0.162 C 
ATOM      3  C   UNL     1       6.475  -3.343  21.786  0.00  0.00    +0.210 C 
ATOM      4  O   UNL     1       5.820  -4.289  20.940  0.00  0.00    -0.369 OA
ATOM      5  C   UNL     1       6.300  -5.607  21.207  0.00  0.00    +0.210 C 
ATOM      6  C   UNL     1       5.963  -6.044  22.642  0.00  0.00    +0.162 C 
ENDROOT
BRANCH   1   7
ATOM      7  C   UNL     1       5.801  -5.363  25.110  0.00  0.00    +0.171 C 
BRANCH   7  12
ATOM      8  C   UNL     1       3.325  -2.122  26.517  0.00  0.00    +0.163 A 
ATOM      9  C   UNL     1       2.742  -3.162  25.790  0.00  0.00    +0.065 A 
ATOM     10  C   UNL     1       3.510  -4.242  25.357  0.00  0.00    +0.030 A 
ATOM     11 BR   UNL     1       2.611  -5.567  24.329  0.00  0.00    -0.050 Br
ATOM     12  C   UNL     1       4.876  -4.317  25.676  0.00  0.00    +0.015 A 
ATOM     13  C   UNL     1       5.411  -3.339  26.527  0.00  0.00    +0.059 A 
ATOM     14  C   UNL     1       4.668  -2.216  26.902  0.00  0.00    +0.162 A 
BRANCH   8  16
ATOM     15  C   UNL     1       1.715  -1.197  27.979  0.00  0.00    +0.277 C 
ATOM     16  O   UNL     1       2.633  -1.004  26.906  0.00  0.00    -0.491 OA
ENDBRANCH   8  16
BRANCH  14  17
ATOM     17  O   UNL     1       5.214  -1.175  27.611  0.00  0.00    -0.491 OA
ATOM     18  C   UNL     1       6.178  -0.389  26.918  0.00  0.00    +0.277 C 
ENDBRANCH  14  17
ENDBRANCH   7  12
ENDBRANCH   1   7
BRANCH   1  19
ATOM     19  C   UNL     1       8.032  -5.143  23.958  0.00  0.00    +0.162 C 
BRANCH  19  20
ATOM     20  C   UNL     1       8.687  -3.947  24.692  0.00  0.00    +0.210 C 
BRANCH  20  21
ATOM     21  O   UNL     1       9.894  -3.456  24.117  0.00  0.00    -0.375 OA
BRANCH  21  22
ATOM     22  C   UNL     1       9.893  -2.091  23.707  0.00  0.00    +0.160 C 
BRANCH  22  23
ATOM     23  C   UNL     1       9.173  -1.140  24.651  0.00  0.00    +0.032 C 
BRANCH  23  24
ATOM     24  C   UNL     1       8.557   0.076  23.937  0.00  0.00    -0.005 C 
ATOM     25  C   UNL     1       9.171   1.420  24.406  0.00  0.00    -0.002 C 
ATOM     26  C   UNL     1       8.929   2.687  23.474  0.00  0.00    -0.029 C 
ATOM     27  C   UNL     1       9.281   4.048  24.120  0.00  0.00    +0.011 C 
ATOM     28  C   UNL     1       7.562   2.860  22.811  0.00  0.00    +0.011 C 
ATOM     29  C   UNL     1      10.106   2.039  22.632  0.00  0.00    -0.005 C 
ATOM     30  C   UNL     1       9.791   0.811  21.769  0.00  0.00    +0.004 C 
ATOM     31  C   UNL     1      10.673   1.547  23.992  0.00  0.00    +0.008 C 
ATOM     32  C   UNL     1       8.736  -0.099  22.411  0.00  0.00    +0.004 C 
ENDBRANCH  23  24
ENDBRANCH  22  23
ENDBRANCH  21  22
ENDBRANCH  20  21
ENDBRANCH  19  20
ENDBRANCH   1  19
TORSDOF 10
ENDMDL
MODEL 6
REMARK VINA RESULT:      -6.6      2.313      3.655
REMARK  Name = 
REMARK  14 active torsions:
REMARK  status: ('A' for Active; 'I' for Inactive)
REMARK    1  A    between atoms: C_1  and  O_2
REMARK    2  A    between atoms: O_2  and  C_3
REMARK    3  A    between atoms: C_4  and  O_5
REMARK    4  A    between atoms: O_5  and  C_6
REMARK    5  A    between atoms: C_8  and  C_9
REMARK    6  A    between atoms: C_9  and  N_10
REMARK    7  A    between atoms: N_10  and  C_11
REMARK    8  A    between atoms: C_11  and  C_12
REMARK    9  A    between atoms: C_12  and  O_13
REMARK   10  A    between atoms: O_13  and  C_14
REMARK   11  A    between atoms: C_14  and  C_15
REMARK   12  A    between atoms: C_15  and  C_16
REMARK   13  A    between atoms: C_22  and  C_23
REMARK   14  A    between atoms: C_22  and  C_24
REMARK                            x       y       z     vdW  Elec       q    Type
REMARK                         _______ _______ _______ _____ _____    ______ ____
ROOT
ATOM      1  N   UNL     1       7.423  -3.338  25.229  0.00  0.00    +0.251 N 
ATOM      2  C   UNL     1       8.297  -2.954  23.988  0.00  0.00    +0.162 C 
ATOM      3  C   UNL     1       9.803  -3.132  24.222  0.00  0.00    +0.210 C 
ATOM      4  O   UNL     1      10.095  -4.475  24.608  0.00  0.00    -0.369 OA
ATOM      5  C   UNL     1       9.479  -4.775  25.860  0.00  0.00    +0.210 C 
ATOM      6  C   UNL     1       7.946  -4.706  25.759  0.00  0.00    +0.162 C 
ENDROOT
BRANCH   1   7
ATOM      7  C   UNL     1       5.914  -3.468  24.803  0.00  0.00    +0.171 C 
BRANCH   7  12
ATOM      8  C   UNL     1       3.789  -7.221  24.941  0.00  0.00    +0.163 A 
ATOM      9  C   UNL     1       4.559  -6.913  23.818  0.00  0.00    +0.065 A 
ATOM     10  C   UNL     1       5.288  -5.725  23.762  0.00  0.00    +0.030 A 
ATOM     11 BR   UNL     1       6.254  -5.395  22.156  0.00  0.00    -0.050 Br
ATOM     12  C   UNL     1       5.286  -4.837  24.851  0.00  0.00    +0.015 A 
ATOM     13  C   UNL     1       4.626  -5.231  26.024  0.00  0.00    +0.059 A 
ATOM     14  C   UNL     1       3.833  -6.381  26.061  0.00  0.00    +0.162 A 
BRANCH   8  16
ATOM     15  C   UNL     1       1.894  -8.368  24.118  0.00  0.00    +0.277 C 
ATOM     16  O   UNL     1       2.998  -8.338  25.020  0.00  0.00    -0.491 OA
ENDBRANCH   8  16
BRANCH  14  17
ATOM     17  O   UNL     1       3.060  -6.708  27.146  0.00  0.00    -0.491 OA
ATOM     18  C   UNL     1       3.718  -6.684  28.409  0.00  0.00    +0.277 C 
ENDBRANCH  14  17
ENDBRANCH   7  12
ENDBRANCH   1   7
BRANCH   1  19
ATOM     19  C   UNL     1       7.507  -2.184  26.274  0.00  0.00    +0.162 C 
BRANCH  19  20
ATOM     20  C   UNL     1       6.161  -1.567  26.732  0.00  0.00    +0.210 C 
BRANCH  20  21
ATOM     21  O   UNL     1       6.104  -0.144  26.734  0.00  0.00    -0.375 OA
BRANCH  21  22
ATOM     22  C   UNL     1       5.461   0.468  25.619  0.00  0.00    +0.160 C 
BRANCH  22  23
ATOM     23  C   UNL     1       6.219   1.634  25.005  0.00  0.00    +0.032 C 
BRANCH  23  24
ATOM     24  C   UNL     1       7.706   1.329  24.752  0.00  0.00    -0.005 C 
ATOM     25  C   UNL     1       7.956   0.679  23.367  0.00  0.00    -0.002 C 
ATOM     26  C   UNL     1       9.451   0.697  22.821  0.00  0.00    -0.029 C 
ATOM     27  C   UNL     1       9.713  -0.221  21.604  0.00  0.00    +0.011 C 
ATOM     28  C   UNL     1      10.594   0.452  23.806  0.00  0.00    +0.011 C 
ATOM     29  C   UNL     1       9.080   2.192  22.445  0.00  0.00    -0.005 C 
ATOM     30  C   UNL     1       9.026   3.233  23.569  0.00  0.00    +0.004 C 
ATOM     31  C   UNL     1       7.639   1.666  22.196  0.00  0.00    +0.008 C 
ATOM     32  C   UNL     1       8.514   2.640  24.889  0.00  0.00    +0.004 C 
ENDBRANCH  23  24
ENDBRANCH  22  23
ENDBRANCH  21  22
ENDBRANCH  20  21
ENDBRANCH  19  20
ENDBRANCH   1  19
TORSDOF 10
ENDMDL
MODEL 7
REMARK VINA RESULT:      -6.4      2.714      3.727
REMARK  Name = 
REMARK  14 active torsions:
REMARK  status: ('A' for Active; 'I' for Inactive)
REMARK    1  A    between atoms: C_1  and  O_2
REMARK    2  A    between atoms: O_2  and  C_3
REMARK    3  A    between atoms: C_4  and  O_5
REMARK    4  A    between atoms: O_5  and  C_6
REMARK    5  A    between atoms: C_8  and  C_9
REMARK    6  A    between atoms: C_9  and  N_10
REMARK    7  A    between atoms: N_10  and  C_11
REMARK    8  A    between atoms: C_11  and  C_12
REMARK    9  A    between atoms: C_12  and  O_13
REMARK   10  A    between atoms: O_13  and  C_14
REMARK   11  A    between atoms: C_14  and  C_15
REMARK   12  A    between atoms: C_15  and  C_16
REMARK   13  A    between atoms: C_22  and  C_23
REMARK   14  A    between atoms: C_22  and  C_24
REMARK                            x       y       z     vdW  Elec       q    Type
REMARK                         _______ _______ _______ _____ _____    ______ ____
ROOT
ATOM      1  N   UNL     1       7.410  -3.971  23.612  0.00  0.00    +0.251 N 
ATOM      2  C   UNL     1       5.899  -3.584  23.475  0.00  0.00    +0.162 C 
ATOM      3  C   UNL     1       5.307  -3.910  22.097  0.00  0.00    +0.210 C 
ATOM      4  O   UNL     1       5.467  -5.297  21.798  0.00  0.00    -0.369 OA
ATOM      5  C   UNL     1       6.853  -5.625  21.702  0.00  0.00    +0.210 C 
ATOM      6  C   UNL     1       7.572  -5.413  23.045  0.00  0.00    +0.162 C 
ENDROOT
BRANCH   1   7
ATOM      7  C   UNL     1       7.837  -3.939  25.126  0.00  0.00    +0.171 C 
BRANCH   7  12
ATOM      8  C   UNL     1       5.115  -1.683  27.600  0.00  0.00    +0.163 A 
ATOM      9  C   UNL     1       5.031  -3.077  27.586  0.00  0.00    +0.065 A 
ATOM     10  C   UNL     1       5.923  -3.834  26.827  0.00  0.00    +0.030 A 
ATOM     11 BR   UNL     1       5.671  -5.720  26.848  0.00  0.00    -0.050 Br
ATOM     12  C   UNL     1       6.942  -3.206  26.092  0.00  0.00    +0.015 A 
ATOM     13  C   UNL     1       7.101  -1.820  26.233  0.00  0.00    +0.059 A 
ATOM     14  C   UNL     1       6.167  -1.047  26.930  0.00  0.00    +0.162 A 
BRANCH   8  16
ATOM     15  C   UNL     1       3.782  -1.393  29.529  0.00  0.00    +0.277 C 
ATOM     16  O   UNL     1       4.221  -0.888  28.271  0.00  0.00    -0.491 OA
ENDBRANCH   8  16
BRANCH  14  17
ATOM     17  O   UNL     1       6.219   0.324  26.957  0.00  0.00    -0.491 OA
ATOM     18  C   UNL     1       7.190   0.893  27.830  0.00  0.00    +0.277 C 
ENDBRANCH  14  17
ENDBRANCH   7  12
ENDBRANCH   1   7
BRANCH   1  19
ATOM     19  C   UNL     1       8.267  -2.902  22.869  0.00  0.00    +0.162 C 
BRANCH  19  20
ATOM     20  C   UNL     1       9.636  -2.551  23.505  0.00  0.00    +0.210 C 
BRANCH  20  21
ATOM     21  O   UNL     1      10.568  -1.905  22.644  0.00  0.00    -0.375 OA
BRANCH  21  22
ATOM     22  C   UNL     1      10.524  -0.480  22.615  0.00  0.00    +0.160 C 
BRANCH  22  23
ATOM     23  C   UNL     1       9.643   0.110  21.524  0.00  0.00    +0.032 C 
BRANCH  23  24
ATOM     24  C   UNL     1       9.117   1.517  21.860  0.00  0.00    -0.005 C 
ATOM     25  C   UNL     1       7.576   1.559  22.014  0.00  0.00    -0.002 C 
ATOM     26  C   UNL     1       6.959   2.826  22.753  0.00  0.00    -0.029 C 
ATOM     27  C   UNL     1       5.427   2.982  22.611  0.00  0.00    +0.011 C 
ATOM     28  C   UNL     1       7.565   4.203  22.477  0.00  0.00    +0.011 C 
ATOM     29  C   UNL     1       7.418   2.040  24.050  0.00  0.00    -0.005 C 
ATOM     30  C   UNL     1       8.911   2.027  24.402  0.00  0.00    +0.004 C 
ATOM     31  C   UNL     1       7.093   0.743  23.257  0.00  0.00    +0.008 C 
ATOM     32  C   UNL     1       9.805   2.009  23.155  0.00  0.00    +0.004 C 
ENDBRANCH  23  24
ENDBRANCH  22  23
ENDBRANCH  21  22
ENDBRANCH  20  21
ENDBRANCH  19  20
ENDBRANCH   1  19
TORSDOF 10
ENDMDL
MODEL 8
REMARK VINA RESULT:      -6.4      2.126      2.623
REMARK  Name = 
REMARK  14 active torsions:
REMARK  status: ('A' for Active; 'I' for Inactive)
REMARK    1  A    between atoms: C_1  and  O_2
REMARK    2  A    between atoms: O_2  and  C_3
REMARK    3  A    between atoms: C_4  and  O_5
REMARK    4  A    between atoms: O_5  and  C_6
REMARK    5  A    between atoms: C_8  and  C_9
REMARK    6  A    between atoms: C_9  and  N_10
REMARK    7  A    between atoms: N_10  and  C_11
REMARK    8  A    between atoms: C_11  and  C_12
REMARK    9  A    between atoms: C_12  and  O_13
REMARK   10  A    between atoms: O_13  and  C_14
REMARK   11  A    between atoms: C_14  and  C_15
REMARK   12  A    between atoms: C_15  and  C_16
REMARK   13  A    between atoms: C_22  and  C_23
REMARK   14  A    between atoms: C_22  and  C_24
REMARK                            x       y       z     vdW  Elec       q    Type
REMARK                         _______ _______ _______ _____ _____    ______ ____
ROOT
ATOM      1  N   UNL     1       6.613  -4.947  23.895  0.00  0.00    +0.251 N 
ATOM      2  C   UNL     1       6.307  -3.499  23.386  0.00  0.00    +0.162 C 
ATOM      3  C   UNL     1       6.516  -3.324  21.876  0.00  0.00    +0.210 C 
ATOM      4  O   UNL     1       5.719  -4.258  21.148  0.00  0.00    -0.369 OA
ATOM      5  C   UNL     1       6.134  -5.593  21.436  0.00  0.00    +0.210 C 
ATOM      6  C   UNL     1       5.914  -5.939  22.918  0.00  0.00    +0.162 C 
ENDROOT
BRANCH   1   7
ATOM      7  C   UNL     1       6.044  -5.135  25.350  0.00  0.00    +0.171 C 
BRANCH   7  12
ATOM      8  C   UNL     1       2.327  -3.345  26.612  0.00  0.00    +0.163 A 
ATOM      9  C   UNL     1       3.524  -2.656  26.823  0.00  0.00    +0.065 A 
ATOM     10  C   UNL     1       4.736  -3.192  26.390  0.00  0.00    +0.030 A 
ATOM     11 BR   UNL     1       6.301  -2.184  26.784  0.00  0.00    -0.050 Br
ATOM     12  C   UNL     1       4.767  -4.418  25.704  0.00  0.00    +0.015 A 
ATOM     13  C   UNL     1       3.546  -5.022  25.374  0.00  0.00    +0.059 A 
ATOM     14  C   UNL     1       2.334  -4.532  25.869  0.00  0.00    +0.162 A 
BRANCH   8  16
ATOM     15  C   UNL     1       0.450  -1.959  26.240  0.00  0.00    +0.277 C 
ATOM     16  O   UNL     1       1.117  -2.899  27.079  0.00  0.00    -0.491 OA
ENDBRANCH   8  16
BRANCH  14  17
ATOM     17  O   UNL     1       1.143  -5.188  25.685  0.00  0.00    -0.491 OA
ATOM     18  C   UNL     1       1.234  -6.593  25.468  0.00  0.00    +0.277 C 
ENDBRANCH  14  17
ENDBRANCH   7  12
ENDBRANCH   1   7
BRANCH   1  19
ATOM     19  C   UNL     1       8.159  -5.129  23.979  0.00  0.00    +0.162 C 
BRANCH  19  20
ATOM     20  C   UNL     1       8.934  -4.079  24.814  0.00  0.00    +0.210 C 
BRANCH  20  21
ATOM     21  O   UNL     1      10.054  -3.483  24.167  0.00  0.00    -0.375 OA
BRANCH  21  22
ATOM     22  C   UNL     1       9.853  -2.183  23.618  0.00  0.00    +0.160 C 
BRANCH  22  23
ATOM     23  C   UNL     1       9.492  -1.109  24.632  0.00  0.00    +0.032 C 
BRANCH  23  24
ATOM     24  C   UNL     1       8.728   0.078  24.018  0.00  0.00    -0.005 C 
ATOM     25  C   UNL     1       9.265   1.449  24.503  0.00  0.00    -0.002 C 
ATOM     26  C   UNL     1       8.853   2.727  23.648  0.00  0.00    -0.029 C 
ATOM     27  C   UNL     1       9.140   4.087  24.327  0.00  0.00    +0.011 C 
ATOM     28  C   UNL     1       7.432   2.809  23.090  0.00  0.00    +0.011 C 
ATOM     29  C   UNL     1      10.014   2.214  22.698  0.00  0.00    -0.005 C 
ATOM     30  C   UNL     1       9.738   0.998  21.805  0.00  0.00    +0.004 C 
ATOM     31  C   UNL     1      10.717   1.719  23.992  0.00  0.00    +0.008 C 
ATOM     32  C   UNL     1       8.809  -0.022  22.478  0.00  0.00    +0.004 C 
ENDBRANCH  23  24
ENDBRANCH  22  23
ENDBRANCH  21  22
ENDBRANCH  20  21
ENDBRANCH  19  20
ENDBRANCH   1  19
TORSDOF 10
ENDMDL
MODEL 9
REMARK VINA RESULT:      -6.3      0.844      1.512
REMARK  Name = 
REMARK  14 active torsions:
REMARK  status: ('A' for Active; 'I' for Inactive)
REMARK    1  A    between atoms: C_1  and  O_2
REMARK    2  A    between atoms: O_2  and  C_3
REMARK    3  A    between atoms: C_4  and  O_5
REMARK    4  A    between atoms: O_5  and  C_6
REMARK    5  A    between atoms: C_8  and  C_9
REMARK    6  A    between atoms: C_9  and  N_10
REMARK    7  A    between atoms: N_10  and  C_11
REMARK    8  A    between atoms: C_11  and  C_12
REMARK    9  A    between atoms: C_12  and  O_13
REMARK   10  A    between atoms: O_13  and  C_14
REMARK   11  A    between atoms: C_14  and  C_15
REMARK   12  A    between atoms: C_15  and  C_16
REMARK   13  A    between atoms: C_22  and  C_23
REMARK   14  A    between atoms: C_22  and  C_24
REMARK                            x       y       z     vdW  Elec       q    Type
REMARK                         _______ _______ _______ _____ _____    ______ ____
ROOT
ATOM      1  N   UNL     1       6.179  -4.584  23.983  0.00  0.00    +0.251 N 
ATOM      2  C   UNL     1       6.505  -3.398  23.016  0.00  0.00    +0.162 C 
ATOM      3  C   UNL     1       6.852  -3.848  21.590  0.00  0.00    +0.210 C 
ATOM      4  O   UNL     1       5.791  -4.628  21.038  0.00  0.00    -0.369 OA
ATOM      5  C   UNL     1       5.622  -5.832  21.787  0.00  0.00    +0.210 C 
ATOM      6  C   UNL     1       5.198  -5.536  23.234  0.00  0.00    +0.162 C 
ENDROOT
BRANCH   1   7
ATOM      7  C   UNL     1       5.500  -4.036  25.293  0.00  0.00    +0.171 C 
BRANCH   7  12
ATOM      8  C   UNL     1       3.514  -6.663  28.081  0.00  0.00    +0.163 A 
ATOM      9  C   UNL     1       2.747  -5.872  27.222  0.00  0.00    +0.065 A 
ATOM     10  C   UNL     1       3.362  -5.043  26.284  0.00  0.00    +0.030 A 
ATOM     11 BR   UNL     1       2.211  -3.975  25.209  0.00  0.00    -0.050 Br
ATOM     12  C   UNL     1       4.762  -5.019  26.165  0.00  0.00    +0.015 A 
ATOM     13  C   UNL     1       5.506  -5.925  26.934  0.00  0.00    +0.059 A 
ATOM     14  C   UNL     1       4.905  -6.702  27.927  0.00  0.00    +0.162 A 
BRANCH   8  16
ATOM     15  C   UNL     1       2.500  -6.732  30.214  0.00  0.00    +0.277 C 
ATOM     16  O   UNL     1       2.965  -7.441  29.068  0.00  0.00    -0.491 OA
ENDBRANCH   8  16
BRANCH  14  17
ATOM     17  O   UNL     1       5.631  -7.484  28.791  0.00  0.00    -0.491 OA
ATOM     18  C   UNL     1       6.346  -6.790  29.808  0.00  0.00    +0.277 C 
ENDBRANCH  14  17
ENDBRANCH   7  12
ENDBRANCH   1   7
BRANCH   1  19
ATOM     19  C   UNL     1       7.516  -5.263  24.407  0.00  0.00    +0.162 C 
BRANCH  19  20
ATOM     20  C   UNL     1       8.567  -4.353  25.091  0.00  0.00    +0.210 C 
BRANCH  20  21
ATOM     21  O   UNL     1       9.649  -3.935  24.266  0.00  0.00    -0.375 OA
BRANCH  21  22
ATOM     22  C   UNL     1       9.939  -2.539  24.257  0.00  0.00    +0.160 C 
BRANCH  22  23
ATOM     23  C   UNL     1       9.999  -1.908  22.874  0.00  0.00    +0.032 C 
BRANCH  23  24
ATOM     24  C   UNL     1      10.176  -0.379  22.910  0.00  0.00    -0.005 C 
ATOM     25  C   UNL     1       8.963   0.377  22.309  0.00  0.00    -0.002 C 
ATOM     26  C   UNL     1       8.836   1.925  22.656  0.00  0.00    -0.029 C 
ATOM     27  C   UNL     1       7.809   2.703  21.800  0.00  0.00    +0.011 C 
ATOM     28  C   UNL     1      10.106   2.776  22.694  0.00  0.00    +0.011 C 
ATOM     29  C   UNL     1       8.257   1.364  24.021  0.00  0.00    -0.005 C 
ATOM     30  C   UNL     1       9.240   0.779  25.042  0.00  0.00    +0.004 C 
ATOM     31  C   UNL     1       7.677   0.194  23.177  0.00  0.00    +0.008 C 
ATOM     32  C   UNL     1      10.419   0.060  24.372  0.00  0.00    +0.004 C 
ENDBRANCH  23  24
ENDBRANCH  22  23
ENDBRANCH  21  22
ENDBRANCH  20  21
ENDBRANCH  19  20
ENDBRANCH   1  19
TORSDOF 10
ENDMDL
