MODEL 1
REMARK VINA RESULT:      -7.5      0.000      0.000
REMARK  Name = 
REMARK  17 active torsions:
REMARK  status: ('A' for Active; 'I' for Inactive)
REMARK    1  A    between atoms: C_2  and  C_4
REMARK    2  A    between atoms: C_7  and  C_9
REMARK    3  A    between atoms: C_12  and  C_14
REMARK    4  A    between atoms: C_14  and  O_15
REMARK    5  A    between atoms: O_15  and  P_16
REMARK    6  A    between atoms: P_16  and  O_17
REMARK    7  A    between atoms: P_16  and  O_19
REMARK    8  A    between atoms: O_19  and  P_20
REMARK    9  A    between atoms: P_20  and  O_21
REMARK   10  A    between atoms: P_20  and  O_23
REMARK   11  A    between atoms: O_23  and  C_24
REMARK   12  A    between atoms: C_24  and  C_25
REMARK   13  A    between atoms: C_28  and  N_36
REMARK   14  A    between atoms: C_30  and  O_32
REMARK   15  A    between atoms: C_33  and  O_35
REMARK   16  A    between atoms: C_46  and  O_48
REMARK   17  A    between atoms: C_49  and  O_51
REMARK                            x       y       z     vdW  Elec       q    Type
REMARK                         _______ _______ _______ _____ _____    ______ ____
ROOT
ATOM      1  P   UNL     1       4.881  -6.194  27.082  0.00  0.00    +0.000 P 
ATOM      2  O   UNL     1       5.578  -6.710  25.794  0.00  0.00    +0.000 OA
ENDROOT
BRANCH   1   3
ATOM      3  O   UNL     1       5.347  -7.422  28.223  0.00  0.00    +0.000 OA
ATOM      4  H   UNL     1       4.499  -7.880  28.456  0.00  0.00    +0.000 HD
ENDBRANCH   1   3
BRANCH   1   5
ATOM      5  O   UNL     1       3.486  -7.152  26.725  0.00  0.00    +0.000 OA
BRANCH   5   6
ATOM      6  P   UNL     1       2.692  -6.771  25.177  0.00  0.00    +0.000 P 
ATOM      7  O   UNL     1       1.175  -7.020  25.404  0.00  0.00    +0.000 OA
BRANCH   6   8
ATOM      8  O   UNL     1       3.141  -7.897  23.928  0.00  0.00    +0.000 OA
ATOM      9  H   UNL     1       3.932  -8.378  24.279  0.00  0.00    +0.000 HD
ENDBRANCH   6   8
BRANCH   6  10
ATOM     10  O   UNL     1       2.906  -5.116  24.607  0.00  0.00    +0.000 OA
BRANCH  10  11
ATOM     11  C   UNL     1       3.185  -5.100  23.227  0.00  0.00    +0.000 C 
BRANCH  11  15
ATOM     12  C   UNL     1       6.316  -4.022  21.795  0.00  0.00    +0.000 C 
ATOM     13  C   UNL     1       6.278  -5.456  21.263  0.00  0.00    +0.000 C 
ATOM     14  C   UNL     1       5.257  -6.146  22.161  0.00  0.00    +0.000 C 
ATOM     15  C   UNL     1       4.706  -4.997  23.021  0.00  0.00    +0.000 C 
ATOM     16  O   UNL     1       5.063  -3.778  22.401  0.00  0.00    +0.000 OA
BRANCH  12  19
ATOM     17  C   UNL     1       8.872  -4.054  24.462  0.00  0.00    +0.000 A 
ATOM     18  N   UNL     1       7.797  -4.521  23.791  0.00  0.00    +0.000 NA
ATOM     19  C   UNL     1       7.471  -3.742  22.736  0.00  0.00    +0.000 A 
ATOM     20 SE   UNL     1       8.545  -2.292  22.479  0.00  0.00    +0.000 Se
ATOM     21  C   UNL     1       9.415  -2.896  23.942  0.00  0.00    +0.000 A 
BRANCH  17  25
ATOM     22  N   UNL     1      10.026  -5.938  25.578  0.00  0.00    +0.000 N 
ATOM     23  H   UNL     1      10.113  -6.429  24.678  0.00  0.00    +0.000 HD
ATOM     24  H   UNL     1      10.404  -6.386  26.425  0.00  0.00    +0.000 HD
ATOM     25  C   UNL     1       9.429  -4.725  25.662  0.00  0.00    +0.000 C 
ATOM     26  O   UNL     1       9.349  -4.175  26.751  0.00  0.00    +0.000 OA
ENDBRANCH  17  25
ENDBRANCH  12  19
BRANCH  14  27
ATOM     27  O   UNL     1       5.857  -7.132  22.957  0.00  0.00    +0.000 OA
ATOM     28  H   UNL     1       6.755  -7.298  22.564  0.00  0.00    +0.000 HD
ENDBRANCH  14  27
BRANCH  13  29
ATOM     29  O   UNL     1       5.817  -5.462  19.928  0.00  0.00    +0.000 OA
ATOM     30  H   UNL     1       6.589  -5.618  19.321  0.00  0.00    +0.000 HD
ENDBRANCH  13  29
ENDBRANCH  11  15
ENDBRANCH  10  11
ENDBRANCH   6  10
ENDBRANCH   5   6
ENDBRANCH   1   5
BRANCH   1  31
ATOM     31  O   UNL     1       6.275  -5.235  27.440  0.00  0.00    +0.000 OA
BRANCH  31  32
ATOM     32  C   UNL     1       5.971  -3.840  27.616  0.00  0.00    +0.000 C 
BRANCH  32  33
ATOM     33  C   UNL     1       5.359  -3.210  26.354  0.00  0.00    +0.000 C 
ATOM     34  C   UNL     1       4.176  -2.289  26.700  0.00  0.00    +0.000 C 
ATOM     35  C   UNL     1       4.800  -0.899  26.760  0.00  0.00    +0.000 C 
ATOM     36  C   UNL     1       6.235  -1.142  26.264  0.00  0.00    +0.000 C 
ATOM     37  O   UNL     1       6.288  -2.414  25.647  0.00  0.00    +0.000 OA
BRANCH  36  38
ATOM     38  N   UNL     1       6.662  -0.096  25.336  0.00  0.00    +0.000 N 
ATOM     39  C   UNL     1       7.908   0.338  25.080  0.00  0.00    +0.000 A 
ATOM     40  N   UNL     1       9.071  -0.098  25.624  0.00  0.00    +0.000 NA
ATOM     41  C   UNL     1      10.232   0.491  25.210  0.00  0.00    +0.000 A 
ATOM     42  N   UNL     1      10.211   1.492  24.273  0.00  0.00    +0.000 NA
ATOM     43  C   UNL     1       9.037   1.931  23.723  0.00  0.00    +0.000 A 
ATOM     44  N   UNL     1       9.036   2.965  22.760  0.00  0.00    +0.000 N 
ATOM     45  H   UNL     1       8.154   3.300  22.346  0.00  0.00    +0.000 HD
ATOM     46  H   UNL     1       9.923   3.395  22.463  0.00  0.00    +0.000 HD
ATOM     47  C   UNL     1       7.860   1.323  24.153  0.00  0.00    +0.000 A 
ATOM     48  N   UNL     1       6.586   1.551  23.785  0.00  0.00    +0.000 NA
ATOM     49  C   UNL     1       5.874   0.663  24.532  0.00  0.00    +0.000 A 
ENDBRANCH  36  38
BRANCH  35  50
ATOM     50  O   UNL     1       4.800  -0.382  28.065  0.00  0.00    +0.000 OA
ATOM     51  H   UNL     1       5.087  -1.125  28.659  0.00  0.00    +0.000 HD
ENDBRANCH  35  50
BRANCH  34  52
ATOM     52  O   UNL     1       3.204  -2.335  25.680  0.00  0.00    +0.000 OA
ATOM     53  H   UNL     1       3.263  -3.210  25.221  0.00  0.00    +0.000 HD
ENDBRANCH  34  52
ENDBRANCH  32  33
ENDBRANCH  31  32
ENDBRANCH   1  31
TORSDOF 17
ENDMDL
MODEL 2
REMARK VINA RESULT:      -7.2      1.276      1.809
REMARK  Name = 
REMARK  17 active torsions:
REMARK  status: ('A' for Active; 'I' for Inactive)
REMARK    1  A    between atoms: C_2  and  C_4
REMARK    2  A    between atoms: C_7  and  C_9
REMARK    3  A    between atoms: C_12  and  C_14
REMARK    4  A    between atoms: C_14  and  O_15
REMARK    5  A    between atoms: O_15  and  P_16
REMARK    6  A    between atoms: P_16  and  O_17
REMARK    7  A    between atoms: P_16  and  O_19
REMARK    8  A    between atoms: O_19  and  P_20
REMARK    9  A    between atoms: P_20  and  O_21
REMARK   10  A    between atoms: P_20  and  O_23
REMARK   11  A    between atoms: O_23  and  C_24
REMARK   12  A    between atoms: C_24  and  C_25
REMARK   13  A    between atoms: C_28  and  N_36
REMARK   14  A    between atoms: C_30  and  O_32
REMARK   15  A    between atoms: C_33  and  O_35
REMARK   16  A    between atoms: C_46  and  O_48
REMARK   17  A    between atoms: C_49  and  O_51
REMARK                            x       y       z     vdW  Elec       q    Type
REMARK                         _______ _______ _______ _____ _____    ______ ____
ROOT
ATOM      1  P   UNL     1       5.312  -4.846  26.503  0.00  0.00    +0.000 P 
ATOM      2  O   UNL     1       5.978  -5.208  27.858  0.00  0.00    +0.000 OA
ENDROOT
BRANCH   1   3
ATOM      3  O   UNL     1       3.685  -4.504  27.018  0.00  0.00    +0.000 OA
ATOM      4  H   UNL     1       3.192  -4.318  26.177  0.00  0.00    +0.000 HD
ENDBRANCH   1   3
BRANCH   1   5
ATOM      5  O   UNL     1       4.825  -6.492  26.289  0.00  0.00    +0.000 OA
BRANCH   5   6
ATOM      6  P   UNL     1       3.339  -6.716  25.333  0.00  0.00    +0.000 P 
ATOM      7  O   UNL     1       2.239  -7.130  26.349  0.00  0.00    +0.000 OA
BRANCH   6   8
ATOM      8  O   UNL     1       3.469  -8.069  24.248  0.00  0.00    +0.000 OA
ATOM      9  H   UNL     1       2.680  -8.008  23.654  0.00  0.00    +0.000 HD
ENDBRANCH   6   8
BRANCH   6  10
ATOM     10  O   UNL     1       2.783  -5.288  24.460  0.00  0.00    +0.000 OA
BRANCH  10  11
ATOM     11  C   UNL     1       3.129  -5.376  23.098  0.00  0.00    +0.000 C 
BRANCH  11  15
ATOM     12  C   UNL     1       6.177  -3.961  21.782  0.00  0.00    +0.000 C 
ATOM     13  C   UNL     1       6.302  -5.382  21.231  0.00  0.00    +0.000 C 
ATOM     14  C   UNL     1       5.330  -6.187  22.086  0.00  0.00    +0.000 C 
ATOM     15  C   UNL     1       4.637  -5.115  22.942  0.00  0.00    +0.000 C 
ATOM     16  O   UNL     1       4.887  -3.856  22.351  0.00  0.00    +0.000 OA
BRANCH  12  19
ATOM     17  C   UNL     1       8.643  -3.779  24.527  0.00  0.00    +0.000 A 
ATOM     18  N   UNL     1       7.645  -4.343  23.814  0.00  0.00    +0.000 NA
ATOM     19  C   UNL     1       7.267  -3.580  22.765  0.00  0.00    +0.000 A 
ATOM     20 SE   UNL     1       8.185  -2.018  22.569  0.00  0.00    +0.000 Se
ATOM     21  C   UNL     1       9.073  -2.558  24.046  0.00  0.00    +0.000 A 
BRANCH  17  25
ATOM     22  N   UNL     1      10.049  -5.491  25.631  0.00  0.00    +0.000 N 
ATOM     23  H   UNL     1      10.284  -5.900  24.717  0.00  0.00    +0.000 HD
ATOM     24  H   UNL     1      10.447  -5.917  26.481  0.00  0.00    +0.000 HD
ATOM     25  C   UNL     1       9.234  -4.413  25.731  0.00  0.00    +0.000 C 
ATOM     26  O   UNL     1       8.983  -3.957  26.836  0.00  0.00    +0.000 OA
ENDBRANCH  17  25
ENDBRANCH  12  19
BRANCH  14  27
ATOM     27  O   UNL     1       6.003  -7.120  22.888  0.00  0.00    +0.000 OA
ATOM     28  H   UNL     1       6.651  -6.601  23.434  0.00  0.00    +0.000 HD
ENDBRANCH  14  27
BRANCH  13  29
ATOM     29  O   UNL     1       5.886  -5.413  19.882  0.00  0.00    +0.000 OA
ATOM     30  H   UNL     1       6.643  -5.128  19.304  0.00  0.00    +0.000 HD
ENDBRANCH  13  29
ENDBRANCH  11  15
ENDBRANCH  10  11
ENDBRANCH   6  10
ENDBRANCH   5   6
ENDBRANCH   1   5
BRANCH   1  31
ATOM     31  O   UNL     1       5.799  -3.199  26.716  0.00  0.00    +0.000 OA
BRANCH  31  32
ATOM     32  C   UNL     1       5.181  -2.302  25.776  0.00  0.00    +0.000 C 
BRANCH  32  33
ATOM     33  C   UNL     1       5.078  -0.867  26.317  0.00  0.00    +0.000 C 
ATOM     34  C   UNL     1       6.010  -0.650  27.522  0.00  0.00    +0.000 C 
ATOM     35  C   UNL     1       7.264  -0.037  26.908  0.00  0.00    +0.000 C 
ATOM     36  C   UNL     1       6.854   0.202  25.446  0.00  0.00    +0.000 C 
ATOM     37  O   UNL     1       5.446   0.097  25.352  0.00  0.00    +0.000 OA
BRANCH  36  38
ATOM     38  N   UNL     1       7.311   1.507  24.971  0.00  0.00    +0.000 N 
ATOM     39  C   UNL     1       8.536   1.859  24.544  0.00  0.00    +0.000 A 
ATOM     40  N   UNL     1       9.642   1.081  24.449  0.00  0.00    +0.000 NA
ATOM     41  C   UNL     1      10.790   1.655  23.982  0.00  0.00    +0.000 A 
ATOM     42  N   UNL     1      10.812   2.978  23.622  0.00  0.00    +0.000 NA
ATOM     43  C   UNL     1       9.695   3.763  23.717  0.00  0.00    +0.000 A 
ATOM     44  N   UNL     1       9.739   5.125  23.342  0.00  0.00    +0.000 N 
ATOM     45  H   UNL     1       8.901   5.720  23.415  0.00  0.00    +0.000 HD
ATOM     46  H   UNL     1      10.616   5.536  22.993  0.00  0.00    +0.000 HD
ATOM     47  C   UNL     1       8.531   3.167  24.195  0.00  0.00    +0.000 A 
ATOM     48  N   UNL     1       7.307   3.693  24.384  0.00  0.00    +0.000 NA
ATOM     49  C   UNL     1       6.581   2.646  24.864  0.00  0.00    +0.000 A 
ENDBRANCH  36  38
BRANCH  35  50
ATOM     50  O   UNL     1       8.363  -0.908  26.986  0.00  0.00    +0.000 OA
ATOM     51  H   UNL     1       9.124  -0.435  26.558  0.00  0.00    +0.000 HD
ENDBRANCH  35  50
BRANCH  34  52
ATOM     52  O   UNL     1       5.430   0.256  28.434  0.00  0.00    +0.000 OA
ATOM     53  H   UNL     1       5.541   1.176  28.086  0.00  0.00    +0.000 HD
ENDBRANCH  34  52
ENDBRANCH  32  33
ENDBRANCH  31  32
ENDBRANCH   1  31
TORSDOF 17
ENDMDL
MODEL 3
REMARK VINA RESULT:      -7.1      2.351      3.572
REMARK  Name = 
REMARK  17 active torsions:
REMARK  status: ('A' for Active; 'I' for Inactive)
REMARK    1  A    between atoms: C_2  and  C_4
REMARK    2  A    between atoms: C_7  and  C_9
REMARK    3  A    between atoms: C_12  and  C_14
REMARK    4  A    between atoms: C_14  and  O_15
REMARK    5  A    between atoms: O_15  and  P_16
REMARK    6  A    between atoms: P_16  and  O_17
REMARK    7  A    between atoms: P_16  and  O_19
REMARK    8  A    between atoms: O_19  and  P_20
REMARK    9  A    between atoms: P_20  and  O_21
REMARK   10  A    between atoms: P_20  and  O_23
REMARK   11  A    between atoms: O_23  and  C_24
REMARK   12  A    between atoms: C_24  and  C_25
REMARK   13  A    between atoms: C_28  and  N_36
REMARK   14  A    between atoms: C_30  and  O_32
REMARK   15  A    between atoms: C_33  and  O_35
REMARK   16  A    between atoms: C_46  and  O_48
REMARK   17  A    between atoms: C_49  and  O_51
REMARK                            x       y       z     vdW  Elec       q    Type
REMARK                         _______ _______ _______ _____ _____    ______ ____
ROOT
ATOM      1  P   UNL     1       7.798  -4.526  26.720  0.00  0.00    +0.000 P 
ATOM      2  O   UNL     1       7.652  -5.267  25.363  0.00  0.00    +0.000 OA
ENDROOT
BRANCH   1   3
ATOM      3  O   UNL     1       9.475  -4.821  27.077  0.00  0.00    +0.000 OA
ATOM      4  H   UNL     1       9.458  -5.476  27.822  0.00  0.00    +0.000 HD
ENDBRANCH   1   3
BRANCH   1   5
ATOM      5  O   UNL     1       7.430  -5.986  27.571  0.00  0.00    +0.000 OA
BRANCH   5   6
ATOM      6  P   UNL     1       5.844  -6.002  28.381  0.00  0.00    +0.000 P 
ATOM      7  O   UNL     1       6.103  -5.512  29.833  0.00  0.00    +0.000 OA
BRANCH   6   8
ATOM      8  O   UNL     1       5.230  -7.620  28.565  0.00  0.00    +0.000 OA
ATOM      9  H   UNL     1       5.603  -8.131  27.805  0.00  0.00    +0.000 HD
ENDBRANCH   6   8
BRANCH   6  10
ATOM     10  O   UNL     1       4.616  -4.966  27.653  0.00  0.00    +0.000 OA
BRANCH  10  11
ATOM     11  C   UNL     1       3.784  -5.712  26.796  0.00  0.00    +0.000 C 
BRANCH  11  15
ATOM     12  C   UNL     1       4.042  -4.348  23.466  0.00  0.00    +0.000 C 
ATOM     13  C   UNL     1       3.330  -5.663  23.144  0.00  0.00    +0.000 C 
ATOM     14  C   UNL     1       3.575  -6.518  24.381  0.00  0.00    +0.000 C 
ATOM     15  C   UNL     1       4.278  -5.551  25.348  0.00  0.00    +0.000 C 
ATOM     16  O   UNL     1       4.073  -4.236  24.874  0.00  0.00    +0.000 OA
BRANCH  12  19
ATOM     17  C   UNL     1       7.427  -3.321  22.401  0.00  0.00    +0.000 A 
ATOM     18  N   UNL     1       6.254  -3.180  23.056  0.00  0.00    +0.000 NA
ATOM     19  C   UNL     1       5.422  -4.225  22.851  0.00  0.00    +0.000 A 
ATOM     20 SE   UNL     1       6.076  -5.540  21.774  0.00  0.00    +0.000 Se
ATOM     21  C   UNL     1       7.539  -4.486  21.669  0.00  0.00    +0.000 A 
BRANCH  17  25
ATOM     22  N   UNL     1       9.448  -2.335  23.436  0.00  0.00    +0.000 N 
ATOM     23  H   UNL     1       9.438  -3.059  24.166  0.00  0.00    +0.000 HD
ATOM     24  H   UNL     1      10.191  -1.621  23.457  0.00  0.00    +0.000 HD
ATOM     25  C   UNL     1       8.510  -2.309  22.458  0.00  0.00    +0.000 C 
ATOM     26  O   UNL     1       8.561  -1.432  21.608  0.00  0.00    +0.000 OA
ENDBRANCH  17  25
ENDBRANCH  12  19
BRANCH  14  27
ATOM     27  O   UNL     1       4.388  -7.622  24.089  0.00  0.00    +0.000 OA
ATOM     28  H   UNL     1       5.326  -7.302  24.154  0.00  0.00    +0.000 HD
ENDBRANCH  14  27
BRANCH  13  29
ATOM     29  O   UNL     1       1.944  -5.435  22.991  0.00  0.00    +0.000 OA
ATOM     30  H   UNL     1       1.447  -6.065  23.578  0.00  0.00    +0.000 HD
ENDBRANCH  13  29
ENDBRANCH  11  15
ENDBRANCH  10  11
ENDBRANCH   6  10
ENDBRANCH   5   6
ENDBRANCH   1   5
BRANCH   1  31
ATOM     31  O   UNL     1       8.166  -3.065  25.869  0.00  0.00    +0.000 OA
BRANCH  31  32
ATOM     32  C   UNL     1       7.792  -1.880  26.595  0.00  0.00    +0.000 C 
BRANCH  32  33
ATOM     33  C   UNL     1       6.608  -1.145  25.947  0.00  0.00    +0.000 C 
ATOM     34  C   UNL     1       6.000  -0.102  26.903  0.00  0.00    +0.000 C 
ATOM     35  C   UNL     1       6.678   1.202  26.499  0.00  0.00    +0.000 C 
ATOM     36  C   UNL     1       7.465   0.809  25.239  0.00  0.00    +0.000 C 
ATOM     37  O   UNL     1       6.986  -0.442  24.782  0.00  0.00    +0.000 OA
BRANCH  36  38
ATOM     38  N   UNL     1       7.343   1.825  24.195  0.00  0.00    +0.000 N 
ATOM     39  C   UNL     1       7.749   3.107  24.224  0.00  0.00    +0.000 A 
ATOM     40  N   UNL     1       8.375   3.760  25.233  0.00  0.00    +0.000 NA
ATOM     41  C   UNL     1       8.701   5.073  25.041  0.00  0.00    +0.000 A 
ATOM     42  N   UNL     1       8.399   5.701  23.859  0.00  0.00    +0.000 NA
ATOM     43  C   UNL     1       7.767   5.040  22.841  0.00  0.00    +0.000 A 
ATOM     44  N   UNL     1       7.464   5.705  21.631  0.00  0.00    +0.000 N 
ATOM     45  H   UNL     1       6.986   5.212  20.863  0.00  0.00    +0.000 HD
ATOM     46  H   UNL     1       7.718   6.695  21.508  0.00  0.00    +0.000 HD
ATOM     47  C   UNL     1       7.440   3.702  23.048  0.00  0.00    +0.000 A 
ATOM     48  N   UNL     1       6.831   2.825  22.231  0.00  0.00    +0.000 NA
ATOM     49  C   UNL     1       6.784   1.681  22.967  0.00  0.00    +0.000 A 
ENDBRANCH  36  38
BRANCH  35  50
ATOM     50  O   UNL     1       7.538   1.675  27.502  0.00  0.00    +0.000 OA
ATOM     51  H   UNL     1       8.000   2.469  27.122  0.00  0.00    +0.000 HD
ENDBRANCH  35  50
BRANCH  34  52
ATOM     52  O   UNL     1       4.608  -0.003  26.699  0.00  0.00    +0.000 OA
ATOM     53  H   UNL     1       4.142  -0.307  27.518  0.00  0.00    +0.000 HD
ENDBRANCH  34  52
ENDBRANCH  32  33
ENDBRANCH  31  32
ENDBRANCH   1  31
TORSDOF 17
ENDMDL
MODEL 4
REMARK VINA RESULT:      -7.0      4.975      9.133
REMARK  Name = 
REMARK  17 active torsions:
REMARK  status: ('A' for Active; 'I' for Inactive)
REMARK    1  A    between atoms: C_2  and  C_4
REMARK    2  A    between atoms: C_7  and  C_9
REMARK    3  A    between atoms: C_12  and  C_14
REMARK    4  A    between atoms: C_14  and  O_15
REMARK    5  A    between atoms: O_15  and  P_16
REMARK    6  A    between atoms: P_16  and  O_17
REMARK    7  A    between atoms: P_16  and  O_19
REMARK    8  A    between atoms: O_19  and  P_20
REMARK    9  A    between atoms: P_20  and  O_21
REMARK   10  A    between atoms: P_20  and  O_23
REMARK   11  A    between atoms: O_23  and  C_24
REMARK   12  A    between atoms: C_24  and  C_25
REMARK   13  A    between atoms: C_28  and  N_36
REMARK   14  A    between atoms: C_30  and  O_32
REMARK   15  A    between atoms: C_33  and  O_35
REMARK   16  A    between atoms: C_46  and  O_48
REMARK   17  A    between atoms: C_49  and  O_51
REMARK                            x       y       z     vdW  Elec       q    Type
REMARK                         _______ _______ _______ _____ _____    ______ ____
ROOT
ATOM      1  P   UNL     1       8.527  -0.179  25.054  0.00  0.00    +0.000 P 
ATOM      2  O   UNL     1       7.601   1.002  25.452  0.00  0.00    +0.000 OA
ENDROOT
BRANCH   1   3
ATOM      3  O   UNL     1       9.946   0.185  25.994  0.00  0.00    +0.000 OA
ATOM      4  H   UNL     1      10.671  -0.338  25.563  0.00  0.00    +0.000 HD
ENDBRANCH   1   3
BRANCH   1   5
ATOM      5  O   UNL     1       9.211   0.771  23.780  0.00  0.00    +0.000 OA
BRANCH   5   6
ATOM      6  P   UNL     1       8.448   0.546  22.187  0.00  0.00    +0.000 P 
ATOM      7  O   UNL     1       7.203  -0.350  22.433  0.00  0.00    +0.000 OA
BRANCH   6   8
ATOM      8  O   UNL     1       9.455  -0.385  21.116  0.00  0.00    +0.000 OA
ATOM      9  H   UNL     1      10.214  -0.695  21.670  0.00  0.00    +0.000 HD
ENDBRANCH   6   8
BRANCH   6  10
ATOM     10  O   UNL     1       7.920   2.028  21.389  0.00  0.00    +0.000 OA
BRANCH  10  11
ATOM     11  C   UNL     1       7.079   2.774  22.238  0.00  0.00    +0.000 C 
BRANCH  11  15
ATOM     12  C   UNL     1       8.295   5.207  24.609  0.00  0.00    +0.000 C 
ATOM     13  C   UNL     1       7.330   6.090  23.815  0.00  0.00    +0.000 C 
ATOM     14  C   UNL     1       7.109   5.312  22.524  0.00  0.00    +0.000 C 
ATOM     15  C   UNL     1       7.854   3.990  22.772  0.00  0.00    +0.000 C 
ATOM     16  O   UNL     1       8.097   3.881  24.160  0.00  0.00    +0.000 OA
BRANCH  12  19
ATOM     17  C   UNL     1      11.845   5.706  23.719  0.00  0.00    +0.000 A 
ATOM     18  N   UNL     1      10.618   5.157  23.595  0.00  0.00    +0.000 NA
ATOM     19  C   UNL     1       9.747   5.633  24.511  0.00  0.00    +0.000 A 
ATOM     20 SE   UNL     1      10.425   6.878  25.656  0.00  0.00    +0.000 Se
ATOM     21  C   UNL     1      11.961   6.630  24.738  0.00  0.00    +0.000 A 
BRANCH  17  25
ATOM     22  N   UNL     1      12.841   5.295  21.490  0.00  0.00    +0.000 N 
ATOM     23  H   UNL     1      11.940   5.504  21.040  0.00  0.00    +0.000 HD
ATOM     24  H   UNL     1      13.644   5.042  20.896  0.00  0.00    +0.000 HD
ATOM     25  C   UNL     1      12.983   5.348  22.836  0.00  0.00    +0.000 C 
ATOM     26  O   UNL     1      14.072   5.094  23.330  0.00  0.00    +0.000 OA
ENDBRANCH  17  25
ENDBRANCH  12  19
BRANCH  14  27
ATOM     27  O   UNL     1       7.638   5.992  21.417  0.00  0.00    +0.000 OA
ATOM     28  H   UNL     1       8.317   6.622  21.777  0.00  0.00    +0.000 HD
ENDBRANCH  14  27
BRANCH  13  29
ATOM     29  O   UNL     1       6.107   6.213  24.511  0.00  0.00    +0.000 OA
ATOM     30  H   UNL     1       5.365   5.940  23.908  0.00  0.00    +0.000 HD
ENDBRANCH  13  29
ENDBRANCH  11  15
ENDBRANCH  10  11
ENDBRANCH   6  10
ENDBRANCH   5   6
ENDBRANCH   1   5
BRANCH   1  31
ATOM     31  O   UNL     1       7.844  -1.129  26.329  0.00  0.00    +0.000 OA
BRANCH  31  32
ATOM     32  C   UNL     1       8.631  -2.290  26.651  0.00  0.00    +0.000 C 
BRANCH  32  33
ATOM     33  C   UNL     1       8.738  -3.271  25.472  0.00  0.00    +0.000 C 
ATOM     34  C   UNL     1       9.306  -4.630  25.919  0.00  0.00    +0.000 C 
ATOM     35  C   UNL     1       8.067  -5.482  26.162  0.00  0.00    +0.000 C 
ATOM     36  C   UNL     1       6.924  -4.586  25.656  0.00  0.00    +0.000 C 
ATOM     37  O   UNL     1       7.482  -3.541  24.883  0.00  0.00    +0.000 OA
BRANCH  36  38
ATOM     38  N   UNL     1       5.954  -5.351  24.873  0.00  0.00    +0.000 N 
ATOM     39  C   UNL     1       4.875  -6.024  25.306  0.00  0.00    +0.000 A 
ATOM     40  N   UNL     1       4.426  -6.151  26.578  0.00  0.00    +0.000 NA
ATOM     41  C   UNL     1       3.295  -6.887  26.788  0.00  0.00    +0.000 A 
ATOM     42  N   UNL     1       2.641  -7.476  25.737  0.00  0.00    +0.000 NA
ATOM     43  C   UNL     1       3.094  -7.348  24.452  0.00  0.00    +0.000 A 
ATOM     44  N   UNL     1       2.406  -7.963  23.382  0.00  0.00    +0.000 N 
ATOM     45  H   UNL     1       2.746  -7.872  22.413  0.00  0.00    +0.000 HD
ATOM     46  H   UNL     1       1.556  -8.515  23.563  0.00  0.00    +0.000 HD
ATOM     47  C   UNL     1       4.248  -6.595  24.250  0.00  0.00    +0.000 A 
ATOM     48  N   UNL     1       4.902  -6.305  23.111  0.00  0.00    +0.000 NA
ATOM     49  C   UNL     1       5.948  -5.540  23.529  0.00  0.00    +0.000 A 
ENDBRANCH  36  38
BRANCH  35  50
ATOM     50  O   UNL     1       7.901  -5.788  27.522  0.00  0.00    +0.000 OA
ATOM     51  H   UNL     1       7.074  -5.321  27.814  0.00  0.00    +0.000 HD
ENDBRANCH  35  50
BRANCH  34  52
ATOM     52  O   UNL     1      10.086  -5.197  24.890  0.00  0.00    +0.000 OA
ATOM     53  H   UNL     1       9.844  -4.768  24.031  0.00  0.00    +0.000 HD
ENDBRANCH  34  52
ENDBRANCH  32  33
ENDBRANCH  31  32
ENDBRANCH   1  31
TORSDOF 17
ENDMDL
MODEL 5
REMARK VINA RESULT:      -6.9      3.659      6.778
REMARK  Name = 
REMARK  17 active torsions:
REMARK  status: ('A' for Active; 'I' for Inactive)
REMARK    1  A    between atoms: C_2  and  C_4
REMARK    2  A    between atoms: C_7  and  C_9
REMARK    3  A    between atoms: C_12  and  C_14
REMARK    4  A    between atoms: C_14  and  O_15
REMARK    5  A    between atoms: O_15  and  P_16
REMARK    6  A    between atoms: P_16  and  O_17
REMARK    7  A    between atoms: P_16  and  O_19
REMARK    8  A    between atoms: O_19  and  P_20
REMARK    9  A    between atoms: P_20  and  O_21
REMARK   10  A    between atoms: P_20  and  O_23
REMARK   11  A    between atoms: O_23  and  C_24
REMARK   12  A    between atoms: C_24  and  C_25
REMARK   13  A    between atoms: C_28  and  N_36
REMARK   14  A    between atoms: C_30  and  O_32
REMARK   15  A    between atoms: C_33  and  O_35
REMARK   16  A    between atoms: C_46  and  O_48
REMARK   17  A    between atoms: C_49  and  O_51
REMARK                            x       y       z     vdW  Elec       q    Type
REMARK                         _______ _______ _______ _____ _____    ______ ____
ROOT
ATOM      1  P   UNL     1       5.330   1.992  24.695  0.00  0.00    +0.000 P 
ATOM      2  O   UNL     1       3.849   2.260  24.313  0.00  0.00    +0.000 OA
ENDROOT
BRANCH   1   3
ATOM      3  O   UNL     1       5.307   0.265  24.909  0.00  0.00    +0.000 OA
ATOM      4  H   UNL     1       5.918  -0.080  24.208  0.00  0.00    +0.000 HD
ENDBRANCH   1   3
BRANCH   1   5
ATOM      5  O   UNL     1       4.935   2.137  26.372  0.00  0.00    +0.000 OA
BRANCH   5   6
ATOM      6  P   UNL     1       5.995   1.221  27.473  0.00  0.00    +0.000 P 
ATOM      7  O   UNL     1       6.118   2.083  28.760  0.00  0.00    +0.000 OA
BRANCH   6   8
ATOM      8  O   UNL     1       7.620   1.113  26.860  0.00  0.00    +0.000 OA
ATOM      9  H   UNL     1       7.996   2.025  26.945  0.00  0.00    +0.000 HD
ENDBRANCH   6   8
BRANCH   6  10
ATOM     10  O   UNL     1       5.409  -0.379  27.926  0.00  0.00    +0.000 OA
BRANCH  10  11
ATOM     11  C   UNL     1       4.008  -0.448  27.793  0.00  0.00    +0.000 C 
BRANCH  11  15
ATOM     12  C   UNL     1       3.117  -3.149  25.571  0.00  0.00    +0.000 C 
ATOM     13  C   UNL     1       1.759  -2.909  26.234  0.00  0.00    +0.000 C 
ATOM     14  C   UNL     1       2.105  -2.126  27.494  0.00  0.00    +0.000 C 
ATOM     15  C   UNL     1       3.614  -1.867  27.349  0.00  0.00    +0.000 C 
ATOM     16  O   UNL     1       3.969  -2.107  26.002  0.00  0.00    +0.000 OA
BRANCH  12  19
ATOM     17  C   UNL     1       4.928  -6.090  26.881  0.00  0.00    +0.000 A 
ATOM     18  N   UNL     1       4.560  -4.791  26.854  0.00  0.00    +0.000 NA
ATOM     19  C   UNL     1       3.705  -4.519  25.844  0.00  0.00    +0.000 A 
ATOM     20 SE   UNL     1       3.261  -5.943  24.797  0.00  0.00    +0.000 Se
ATOM     21  C   UNL     1       4.363  -6.867  25.890  0.00  0.00    +0.000 A 
BRANCH  17  25
ATOM     22  N   UNL     1       7.154  -6.234  27.954  0.00  0.00    +0.000 N 
ATOM     23  H   UNL     1       7.521  -5.525  27.306  0.00  0.00    +0.000 HD
ATOM     24  H   UNL     1       7.788  -6.634  28.662  0.00  0.00    +0.000 HD
ATOM     25  C   UNL     1       5.864  -6.644  27.890  0.00  0.00    +0.000 C 
ATOM     26  O   UNL     1       5.468  -7.487  28.681  0.00  0.00    +0.000 OA
ENDBRANCH  17  25
ENDBRANCH  12  19
BRANCH  14  27
ATOM     27  O   UNL     1       1.826  -2.866  28.652  0.00  0.00    +0.000 OA
ATOM     28  H   UNL     1       2.177  -2.333  29.413  0.00  0.00    +0.000 HD
ENDBRANCH  14  27
BRANCH  13  29
ATOM     29  O   UNL     1       0.945  -2.119  25.391  0.00  0.00    +0.000 OA
ATOM     30  H   UNL     1       0.429  -2.718  24.788  0.00  0.00    +0.000 HD
ENDBRANCH  13  29
ENDBRANCH  11  15
ENDBRANCH  10  11
ENDBRANCH   6  10
ENDBRANCH   5   6
ENDBRANCH   1   5
BRANCH   1  31
ATOM     31  O   UNL     1       5.725   1.847  23.016  0.00  0.00    +0.000 OA
BRANCH  31  32
ATOM     32  C   UNL     1       6.854   2.651  22.631  0.00  0.00    +0.000 C 
BRANCH  32  33
ATOM     33  C   UNL     1       7.989   1.814  22.021  0.00  0.00    +0.000 C 
ATOM     34  C   UNL     1       9.368   2.292  22.510  0.00  0.00    +0.000 C 
ATOM     35  C   UNL     1       9.682   1.366  23.680  0.00  0.00    +0.000 C 
ATOM     36  C   UNL     1       8.539   0.340  23.627  0.00  0.00    +0.000 C 
ATOM     37  O   UNL     1       7.896   0.448  22.371  0.00  0.00    +0.000 OA
BRANCH  36  38
ATOM     38  N   UNL     1       9.033  -1.020  23.842  0.00  0.00    +0.000 N 
ATOM     39  C   UNL     1       8.645  -1.914  24.766  0.00  0.00    +0.000 A 
ATOM     40  N   UNL     1       7.694  -1.767  25.722  0.00  0.00    +0.000 NA
ATOM     41  C   UNL     1       7.461  -2.819  26.561  0.00  0.00    +0.000 A 
ATOM     42  N   UNL     1       8.173  -3.984  26.433  0.00  0.00    +0.000 NA
ATOM     43  C   UNL     1       9.132  -4.133  25.468  0.00  0.00    +0.000 A 
ATOM     44  N   UNL     1       9.855  -5.341  25.353  0.00  0.00    +0.000 N 
ATOM     45  H   UNL     1      10.580  -5.456  24.630  0.00  0.00    +0.000 HD
ATOM     46  H   UNL     1       9.664  -6.121  25.997  0.00  0.00    +0.000 HD
ATOM     47  C   UNL     1       9.361  -3.054  24.618  0.00  0.00    +0.000 A 
ATOM     48  N   UNL     1      10.226  -2.927  23.596  0.00  0.00    +0.000 NA
ATOM     49  C   UNL     1      10.001  -1.664  23.142  0.00  0.00    +0.000 A 
ENDBRANCH  36  38
BRANCH  35  50
ATOM     50  O   UNL     1       9.684   2.054  24.903  0.00  0.00    +0.000 OA
ATOM     51  H   UNL     1      10.373   1.616  25.469  0.00  0.00    +0.000 HD
ENDBRANCH  35  50
BRANCH  34  52
ATOM     52  O   UNL     1      10.332   2.126  21.494  0.00  0.00    +0.000 OA
ATOM     53  H   UNL     1      10.869   2.955  21.424  0.00  0.00    +0.000 HD
ENDBRANCH  34  52
ENDBRANCH  32  33
ENDBRANCH  31  32
ENDBRANCH   1  31
TORSDOF 17
ENDMDL
MODEL 6
REMARK VINA RESULT:      -6.9      4.274      7.499
REMARK  Name = 
REMARK  17 active torsions:
REMARK  status: ('A' for Active; 'I' for Inactive)
REMARK    1  A    between atoms: C_2  and  C_4
REMARK    2  A    between atoms: C_7  and  C_9
REMARK    3  A    between atoms: C_12  and  C_14
REMARK    4  A    between atoms: C_14  and  O_15
REMARK    5  A    between atoms: O_15  and  P_16
REMARK    6  A    between atoms: P_16  and  O_17
REMARK    7  A    between atoms: P_16  and  O_19
REMARK    8  A    between atoms: O_19  and  P_20
REMARK    9  A    between atoms: P_20  and  O_21
REMARK   10  A    between atoms: P_20  and  O_23
REMARK   11  A    between atoms: O_23  and  C_24
REMARK   12  A    between atoms: C_24  and  C_25
REMARK   13  A    between atoms: C_28  and  N_36
REMARK   14  A    between atoms: C_30  and  O_32
REMARK   15  A    between atoms: C_33  and  O_35
REMARK   16  A    between atoms: C_46  and  O_48
REMARK   17  A    between atoms: C_49  and  O_51
REMARK                            x       y       z     vdW  Elec       q    Type
REMARK                         _______ _______ _______ _____ _____    ______ ____
ROOT
ATOM      1  P   UNL     1       6.753   4.490  26.689  0.00  0.00    +0.000 P 
ATOM      2  O   UNL     1       7.980   5.349  27.097  0.00  0.00    +0.000 OA
ENDROOT
BRANCH   1   3
ATOM      3  O   UNL     1       7.489   3.374  25.575  0.00  0.00    +0.000 OA
ATOM      4  H   UNL     1       7.942   2.707  26.154  0.00  0.00    +0.000 HD
ENDBRANCH   1   3
BRANCH   1   5
ATOM      5  O   UNL     1       6.456   5.533  25.342  0.00  0.00    +0.000 OA
BRANCH   5   6
ATOM      6  P   UNL     1       6.022   4.699  23.830  0.00  0.00    +0.000 P 
ATOM      7  O   UNL     1       5.236   5.737  22.981  0.00  0.00    +0.000 OA
BRANCH   6   8
ATOM      8  O   UNL     1       4.887   3.409  24.108  0.00  0.00    +0.000 OA
ATOM      9  H   UNL     1       4.875   2.883  23.269  0.00  0.00    +0.000 HD
ENDBRANCH   6   8
BRANCH   6  10
ATOM     10  O   UNL     1       7.384   4.113  22.874  0.00  0.00    +0.000 OA
BRANCH  10  11
ATOM     11  C   UNL     1       6.955   3.152  21.939  0.00  0.00    +0.000 C 
BRANCH  11  15
ATOM     12  C   UNL     1       7.885   0.397  24.075  0.00  0.00    +0.000 C 
ATOM     13  C   UNL     1       9.277   0.927  23.729  0.00  0.00    +0.000 C 
ATOM     14  C   UNL     1       9.040   1.783  22.491  0.00  0.00    +0.000 C 
ATOM     15  C   UNL     1       7.510   1.775  22.341  0.00  0.00    +0.000 C 
ATOM     16  O   UNL     1       6.955   1.329  23.561  0.00  0.00    +0.000 OA
BRANCH  12  19
ATOM     17  C   UNL     1       6.434  -2.849  23.073  0.00  0.00    +0.000 A 
ATOM     18  N   UNL     1       6.400  -1.595  23.574  0.00  0.00    +0.000 NA
ATOM     19  C   UNL     1       7.618  -1.010  23.579  0.00  0.00    +0.000 A 
ATOM     20 SE   UNL     1       8.973  -2.030  22.914  0.00  0.00    +0.000 Se
ATOM     21  C   UNL     1       7.685  -3.272  22.670  0.00  0.00    +0.000 A 
BRANCH  17  25
ATOM     22  N   UNL     1       4.280  -3.717  23.930  0.00  0.00    +0.000 N 
ATOM     23  H   UNL     1       4.365  -3.125  24.767  0.00  0.00    +0.000 HD
ATOM     24  H   UNL     1       3.452  -4.323  23.834  0.00  0.00    +0.000 HD
ATOM     25  C   UNL     1       5.229  -3.708  22.963  0.00  0.00    +0.000 C 
ATOM     26  O   UNL     1       5.087  -4.423  21.983  0.00  0.00    +0.000 OA
ENDBRANCH  17  25
ENDBRANCH  12  19
BRANCH  14  27
ATOM     27  O   UNL     1       9.663   1.235  21.361  0.00  0.00    +0.000 OA
ATOM     28  H   UNL     1       9.721   1.968  20.692  0.00  0.00    +0.000 HD
ENDBRANCH  14  27
BRANCH  13  29
ATOM     29  O   UNL     1       9.759   1.738  24.781  0.00  0.00    +0.000 OA
ATOM     30  H   UNL     1      10.078   2.600  24.403  0.00  0.00    +0.000 HD
ENDBRANCH  13  29
ENDBRANCH  11  15
ENDBRANCH  10  11
ENDBRANCH   6  10
ENDBRANCH   5   6
ENDBRANCH   1   5
BRANCH   1  31
ATOM     31  O   UNL     1       7.049   3.446  28.037  0.00  0.00    +0.000 OA
BRANCH  31  32
ATOM     32  C   UNL     1       7.107   2.055  27.671  0.00  0.00    +0.000 C 
BRANCH  32  33
ATOM     33  C   UNL     1       5.951   1.242  28.275  0.00  0.00    +0.000 C 
ATOM     34  C   UNL     1       4.658   1.408  27.458  0.00  0.00    +0.000 C 
ATOM     35  C   UNL     1       4.657   0.203  26.525  0.00  0.00    +0.000 C 
ATOM     36  C   UNL     1       5.852  -0.624  27.026  0.00  0.00    +0.000 C 
ATOM     37  O   UNL     1       6.228  -0.144  28.302  0.00  0.00    +0.000 OA
BRANCH  36  38
ATOM     38  N   UNL     1       5.527  -2.049  27.082  0.00  0.00    +0.000 N 
ATOM     39  C   UNL     1       6.341  -3.101  26.888  0.00  0.00    +0.000 A 
ATOM     40  N   UNL     1       7.665  -3.088  26.596  0.00  0.00    +0.000 NA
ATOM     41  C   UNL     1       8.299  -4.288  26.442  0.00  0.00    +0.000 A 
ATOM     42  N   UNL     1       7.607  -5.464  26.581  0.00  0.00    +0.000 NA
ATOM     43  C   UNL     1       6.271  -5.477  26.876  0.00  0.00    +0.000 A 
ATOM     44  N   UNL     1       5.577  -6.700  27.014  0.00  0.00    +0.000 N 
ATOM     45  H   UNL     1       4.570  -6.714  27.233  0.00  0.00    +0.000 HD
ATOM     46  H   UNL     1       6.074  -7.593  26.893  0.00  0.00    +0.000 HD
ATOM     47  C   UNL     1       5.636  -4.247  27.030  0.00  0.00    +0.000 A 
ATOM     48  N   UNL     1       4.353  -3.969  27.321  0.00  0.00    +0.000 NA
ATOM     49  C   UNL     1       4.318  -2.608  27.343  0.00  0.00    +0.000 A 
ENDBRANCH  36  38
BRANCH  35  50
ATOM     50  O   UNL     1       4.834   0.581  25.184  0.00  0.00    +0.000 OA
ATOM     51  H   UNL     1       4.624   1.551  25.138  0.00  0.00    +0.000 HD
ENDBRANCH  35  50
BRANCH  34  52
ATOM     52  O   UNL     1       3.532   1.359  28.307  0.00  0.00    +0.000 OA
ATOM     53  H   UNL     1       2.713   1.341  27.752  0.00  0.00    +0.000 HD
ENDBRANCH  34  52
ENDBRANCH  32  33
ENDBRANCH  31  32
ENDBRANCH   1  31
TORSDOF 17
ENDMDL
MODEL 7
REMARK VINA RESULT:      -6.9      2.169      5.192
REMARK  Name = 
REMARK  17 active torsions:
REMARK  status: ('A' for Active; 'I' for Inactive)
REMARK    1  A    between atoms: C_2  and  C_4
REMARK    2  A    between atoms: C_7  and  C_9
REMARK    3  A    between atoms: C_12  and  C_14
REMARK    4  A    between atoms: C_14  and  O_15
REMARK    5  A    between atoms: O_15  and  P_16
REMARK    6  A    between atoms: P_16  and  O_17
REMARK    7  A    between atoms: P_16  and  O_19
REMARK    8  A    between atoms: O_19  and  P_20
REMARK    9  A    between atoms: P_20  and  O_21
REMARK   10  A    between atoms: P_20  and  O_23
REMARK   11  A    between atoms: O_23  and  C_24
REMARK   12  A    between atoms: C_24  and  C_25
REMARK   13  A    between atoms: C_28  and  N_36
REMARK   14  A    between atoms: C_30  and  O_32
REMARK   15  A    between atoms: C_33  and  O_35
REMARK   16  A    between atoms: C_46  and  O_48
REMARK   17  A    between atoms: C_49  and  O_51
REMARK                            x       y       z     vdW  Elec       q    Type
REMARK                         _______ _______ _______ _____ _____    ______ ____
ROOT
ATOM      1  P   UNL     1       4.301  -5.787  23.822  0.00  0.00    +0.000 P 
ATOM      2  O   UNL     1       3.309  -5.610  22.640  0.00  0.00    +0.000 OA
ENDROOT
BRANCH   1   3
ATOM      3  O   UNL     1       4.369  -7.522  23.936  0.00  0.00    +0.000 OA
ATOM      4  H   UNL     1       5.142  -7.778  23.368  0.00  0.00    +0.000 HD
ENDBRANCH   1   3
BRANCH   1   5
ATOM      5  O   UNL     1       2.980  -5.835  24.937  0.00  0.00    +0.000 OA
BRANCH   5   6
ATOM      6  P   UNL     1       3.429  -6.230  26.615  0.00  0.00    +0.000 P 
ATOM      7  O   UNL     1       4.953  -6.532  26.587  0.00  0.00    +0.000 OA
BRANCH   6   8
ATOM      8  O   UNL     1       2.695  -7.716  27.145  0.00  0.00    +0.000 OA
ATOM      9  H   UNL     1       3.264  -8.040  27.888  0.00  0.00    +0.000 HD
ENDBRANCH   6   8
BRANCH   6  10
ATOM     10  O   UNL     1       3.135  -4.952  27.795  0.00  0.00    +0.000 OA
BRANCH  10  11
ATOM     11  C   UNL     1       4.338  -4.299  28.125  0.00  0.00    +0.000 C 
BRANCH  11  15
ATOM     12  C   UNL     1       3.998  -0.711  27.957  0.00  0.00    +0.000 C 
ATOM     13  C   UNL     1       2.738  -1.119  27.191  0.00  0.00    +0.000 C 
ATOM     14  C   UNL     1       3.006  -2.568  26.802  0.00  0.00    +0.000 C 
ATOM     15  C   UNL     1       4.331  -2.888  27.513  0.00  0.00    +0.000 C 
ATOM     16  O   UNL     1       4.549  -1.896  28.495  0.00  0.00    +0.000 OA
BRANCH  12  19
ATOM     17  C   UNL     1       5.907   1.010  25.303  0.00  0.00    +0.000 A 
ATOM     18  N   UNL     1       4.879   0.289  25.800  0.00  0.00    +0.000 NA
ATOM     19  C   UNL     1       5.004   0.062  27.126  0.00  0.00    +0.000 A 
ATOM     20 SE   UNL     1       6.490   0.777  27.901  0.00  0.00    +0.000 Se
ATOM     21  C   UNL     1       6.861   1.367  26.235  0.00  0.00    +0.000 A 
BRANCH  17  25
ATOM     22  N   UNL     1       6.297   0.471  22.919  0.00  0.00    +0.000 N 
ATOM     23  H   UNL     1       6.449  -0.517  23.158  0.00  0.00    +0.000 HD
ATOM     24  H   UNL     1       6.366   0.758  21.931  0.00  0.00    +0.000 HD
ATOM     25  C   UNL     1       6.010   1.390  23.873  0.00  0.00    +0.000 C 
ATOM     26  O   UNL     1       5.834   2.554  23.544  0.00  0.00    +0.000 OA
ENDBRANCH  17  25
ENDBRANCH  12  19
BRANCH  14  27
ATOM     27  O   UNL     1       3.129  -2.712  25.412  0.00  0.00    +0.000 OA
ATOM     28  H   UNL     1       2.262  -3.078  25.093  0.00  0.00    +0.000 HD
ENDBRANCH  14  27
BRANCH  13  29
ATOM     29  O   UNL     1       1.615  -1.056  28.045  0.00  0.00    +0.000 OA
ATOM     30  H   UNL     1       1.889  -0.646  28.908  0.00  0.00    +0.000 HD
ENDBRANCH  13  29
ENDBRANCH  11  15
ENDBRANCH  10  11
ENDBRANCH   6  10
ENDBRANCH   5   6
ENDBRANCH   1   5
BRANCH   1  31
ATOM     31  O   UNL     1       5.623  -5.740  22.707  0.00  0.00    +0.000 OA
BRANCH  31  32
ATOM     32  C   UNL     1       6.905  -5.671  23.354  0.00  0.00    +0.000 C 
BRANCH  32  33
ATOM     33  C   UNL     1       6.912  -4.690  24.537  0.00  0.00    +0.000 C 
ATOM     34  C   UNL     1       7.953  -5.093  25.597  0.00  0.00    +0.000 C 
ATOM     35  C   UNL     1       9.176  -4.254  25.247  0.00  0.00    +0.000 C 
ATOM     36  C   UNL     1       8.654  -3.325  24.138  0.00  0.00    +0.000 C 
ATOM     37  O   UNL     1       7.240  -3.374  24.140  0.00  0.00    +0.000 OA
BRANCH  36  38
ATOM     38  N   UNL     1       9.127  -1.955  24.323  0.00  0.00    +0.000 N 
ATOM     39  C   UNL     1       9.331  -1.007  23.392  0.00  0.00    +0.000 A 
ATOM     40  N   UNL     1       9.140  -1.098  22.053  0.00  0.00    +0.000 NA
ATOM     41  C   UNL     1       9.411   0.001  21.291  0.00  0.00    +0.000 A 
ATOM     42  N   UNL     1       9.863   1.159  21.871  0.00  0.00    +0.000 NA
ATOM     43  C   UNL     1      10.055   1.251  23.223  0.00  0.00    +0.000 A 
ATOM     44  N   UNL     1      10.522   2.453  23.803  0.00  0.00    +0.000 N 
ATOM     45  H   UNL     1      10.671   2.526  24.820  0.00  0.00    +0.000 HD
ATOM     46  H   UNL     1      10.721   3.269  23.209  0.00  0.00    +0.000 HD
ATOM     47  C   UNL     1       9.775   0.123  23.990  0.00  0.00    +0.000 A 
ATOM     48  N   UNL     1       9.868  -0.063  25.319  0.00  0.00    +0.000 NA
ATOM     49  C   UNL     1       9.465  -1.351  25.491  0.00  0.00    +0.000 A 
ENDBRANCH  36  38
BRANCH  35  50
ATOM     50  O   UNL     1      10.237  -5.046  24.781  0.00  0.00    +0.000 OA
ATOM     51  H   UNL     1      10.118  -5.942  25.193  0.00  0.00    +0.000 HD
ENDBRANCH  35  50
BRANCH  34  52
ATOM     52  O   UNL     1       7.494  -4.756  26.888  0.00  0.00    +0.000 OA
ATOM     53  H   UNL     1       7.550  -3.774  27.002  0.00  0.00    +0.000 HD
ENDBRANCH  34  52
ENDBRANCH  32  33
ENDBRANCH  31  32
ENDBRANCH   1  31
TORSDOF 17
ENDMDL
MODEL 8
REMARK VINA RESULT:      -6.8      2.417      4.778
REMARK  Name = 
REMARK  17 active torsions:
REMARK  status: ('A' for Active; 'I' for Inactive)
REMARK    1  A    between atoms: C_2  and  C_4
REMARK    2  A    between atoms: C_7  and  C_9
REMARK    3  A    between atoms: C_12  and  C_14
REMARK    4  A    between atoms: C_14  and  O_15
REMARK    5  A    between atoms: O_15  and  P_16
REMARK    6  A    between atoms: P_16  and  O_17
REMARK    7  A    between atoms: P_16  and  O_19
REMARK    8  A    between atoms: O_19  and  P_20
REMARK    9  A    between atoms: P_20  and  O_21
REMARK   10  A    between atoms: P_20  and  O_23
REMARK   11  A    between atoms: O_23  and  C_24
REMARK   12  A    between atoms: C_24  and  C_25
REMARK   13  A    between atoms: C_28  and  N_36
REMARK   14  A    between atoms: C_30  and  O_32
REMARK   15  A    between atoms: C_33  and  O_35
REMARK   16  A    between atoms: C_46  and  O_48
REMARK   17  A    between atoms: C_49  and  O_51
REMARK                            x       y       z     vdW  Elec       q    Type
REMARK                         _______ _______ _______ _____ _____    ______ ____
ROOT
ATOM      1  P   UNL     1       5.047  -4.151  22.904  0.00  0.00    +0.000 P 
ATOM      2  O   UNL     1       5.685  -3.870  21.516  0.00  0.00    +0.000 OA
ENDROOT
BRANCH   1   3
ATOM      3  O   UNL     1       6.270  -5.153  23.630  0.00  0.00    +0.000 OA
ATOM      4  H   UNL     1       6.848  -5.430  22.872  0.00  0.00    +0.000 HD
ENDBRANCH   1   3
BRANCH   1   5
ATOM      5  O   UNL     1       4.322  -5.597  22.291  0.00  0.00    +0.000 OA
BRANCH   5   6
ATOM      6  P   UNL     1       3.226  -6.423  23.425  0.00  0.00    +0.000 P 
ATOM      7  O   UNL     1       4.137  -7.269  24.358  0.00  0.00    +0.000 OA
BRANCH   6   8
ATOM      8  O   UNL     1       2.221  -7.591  22.616  0.00  0.00    +0.000 OA
ATOM      9  H   UNL     1       1.906  -8.205  23.325  0.00  0.00    +0.000 HD
ENDBRANCH   6   8
BRANCH   6  10
ATOM     10  O   UNL     1       2.236  -5.360  24.426  0.00  0.00    +0.000 OA
BRANCH  10  11
ATOM     11  C   UNL     1       2.542  -5.539  25.789  0.00  0.00    +0.000 C 
BRANCH  11  15
ATOM     12  C   UNL     1       5.203  -4.138  27.784  0.00  0.00    +0.000 C 
ATOM     13  C   UNL     1       4.220  -2.966  27.818  0.00  0.00    +0.000 C 
ATOM     14  C   UNL     1       3.280  -3.251  26.653  0.00  0.00    +0.000 C 
ATOM     15  C   UNL     1       3.731  -4.636  26.161  0.00  0.00    +0.000 C 
ATOM     16  O   UNL     1       4.528  -5.219  27.172  0.00  0.00    +0.000 OA
BRANCH  12  19
ATOM     17  C   UNL     1       8.443  -4.212  26.011  0.00  0.00    +0.000 A 
ATOM     18  N   UNL     1       7.342  -4.756  26.573  0.00  0.00    +0.000 NA
ATOM     19  C   UNL     1       6.518  -3.823  27.098  0.00  0.00    +0.000 A 
ATOM     20 SE   UNL     1       7.077  -2.099  26.913  0.00  0.00    +0.000 Se
ATOM     21  C   UNL     1       8.502  -2.834  26.082  0.00  0.00    +0.000 A 
BRANCH  17  25
ATOM     22  N   UNL     1       9.576  -6.363  25.547  0.00  0.00    +0.000 N 
ATOM     23  H   UNL     1       8.889  -6.860  26.130  0.00  0.00    +0.000 HD
ATOM     24  H   UNL     1      10.325  -6.906  25.093  0.00  0.00    +0.000 HD
ATOM     25  C   UNL     1       9.508  -5.021  25.370  0.00  0.00    +0.000 C 
ATOM     26  O   UNL     1      10.343  -4.471  24.667  0.00  0.00    +0.000 OA
ENDBRANCH  17  25
ENDBRANCH  12  19
BRANCH  14  27
ATOM     27  O   UNL     1       3.408  -2.287  25.642  0.00  0.00    +0.000 OA
ATOM     28  H   UNL     1       4.121  -2.617  25.033  0.00  0.00    +0.000 HD
ENDBRANCH  14  27
BRANCH  13  29
ATOM     29  O   UNL     1       3.494  -2.983  29.030  0.00  0.00    +0.000 OA
ATOM     30  H   UNL     1       4.032  -3.453  29.721  0.00  0.00    +0.000 HD
ENDBRANCH  13  29
ENDBRANCH  11  15
ENDBRANCH  10  11
ENDBRANCH   6  10
ENDBRANCH   5   6
ENDBRANCH   1   5
BRANCH   1  31
ATOM     31  O   UNL     1       5.772  -2.704  23.517  0.00  0.00    +0.000 OA
BRANCH  31  32
ATOM     32  C   UNL     1       6.692  -2.098  22.592  0.00  0.00    +0.000 C 
BRANCH  32  33
ATOM     33  C   UNL     1       8.041  -1.758  23.245  0.00  0.00    +0.000 C 
ATOM     34  C   UNL     1       9.204  -1.904  22.247  0.00  0.00    +0.000 C 
ATOM     35  C   UNL     1       9.412  -0.490  21.718  0.00  0.00    +0.000 C 
ATOM     36  C   UNL     1       8.474   0.352  22.597  0.00  0.00    +0.000 C 
ATOM     37  O   UNL     1       8.088  -0.426  23.715  0.00  0.00    +0.000 OA
BRANCH  36  38
ATOM     38  N   UNL     1       9.116   1.594  23.025  0.00  0.00    +0.000 N 
ATOM     39  C   UNL     1       8.624   2.844  22.990  0.00  0.00    +0.000 A 
ATOM     40  N   UNL     1       7.408   3.250  22.551  0.00  0.00    +0.000 NA
ATOM     41  C   UNL     1       7.117   4.583  22.611  0.00  0.00    +0.000 A 
ATOM     42  N   UNL     1       8.035   5.476  23.102  0.00  0.00    +0.000 NA
ATOM     43  C   UNL     1       9.263   5.066  23.547  0.00  0.00    +0.000 A 
ATOM     44  N   UNL     1      10.196   6.001  24.049  0.00  0.00    +0.000 N 
ATOM     45  H   UNL     1      11.122   5.697  24.381  0.00  0.00    +0.000 HD
ATOM     46  H   UNL     1       9.956   7.002  24.084  0.00  0.00    +0.000 HD
ATOM     47  C   UNL     1       9.548   3.704  23.480  0.00  0.00    +0.000 A 
ATOM     48  N   UNL     1      10.656   3.035  23.845  0.00  0.00    +0.000 NA
ATOM     49  C   UNL     1      10.359   1.740  23.550  0.00  0.00    +0.000 A 
ENDBRANCH  36  38
BRANCH  35  50
ATOM     50  O   UNL     1       9.062  -0.383  20.363  0.00  0.00    +0.000 OA
ATOM     51  H   UNL     1       9.859  -0.672  19.845  0.00  0.00    +0.000 HD
ENDBRANCH  35  50
BRANCH  34  52
ATOM     52  O   UNL     1      10.367  -2.345  22.911  0.00  0.00    +0.000 OA
ATOM     53  H   UNL     1      10.192  -3.236  23.306  0.00  0.00    +0.000 HD
ENDBRANCH  34  52
ENDBRANCH  32  33
ENDBRANCH  31  32
ENDBRANCH   1  31
TORSDOF 17
ENDMDL
MODEL 9
REMARK VINA RESULT:      -6.7      3.965      7.018
REMARK  Name = 
REMARK  17 active torsions:
REMARK  status: ('A' for Active; 'I' for Inactive)
REMARK    1  A    between atoms: C_2  and  C_4
REMARK    2  A    between atoms: C_7  and  C_9
REMARK    3  A    between atoms: C_12  and  C_14
REMARK    4  A    between atoms: C_14  and  O_15
REMARK    5  A    between atoms: O_15  and  P_16
REMARK    6  A    between atoms: P_16  and  O_17
REMARK    7  A    between atoms: P_16  and  O_19
REMARK    8  A    between atoms: O_19  and  P_20
REMARK    9  A    between atoms: P_20  and  O_21
REMARK   10  A    between atoms: P_20  and  O_23
REMARK   11  A    between atoms: O_23  and  C_24
REMARK   12  A    between atoms: C_24  and  C_25
REMARK   13  A    between atoms: C_28  and  N_36
REMARK   14  A    between atoms: C_30  and  O_32
REMARK   15  A    between atoms: C_33  and  O_35
REMARK   16  A    between atoms: C_46  and  O_48
REMARK   17  A    between atoms: C_49  and  O_51
REMARK                            x       y       z     vdW  Elec       q    Type
REMARK                         _______ _______ _______ _____ _____    ______ ____
ROOT
ATOM      1  P   UNL     1       7.198   2.972  25.899  0.00  0.00    +0.000 P 
ATOM      2  O   UNL     1       7.943   4.109  26.650  0.00  0.00    +0.000 OA
ENDROOT
BRANCH   1   3
ATOM      3  O   UNL     1       8.540   2.078  25.243  0.00  0.00    +0.000 OA
ATOM      4  H   UNL     1       8.942   1.623  26.027  0.00  0.00    +0.000 HD
ENDBRANCH   1   3
BRANCH   1   5
ATOM      5  O   UNL     1       7.204   3.911  24.447  0.00  0.00    +0.000 OA
BRANCH   5   6
ATOM      6  P   UNL     1       7.041   2.970  22.944  0.00  0.00    +0.000 P 
ATOM      7  O   UNL     1       6.565   3.976  21.860  0.00  0.00    +0.000 OA
BRANCH   6   8
ATOM      8  O   UNL     1       5.756   1.801  23.052  0.00  0.00    +0.000 OA
ATOM      9  H   UNL     1       5.024   2.161  22.492  0.00  0.00    +0.000 HD
ENDBRANCH   6   8
BRANCH   6  10
ATOM     10  O   UNL     1       8.520   2.195  22.376  0.00  0.00    +0.000 OA
BRANCH  10  11
ATOM     11  C   UNL     1       8.218   1.139  21.495  0.00  0.00    +0.000 C 
BRANCH  11  15
ATOM     12  C   UNL     1       8.660  -1.278  24.137  0.00  0.00    +0.000 C 
ATOM     13  C   UNL     1      10.126  -0.972  23.829  0.00  0.00    +0.000 C 
ATOM     14  C   UNL     1      10.078  -0.329  22.448  0.00  0.00    +0.000 C 
ATOM     15  C   UNL     1       8.572  -0.197  22.169  0.00  0.00    +0.000 C 
ATOM     16  O   UNL     1       7.886  -0.357  23.394  0.00  0.00    +0.000 OA
BRANCH  12  19
ATOM     17  C   UNL     1       7.194  -4.424  22.870  0.00  0.00    +0.000 A 
ATOM     18  N   UNL     1       7.369  -3.086  22.914  0.00  0.00    +0.000 NA
ATOM     19  C   UNL     1       8.256  -2.714  23.863  0.00  0.00    +0.000 A 
ATOM     20 SE   UNL     1       8.990  -4.080  24.820  0.00  0.00    +0.000 Se
ATOM     21  C   UNL     1       7.947  -5.132  23.785  0.00  0.00    +0.000 A 
BRANCH  17  25
ATOM     22  N   UNL     1       6.046  -6.423  21.968  0.00  0.00    +0.000 N 
ATOM     23  H   UNL     1       6.511  -7.016  22.667  0.00  0.00    +0.000 HD
ATOM     24  H   UNL     1       5.400  -6.863  21.296  0.00  0.00    +0.000 HD
ATOM     25  C   UNL     1       6.268  -5.087  21.919  0.00  0.00    +0.000 C 
ATOM     26  O   UNL     1       5.693  -4.418  21.074  0.00  0.00    +0.000 OA
ENDBRANCH  17  25
ENDBRANCH  12  19
BRANCH  14  27
ATOM     27  O   UNL     1      10.704  -1.133  21.485  0.00  0.00    +0.000 OA
ATOM     28  H   UNL     1      10.633  -0.642  20.624  0.00  0.00    +0.000 HD
ENDBRANCH  14  27
BRANCH  13  29
ATOM     29  O   UNL     1      10.631  -0.045  24.768  0.00  0.00    +0.000 OA
ATOM     30  H   UNL     1       9.868   0.378  25.245  0.00  0.00    +0.000 HD
ENDBRANCH  13  29
ENDBRANCH  11  15
ENDBRANCH  10  11
ENDBRANCH   6  10
ENDBRANCH   5   6
ENDBRANCH   1   5
BRANCH   1  31
ATOM     31  O   UNL     1       7.193   2.031  27.351  0.00  0.00    +0.000 OA
BRANCH  31  32
ATOM     32  C   UNL     1       7.615   0.671  27.144  0.00  0.00    +0.000 C 
BRANCH  32  33
ATOM     33  C   UNL     1       6.678  -0.343  27.820  0.00  0.00    +0.000 C 
ATOM     34  C   UNL     1       5.222   0.154  27.828  0.00  0.00    +0.000 C 
ATOM     35  C   UNL     1       4.604  -0.505  26.601  0.00  0.00    +0.000 C 
ATOM     36  C   UNL     1       5.714  -1.453  26.119  0.00  0.00    +0.000 C 
ATOM     37  O   UNL     1       6.668  -1.589  27.155  0.00  0.00    +0.000 OA
BRANCH  36  38
ATOM     38  N   UNL     1       5.173  -2.756  25.735  0.00  0.00    +0.000 N 
ATOM     39  C   UNL     1       5.445  -3.962  26.263  0.00  0.00    +0.000 A 
ATOM     40  N   UNL     1       6.286  -4.256  27.284  0.00  0.00    +0.000 NA
ATOM     41  C   UNL     1       6.407  -5.563  27.659  0.00  0.00    +0.000 A 
ATOM     42  N   UNL     1       5.693  -6.542  27.015  0.00  0.00    +0.000 NA
ATOM     43  C   UNL     1       4.843  -6.245  25.985  0.00  0.00    +0.000 A 
ATOM     44  N   UNL     1       4.117  -7.268  25.334  0.00  0.00    +0.000 N 
ATOM     45  H   UNL     1       3.478  -7.049  24.556  0.00  0.00    +0.000 HD
ATOM     46  H   UNL     1       4.224  -8.247  25.633  0.00  0.00    +0.000 HD
ATOM     47  C   UNL     1       4.728  -4.909  25.611  0.00  0.00    +0.000 A 
ATOM     48  N   UNL     1       3.977  -4.341  24.651  0.00  0.00    +0.000 NA
ATOM     49  C   UNL     1       4.275  -3.017  24.752  0.00  0.00    +0.000 A 
ENDBRANCH  36  38
BRANCH  35  50
ATOM     50  O   UNL     1       4.281   0.436  25.610  0.00  0.00    +0.000 OA
ATOM     51  H   UNL     1       3.861   1.204  26.080  0.00  0.00    +0.000 HD
ENDBRANCH  35  50
BRANCH  34  52
ATOM     52  O   UNL     1       4.561  -0.286  28.994  0.00  0.00    +0.000 OA
ATOM     53  H   UNL     1       4.436   0.485  29.602  0.00  0.00    +0.000 HD
ENDBRANCH  34  52
ENDBRANCH  32  33
ENDBRANCH  31  32
ENDBRANCH   1  31
TORSDOF 17
ENDMDL
