MODEL 1
REMARK VINA RESULT:      -8.3      0.000      0.000
REMARK  Name = 
REMARK  6 active torsions:
REMARK  status: ('A' for Active; 'I' for Inactive)
REMARK    1  A    between atoms: C_2  and  C_3
REMARK    2  A    between atoms: C_2  and  C_15
REMARK    3  A    between atoms: C_2  and  P_25
REMARK    4  A    between atoms: C_3  and  C_5
REMARK    5  A    between atoms: P_25  and  O_26
REMARK    6  A    between atoms: P_25  and  O_27
REMARK                            x       y       z     vdW  Elec       q    Type
REMARK                         _______ _______ _______ _____ _____    ______ ____
ROOT
ATOM      1  C   UNL     1       7.650  -3.735  25.029  0.00  0.00    +0.204 C 
ENDROOT
BRANCH   1   2
ATOM      2  C   UNL     1       6.830  -4.372  23.837  0.00  0.00    -0.018 A 
ATOM      3  C   UNL     1       5.406  -4.436  23.837  0.00  0.00    -0.013 A 
ATOM      4  C   UNL     1       4.777  -5.402  23.008  0.00  0.00    -0.018 A 
ATOM      5  C   UNL     1       3.398  -5.638  23.118  0.00  0.00    +0.008 A 
ATOM      6  C   UNL     1       2.612  -4.894  23.993  0.00  0.00    +0.001 A 
ATOM      7  C   UNL     1       3.187  -3.862  24.722  0.00  0.00    +0.001 A 
ATOM      8  C   UNL     1       5.529  -6.156  22.097  0.00  0.00    +0.008 A 
ATOM      9  C   UNL     1       6.906  -6.003  22.013  0.00  0.00    +0.001 A 
ATOM     10  C   UNL     1       4.564  -3.633  24.642  0.00  0.00    +0.009 A 
ATOM     11  C   UNL     1       7.554  -5.145  22.894  0.00  0.00    +0.005 A 
ENDBRANCH   1   2
BRANCH   1  12
ATOM     12  C   UNL     1       9.045  -3.318  24.486  0.00  0.00    +0.182 C 
ATOM     13  O   UNL     1      10.014  -4.085  24.533  0.00  0.00    -0.291 OA
BRANCH  12  14
ATOM     14  C   UNL     1       9.335  -1.997  23.836  0.00  0.00    +0.019 A 
ATOM     15  C   UNL     1       9.904  -1.854  22.575  0.00  0.00    +0.012 A 
ATOM     16  C   UNL     1      10.142  -0.578  22.044  0.00  0.00    +0.009 A 
ATOM     17  C   UNL     1       9.862   0.585  22.778  0.00  0.00    -0.018 A 
ATOM     18  C   UNL     1       9.321   0.460  24.074  0.00  0.00    -0.017 A 
ATOM     19  C   UNL     1       9.071   1.622  24.827  0.00  0.00    +0.008 A 
ATOM     20  C   UNL     1       9.343   2.886  24.306  0.00  0.00    +0.001 A 
ATOM     21  C   UNL     1       9.870   3.012  23.017  0.00  0.00    +0.001 A 
ATOM     22  C   UNL     1      10.126   1.865  22.260  0.00  0.00    +0.008 A 
ATOM     23  C   UNL     1       9.057  -0.828  24.580  0.00  0.00    +0.020 A 
ENDBRANCH  12  14
ENDBRANCH   1  12
BRANCH   1  24
ATOM     24  P   UNL     1       7.783  -4.951  26.392  0.00  0.00    +0.343 P 
ATOM     25  O   UNL     1       7.896  -5.978  27.544  0.00  0.00    -0.258 OA
BRANCH  24  26
ATOM     26  O   UNL     1       6.655  -4.089  27.228  0.00  0.00    -0.323 OA
ATOM     27  H   UNL     1       5.865  -3.896  26.694  0.00  0.00    +0.220 HD
ENDBRANCH  24  26
BRANCH  24  28
ATOM     28  O   UNL     1       9.010  -4.056  27.037  0.00  0.00    -0.323 OA
ATOM     29  H   UNL     1       9.777  -4.158  26.435  0.00  0.00    +0.220 HD
ENDBRANCH  24  28
ENDBRANCH   1  24
TORSDOF 6
ENDMDL
MODEL 2
REMARK VINA RESULT:      -7.8      2.676      3.907
REMARK  Name = 
REMARK  6 active torsions:
REMARK  status: ('A' for Active; 'I' for Inactive)
REMARK    1  A    between atoms: C_2  and  C_3
REMARK    2  A    between atoms: C_2  and  C_15
REMARK    3  A    between atoms: C_2  and  P_25
REMARK    4  A    between atoms: C_3  and  C_5
REMARK    5  A    between atoms: P_25  and  O_26
REMARK    6  A    between atoms: P_25  and  O_27
REMARK                            x       y       z     vdW  Elec       q    Type
REMARK                         _______ _______ _______ _____ _____    ______ ____
ROOT
ATOM      1  C   UNL     1       6.786  -5.218  23.965  0.00  0.00    +0.204 C 
ENDROOT
BRANCH   1   2
ATOM      2  C   UNL     1       5.835  -4.409  24.935  0.00  0.00    -0.018 A 
ATOM      3  C   UNL     1       5.721  -4.716  26.323  0.00  0.00    -0.013 A 
ATOM      4  C   UNL     1       4.552  -4.293  27.009  0.00  0.00    -0.018 A 
ATOM      5  C   UNL     1       4.301  -4.736  28.318  0.00  0.00    +0.008 A 
ATOM      6  C   UNL     1       5.215  -5.544  28.987  0.00  0.00    +0.001 A 
ATOM      7  C   UNL     1       6.420  -5.866  28.378  0.00  0.00    +0.001 A 
ATOM      8  C   UNL     1       3.618  -3.460  26.379  0.00  0.00    +0.008 A 
ATOM      9  C   UNL     1       3.795  -3.063  25.061  0.00  0.00    +0.001 A 
ATOM     10  C   UNL     1       6.671  -5.454  27.066  0.00  0.00    +0.009 A 
ATOM     11  C   UNL     1       4.873  -3.556  24.336  0.00  0.00    +0.005 A 
ENDBRANCH   1   2
BRANCH   1  12
ATOM     12  C   UNL     1       8.238  -4.705  24.177  0.00  0.00    +0.182 C 
ATOM     13  O   UNL     1       9.195  -5.484  24.252  0.00  0.00    -0.291 OA
BRANCH  12  14
ATOM     14  C   UNL     1       8.614  -3.256  24.273  0.00  0.00    +0.019 A 
ATOM     15  C   UNL     1       8.642  -2.532  25.460  0.00  0.00    +0.012 A 
ATOM     16  C   UNL     1       9.005  -1.177  25.458  0.00  0.00    +0.009 A 
ATOM     17  C   UNL     1       9.301  -0.500  24.265  0.00  0.00    -0.018 A 
ATOM     18  C   UNL     1       9.240  -1.207  23.046  0.00  0.00    -0.017 A 
ATOM     19  C   UNL     1       9.503  -0.524  21.844  0.00  0.00    +0.008 A 
ATOM     20  C   UNL     1       9.828   0.832  21.847  0.00  0.00    +0.001 A 
ATOM     21  C   UNL     1       9.899   1.531  23.055  0.00  0.00    +0.001 A 
ATOM     22  C   UNL     1       9.637   0.865  24.256  0.00  0.00    +0.008 A 
ATOM     23  C   UNL     1       8.907  -2.575  23.069  0.00  0.00    +0.020 A 
ENDBRANCH  12  14
ENDBRANCH   1  12
BRANCH   1  24
ATOM     24  P   UNL     1       6.227  -4.990  22.237  0.00  0.00    +0.343 P 
ATOM     25  O   UNL     1       5.754  -4.797  20.776  0.00  0.00    -0.258 OA
BRANCH  24  26
ATOM     26  O   UNL     1       5.387  -6.403  22.356  0.00  0.00    -0.323 OA
ATOM     27  H   UNL     1       4.648  -6.342  22.984  0.00  0.00    +0.220 HD
ENDBRANCH  24  26
BRANCH  24  28
ATOM     28  O   UNL     1       7.578  -5.785  21.720  0.00  0.00    -0.323 OA
ATOM     29  H   UNL     1       8.326  -5.437  22.251  0.00  0.00    +0.220 HD
ENDBRANCH  24  28
ENDBRANCH   1  24
TORSDOF 6
ENDMDL
MODEL 3
REMARK VINA RESULT:      -7.7      1.293      1.812
REMARK  Name = 
REMARK  6 active torsions:
REMARK  status: ('A' for Active; 'I' for Inactive)
REMARK    1  A    between atoms: C_2  and  C_3
REMARK    2  A    between atoms: C_2  and  C_15
REMARK    3  A    between atoms: C_2  and  P_25
REMARK    4  A    between atoms: C_3  and  C_5
REMARK    5  A    between atoms: P_25  and  O_26
REMARK    6  A    between atoms: P_25  and  O_27
REMARK                            x       y       z     vdW  Elec       q    Type
REMARK                         _______ _______ _______ _____ _____    ______ ____
ROOT
ATOM      1  C   UNL     1       7.099  -4.156  25.729  0.00  0.00    +0.204 C 
ENDROOT
BRANCH   1   2
ATOM      2  C   UNL     1       6.438  -4.522  24.340  0.00  0.00    -0.018 A 
ATOM      3  C   UNL     1       5.030  -4.681  24.183  0.00  0.00    -0.013 A 
ATOM      4  C   UNL     1       4.560  -5.444  23.082  0.00  0.00    -0.018 A 
ATOM      5  C   UNL     1       3.203  -5.794  22.992  0.00  0.00    +0.008 A 
ATOM      6  C   UNL     1       2.286  -5.353  23.941  0.00  0.00    +0.001 A 
ATOM      7  C   UNL     1       2.705  -4.503  24.956  0.00  0.00    +0.001 A 
ATOM      8  C   UNL     1       5.447  -5.889  22.092  0.00  0.00    +0.008 A 
ATOM      9  C   UNL     1       6.807  -5.626  22.187  0.00  0.00    +0.001 A 
ATOM     10  C   UNL     1       4.057  -4.169  25.073  0.00  0.00    +0.009 A 
ATOM     11  C   UNL     1       7.302  -4.979  23.312  0.00  0.00    +0.005 A 
ENDBRANCH   1   2
BRANCH   1  12
ATOM     12  C   UNL     1       6.971  -2.620  25.932  0.00  0.00    +0.182 C 
ATOM     13  O   UNL     1       6.502  -2.142  26.971  0.00  0.00    -0.291 OA
BRANCH  12  14
ATOM     14  C   UNL     1       7.425  -1.598  24.932  0.00  0.00    +0.019 A 
ATOM     15  C   UNL     1       6.799  -1.367  23.712  0.00  0.00    +0.012 A 
ATOM     16  C   UNL     1       7.292  -0.390  22.834  0.00  0.00    +0.009 A 
ATOM     17  C   UNL     1       8.448   0.347  23.133  0.00  0.00    -0.018 A 
ATOM     18  C   UNL     1       9.119   0.100  24.349  0.00  0.00    -0.017 A 
ATOM     19  C   UNL     1      10.299   0.812  24.638  0.00  0.00    +0.008 A 
ATOM     20  C   UNL     1      10.802   1.756  23.744  0.00  0.00    +0.001 A 
ATOM     21  C   UNL     1      10.133   2.010  22.544  0.00  0.00    +0.001 A 
ATOM     22  C   UNL     1       8.962   1.307  22.243  0.00  0.00    +0.008 A 
ATOM     23  C   UNL     1       8.592  -0.860  25.234  0.00  0.00    +0.020 A 
ENDBRANCH  12  14
ENDBRANCH   1  12
BRANCH   1  24
ATOM     24  P   UNL     1       8.847  -4.702  25.732  0.00  0.00    +0.343 P 
ATOM     25  O   UNL     1      10.324  -5.164  25.736  0.00  0.00    -0.258 OA
BRANCH  24  26
ATOM     26  O   UNL     1       8.400  -6.018  26.618  0.00  0.00    -0.323 OA
ATOM     27  H   UNL     1       8.770  -6.845  26.265  0.00  0.00    +0.220 HD
ENDBRANCH  24  26
BRANCH  24  28
ATOM     28  O   UNL     1       9.096  -3.812  27.100  0.00  0.00    -0.323 OA
ATOM     29  H   UNL     1       8.394  -3.128  27.120  0.00  0.00    +0.220 HD
ENDBRANCH  24  28
ENDBRANCH   1  24
TORSDOF 6
ENDMDL
MODEL 4
REMARK VINA RESULT:      -7.4      2.914      7.628
REMARK  Name = 
REMARK  6 active torsions:
REMARK  status: ('A' for Active; 'I' for Inactive)
REMARK    1  A    between atoms: C_2  and  C_3
REMARK    2  A    between atoms: C_2  and  C_15
REMARK    3  A    between atoms: C_2  and  P_25
REMARK    4  A    between atoms: C_3  and  C_5
REMARK    5  A    between atoms: P_25  and  O_26
REMARK    6  A    between atoms: P_25  and  O_27
REMARK                            x       y       z     vdW  Elec       q    Type
REMARK                         _______ _______ _______ _____ _____    ______ ____
ROOT
ATOM      1  C   UNL     1       9.027   1.219  24.278  0.00  0.00    +0.204 C 
ENDROOT
BRANCH   1   2
ATOM      2  C   UNL     1       8.314   2.324  23.401  0.00  0.00    -0.018 A 
ATOM      3  C   UNL     1       8.767   3.676  23.360  0.00  0.00    -0.013 A 
ATOM      4  C   UNL     1       7.847   4.680  22.956  0.00  0.00    -0.018 A 
ATOM      5  C   UNL     1       8.180   6.037  23.086  0.00  0.00    +0.008 A 
ATOM      6  C   UNL     1       9.432   6.426  23.553  0.00  0.00    +0.001 A 
ATOM      7  C   UNL     1      10.388   5.459  23.834  0.00  0.00    +0.001 A 
ATOM      8  C   UNL     1       6.584   4.330  22.459  0.00  0.00    +0.008 A 
ATOM      9  C   UNL     1       6.191   3.001  22.387  0.00  0.00    +0.001 A 
ATOM     10  C   UNL     1      10.061   4.104  23.736  0.00  0.00    +0.009 A 
ATOM     11  C   UNL     1       7.032   2.011  22.881  0.00  0.00    +0.005 A 
ENDBRANCH   1   2
BRANCH   1  12
ATOM     12  C   UNL     1       9.482   0.074  23.331  0.00  0.00    +0.182 C 
ATOM     13  O   UNL     1      10.312   0.266  22.435  0.00  0.00    -0.291 OA
BRANCH  12  14
ATOM     14  C   UNL     1       9.001  -1.344  23.433  0.00  0.00    +0.019 A 
ATOM     15  C   UNL     1       9.620  -2.326  24.199  0.00  0.00    +0.012 A 
ATOM     16  C   UNL     1       9.102  -3.630  24.236  0.00  0.00    +0.009 A 
ATOM     17  C   UNL     1       7.983  -3.995  23.471  0.00  0.00    -0.018 A 
ATOM     18  C   UNL     1       7.366  -3.022  22.658  0.00  0.00    -0.017 A 
ATOM     19  C   UNL     1       6.265  -3.393  21.863  0.00  0.00    +0.008 A 
ATOM     20  C   UNL     1       5.778  -4.699  21.877  0.00  0.00    +0.001 A 
ATOM     21  C   UNL     1       6.382  -5.661  22.691  0.00  0.00    +0.001 A 
ATOM     22  C   UNL     1       7.479  -5.307  23.483  0.00  0.00    +0.008 A 
ATOM     23  C   UNL     1       7.877  -1.710  22.658  0.00  0.00    +0.020 A 
ENDBRANCH  12  14
ENDBRANCH   1  12
BRANCH   1  24
ATOM     24  P   UNL     1       7.868   0.622  25.564  0.00  0.00    +0.343 P 
ATOM     25  O   UNL     1       6.889   0.118  26.651  0.00  0.00    -0.258 OA
BRANCH  24  26
ATOM     26  O   UNL     1       7.890   2.127  26.235  0.00  0.00    -0.323 OA
ATOM     27  H   UNL     1       7.249   2.728  25.818  0.00  0.00    +0.220 HD
ENDBRANCH  24  26
BRANCH  24  28
ATOM     28  O   UNL     1       9.161   0.150  26.474  0.00  0.00    -0.323 OA
ATOM     29  H   UNL     1       9.760  -0.344  25.875  0.00  0.00    +0.220 HD
ENDBRANCH  24  28
ENDBRANCH   1  24
TORSDOF 6
ENDMDL
MODEL 5
REMARK VINA RESULT:      -7.4      2.595      3.654
REMARK  Name = 
REMARK  6 active torsions:
REMARK  status: ('A' for Active; 'I' for Inactive)
REMARK    1  A    between atoms: C_2  and  C_3
REMARK    2  A    between atoms: C_2  and  C_15
REMARK    3  A    between atoms: C_2  and  P_25
REMARK    4  A    between atoms: C_3  and  C_5
REMARK    5  A    between atoms: P_25  and  O_26
REMARK    6  A    between atoms: P_25  and  O_27
REMARK                            x       y       z     vdW  Elec       q    Type
REMARK                         _______ _______ _______ _____ _____    ______ ____
ROOT
ATOM      1  C   UNL     1       7.233  -4.152  24.126  0.00  0.00    +0.204 C 
ENDROOT
BRANCH   1   2
ATOM      2  C   UNL     1       6.505  -3.396  25.308  0.00  0.00    -0.018 A 
ATOM      3  C   UNL     1       6.241  -4.017  26.564  0.00  0.00    -0.013 A 
ATOM      4  C   UNL     1       5.209  -3.477  27.376  0.00  0.00    -0.018 A 
ATOM      5  C   UNL     1       4.779  -4.163  28.523  0.00  0.00    +0.008 A 
ATOM      6  C   UNL     1       5.392  -5.348  28.920  0.00  0.00    +0.001 A 
ATOM      7  C   UNL     1       6.484  -5.826  28.208  0.00  0.00    +0.001 A 
ATOM      8  C   UNL     1       4.582  -2.274  27.024  0.00  0.00    +0.008 A 
ATOM      9  C   UNL     1       4.928  -1.606  25.858  0.00  0.00    +0.001 A 
ATOM     10  C   UNL     1       6.905  -5.168  27.049  0.00  0.00    +0.009 A 
ATOM     11  C   UNL     1       5.855  -2.175  24.993  0.00  0.00    +0.005 A 
ENDBRANCH   1   2
BRANCH   1  12
ATOM     12  C   UNL     1       8.675  -3.584  24.007  0.00  0.00    +0.182 C 
ATOM     13  O   UNL     1       9.658  -4.230  24.388  0.00  0.00    -0.291 OA
BRANCH  12  14
ATOM     14  C   UNL     1       9.008  -2.252  23.403  0.00  0.00    +0.019 A 
ATOM     15  C   UNL     1       9.158  -2.028  22.039  0.00  0.00    +0.012 A 
ATOM     16  C   UNL     1       9.472  -0.747  21.560  0.00  0.00    +0.009 A 
ATOM     17  C   UNL     1       9.690   0.329  22.434  0.00  0.00    -0.018 A 
ATOM     18  C   UNL     1       9.581   0.112  23.823  0.00  0.00    -0.017 A 
ATOM     19  C   UNL     1       9.833   1.180  24.705  0.00  0.00    +0.008 A 
ATOM     20  C   UNL     1      10.179   2.441  24.222  0.00  0.00    +0.001 A 
ATOM     21  C   UNL     1      10.277   2.660  22.845  0.00  0.00    +0.001 A 
ATOM     22  C   UNL     1      10.033   1.607  21.959  0.00  0.00    +0.008 A 
ATOM     23  C   UNL     1       9.232  -1.171  24.286  0.00  0.00    +0.020 A 
ENDBRANCH  12  14
ENDBRANCH   1  12
BRANCH   1  24
ATOM     24  P   UNL     1       6.279  -3.923  22.580  0.00  0.00    +0.343 P 
ATOM     25  O   UNL     1       5.473  -3.730  21.274  0.00  0.00    -0.258 OA
BRANCH  24  26
ATOM     26  O   UNL     1       5.174  -5.011  23.139  0.00  0.00    -0.323 OA
ATOM     27  H   UNL     1       4.945  -4.860  24.072  0.00  0.00    +0.220 HD
ENDBRANCH  24  26
BRANCH  24  28
ATOM     28  O   UNL     1       7.171  -5.122  21.881  0.00  0.00    -0.323 OA
ATOM     29  H   UNL     1       7.854  -5.380  22.536  0.00  0.00    +0.220 HD
ENDBRANCH  24  28
ENDBRANCH   1  24
TORSDOF 6
ENDMDL
MODEL 6
REMARK VINA RESULT:      -7.3      1.631      3.004
REMARK  Name = 
REMARK  6 active torsions:
REMARK  status: ('A' for Active; 'I' for Inactive)
REMARK    1  A    between atoms: C_2  and  C_3
REMARK    2  A    between atoms: C_2  and  C_15
REMARK    3  A    between atoms: C_2  and  P_25
REMARK    4  A    between atoms: C_3  and  C_5
REMARK    5  A    between atoms: P_25  and  O_26
REMARK    6  A    between atoms: P_25  and  O_27
REMARK                            x       y       z     vdW  Elec       q    Type
REMARK                         _______ _______ _______ _____ _____    ______ ____
ROOT
ATOM      1  C   UNL     1       7.509  -4.472  26.231  0.00  0.00    +0.204 C 
ENDROOT
BRANCH   1   2
ATOM      2  C   UNL     1       6.515  -5.477  25.521  0.00  0.00    -0.018 A 
ATOM      3  C   UNL     1       6.398  -5.559  24.102  0.00  0.00    -0.013 A 
ATOM      4  C   UNL     1       5.205  -6.106  23.558  0.00  0.00    -0.018 A 
ATOM      5  C   UNL     1       4.958  -6.030  22.178  0.00  0.00    +0.008 A 
ATOM      6  C   UNL     1       5.896  -5.476  21.312  0.00  0.00    +0.001 A 
ATOM      7  C   UNL     1       7.119  -5.049  21.810  0.00  0.00    +0.001 A 
ATOM      8  C   UNL     1       4.245  -6.693  24.394  0.00  0.00    +0.008 A 
ATOM      9  C   UNL     1       4.421  -6.719  25.770  0.00  0.00    +0.001 A 
ATOM     10  C   UNL     1       7.369  -5.094  23.185  0.00  0.00    +0.009 A 
ATOM     11  C   UNL     1       5.526  -6.091  26.331  0.00  0.00    +0.005 A 
ENDBRANCH   1   2
BRANCH   1  12
ATOM     12  C   UNL     1       7.015  -3.026  25.947  0.00  0.00    +0.182 C 
ATOM     13  O   UNL     1       5.845  -2.688  26.161  0.00  0.00    -0.291 OA
BRANCH  12  14
ATOM     14  C   UNL     1       7.893  -1.922  25.435  0.00  0.00    +0.019 A 
ATOM     15  C   UNL     1       8.676  -1.107  26.246  0.00  0.00    +0.012 A 
ATOM     16  C   UNL     1       9.468  -0.095  25.682  0.00  0.00    +0.009 A 
ATOM     17  C   UNL     1       9.461   0.156  24.302  0.00  0.00    -0.018 A 
ATOM     18  C   UNL     1       8.644  -0.635  23.468  0.00  0.00    -0.017 A 
ATOM     19  C   UNL     1       8.607  -0.363  22.087  0.00  0.00    +0.008 A 
ATOM     20  C   UNL     1       9.370   0.667  21.539  0.00  0.00    +0.001 A 
ATOM     21  C   UNL     1      10.189   1.445  22.362  0.00  0.00    +0.001 A 
ATOM     22  C   UNL     1      10.232   1.188  23.736  0.00  0.00    +0.008 A 
ATOM     23  C   UNL     1       7.880  -1.667  24.045  0.00  0.00    +0.020 A 
ENDBRANCH  12  14
ENDBRANCH   1  12
BRANCH   1  24
ATOM     24  P   UNL     1       9.205  -4.751  25.603  0.00  0.00    +0.343 P 
ATOM     25  O   UNL     1      10.640  -4.987  25.072  0.00  0.00    -0.258 OA
BRANCH  24  26
ATOM     26  O   UNL     1       8.989  -6.369  25.829  0.00  0.00    -0.323 OA
ATOM     27  H   UNL     1       8.533  -6.790  25.080  0.00  0.00    +0.220 HD
ENDBRANCH  24  26
BRANCH  24  28
ATOM     28  O   UNL     1       9.778  -4.568  27.140  0.00  0.00    -0.323 OA
ATOM     29  H   UNL     1       9.905  -3.606  27.278  0.00  0.00    +0.220 HD
ENDBRANCH  24  28
ENDBRANCH   1  24
TORSDOF 6
ENDMDL
MODEL 7
REMARK VINA RESULT:      -7.2      2.660      3.429
REMARK  Name = 
REMARK  6 active torsions:
REMARK  status: ('A' for Active; 'I' for Inactive)
REMARK    1  A    between atoms: C_2  and  C_3
REMARK    2  A    between atoms: C_2  and  C_15
REMARK    3  A    between atoms: C_2  and  P_25
REMARK    4  A    between atoms: C_3  and  C_5
REMARK    5  A    between atoms: P_25  and  O_26
REMARK    6  A    between atoms: P_25  and  O_27
REMARK                            x       y       z     vdW  Elec       q    Type
REMARK                         _______ _______ _______ _____ _____    ______ ____
ROOT
ATOM      1  C   UNL     1       6.691  -1.563  25.425  0.00  0.00    +0.204 C 
ENDROOT
BRANCH   1   2
ATOM      2  C   UNL     1       7.571  -2.790  24.956  0.00  0.00    -0.018 A 
ATOM      3  C   UNL     1       7.294  -3.516  23.760  0.00  0.00    -0.013 A 
ATOM      4  C   UNL     1       7.798  -4.838  23.646  0.00  0.00    -0.018 A 
ATOM      5  C   UNL     1       7.391  -5.661  22.584  0.00  0.00    +0.008 A 
ATOM      6  C   UNL     1       6.538  -5.182  21.593  0.00  0.00    +0.001 A 
ATOM      7  C   UNL     1       6.135  -3.854  21.621  0.00  0.00    +0.001 A 
ATOM      8  C   UNL     1       8.676  -5.351  24.610  0.00  0.00    +0.008 A 
ATOM      9  C   UNL     1       9.041  -4.594  25.714  0.00  0.00    +0.001 A 
ATOM     10  C   UNL     1       6.510  -3.031  22.687  0.00  0.00    +0.009 A 
ATOM     11  C   UNL     1       8.472  -3.340  25.903  0.00  0.00    +0.005 A 
ENDBRANCH   1   2
BRANCH   1  12
ATOM     12  C   UNL     1       7.628  -0.538  26.123  0.00  0.00    +0.182 C 
ATOM     13  O   UNL     1       7.690  -0.452  27.355  0.00  0.00    -0.291 OA
BRANCH  12  14
ATOM     14  C   UNL     1       8.548   0.395  25.392  0.00  0.00    +0.019 A 
ATOM     15  C   UNL     1       9.751   0.009  24.809  0.00  0.00    +0.012 A 
ATOM     16  C   UNL     1      10.552   0.949  24.145  0.00  0.00    +0.009 A 
ATOM     17  C   UNL     1      10.195   2.305  24.087  0.00  0.00    -0.018 A 
ATOM     18  C   UNL     1       8.999   2.723  24.707  0.00  0.00    -0.017 A 
ATOM     19  C   UNL     1       8.654   4.087  24.682  0.00  0.00    +0.008 A 
ATOM     20  C   UNL     1       9.474   5.022  24.050  0.00  0.00    +0.001 A 
ATOM     21  C   UNL     1      10.655   4.608  23.427  0.00  0.00    +0.001 A 
ATOM     22  C   UNL     1      11.010   3.256  23.447  0.00  0.00    +0.008 A 
ATOM     23  C   UNL     1       8.189   1.761  25.340  0.00  0.00    +0.020 A 
ENDBRANCH  12  14
ENDBRANCH   1  12
BRANCH   1  24
ATOM     24  P   UNL     1       5.371  -2.156  26.546  0.00  0.00    +0.343 P 
ATOM     25  O   UNL     1       4.255  -2.657  27.494  0.00  0.00    -0.258 OA
BRANCH  24  26
ATOM     26  O   UNL     1       4.346  -2.212  25.257  0.00  0.00    -0.323 OA
ATOM     27  H   UNL     1       3.599  -2.817  25.404  0.00  0.00    +0.220 HD
ENDBRANCH  24  26
BRANCH  24  28
ATOM     28  O   UNL     1       4.965  -0.587  26.858  0.00  0.00    -0.323 OA
ATOM     29  H   UNL     1       5.241  -0.066  26.074  0.00  0.00    +0.220 HD
ENDBRANCH  24  28
ENDBRANCH   1  24
TORSDOF 6
ENDMDL
MODEL 8
REMARK VINA RESULT:      -7.0      1.474      2.163
REMARK  Name = 
REMARK  6 active torsions:
REMARK  status: ('A' for Active; 'I' for Inactive)
REMARK    1  A    between atoms: C_2  and  C_3
REMARK    2  A    between atoms: C_2  and  C_15
REMARK    3  A    between atoms: C_2  and  P_25
REMARK    4  A    between atoms: C_3  and  C_5
REMARK    5  A    between atoms: P_25  and  O_26
REMARK    6  A    between atoms: P_25  and  O_27
REMARK                            x       y       z     vdW  Elec       q    Type
REMARK                         _______ _______ _______ _____ _____    ______ ____
ROOT
ATOM      1  C   UNL     1       7.700  -3.068  24.068  0.00  0.00    +0.204 C 
ENDROOT
BRANCH   1   2
ATOM      2  C   UNL     1       6.533  -3.895  23.395  0.00  0.00    -0.018 A 
ATOM      3  C   UNL     1       5.201  -3.889  23.903  0.00  0.00    -0.013 A 
ATOM      4  C   UNL     1       4.348  -4.973  23.565  0.00  0.00    -0.018 A 
ATOM      5  C   UNL     1       3.101  -5.115  24.194  0.00  0.00    +0.008 A 
ATOM      6  C   UNL     1       2.651  -4.171  25.112  0.00  0.00    +0.001 A 
ATOM      7  C   UNL     1       3.416  -3.040  25.362  0.00  0.00    +0.001 A 
ATOM      8  C   UNL     1       4.755  -5.933  22.628  0.00  0.00    +0.008 A 
ATOM      9  C   UNL     1       6.011  -5.867  22.042  0.00  0.00    +0.001 A 
ATOM     10  C   UNL     1       4.671  -2.899  24.763  0.00  0.00    +0.009 A 
ATOM     11  C   UNL     1       6.902  -4.879  22.443  0.00  0.00    +0.005 A 
ENDBRANCH   1   2
BRANCH   1  12
ATOM     12  C   UNL     1       8.203  -2.019  23.036  0.00  0.00    +0.182 C 
ATOM     13  O   UNL     1       8.721  -2.361  21.967  0.00  0.00    -0.291 OA
BRANCH  12  14
ATOM     14  C   UNL     1       8.081  -0.535  23.216  0.00  0.00    +0.019 A 
ATOM     15  C   UNL     1       6.872   0.152  23.242  0.00  0.00    +0.012 A 
ATOM     16  C   UNL     1       6.849   1.544  23.415  0.00  0.00    +0.009 A 
ATOM     17  C   UNL     1       8.034   2.288  23.518  0.00  0.00    -0.018 A 
ATOM     18  C   UNL     1       9.272   1.614  23.454  0.00  0.00    -0.017 A 
ATOM     19  C   UNL     1      10.463   2.360  23.522  0.00  0.00    +0.008 A 
ATOM     20  C   UNL     1      10.433   3.748  23.658  0.00  0.00    +0.001 A 
ATOM     21  C   UNL     1       9.208   4.416  23.731  0.00  0.00    +0.001 A 
ATOM     22  C   UNL     1       8.017   3.687  23.662  0.00  0.00    +0.008 A 
ATOM     23  C   UNL     1       9.276   0.213  23.315  0.00  0.00    +0.020 A 
ENDBRANCH  12  14
ENDBRANCH   1  12
BRANCH   1  24
ATOM     24  P   UNL     1       9.033  -4.210  24.587  0.00  0.00    +0.343 P 
ATOM     25  O   UNL     1      10.160  -5.175  25.026  0.00  0.00    -0.258 OA
BRANCH  24  26
ATOM     26  O   UNL     1       8.936  -3.581  26.107  0.00  0.00    -0.323 OA
ATOM     27  H   UNL     1       8.676  -4.246  26.767  0.00  0.00    +0.220 HD
ENDBRANCH  24  26
BRANCH  24  28
ATOM     28  O   UNL     1      10.145  -3.075  24.141  0.00  0.00    -0.323 OA
ATOM     29  H   UNL     1      10.937  -3.566  23.835  0.00  0.00    +0.220 HD
ENDBRANCH  24  28
ENDBRANCH   1  24
TORSDOF 6
ENDMDL
MODEL 9
REMARK VINA RESULT:      -6.9      3.014      6.868
REMARK  Name = 
REMARK  6 active torsions:
REMARK  status: ('A' for Active; 'I' for Inactive)
REMARK    1  A    between atoms: C_2  and  C_3
REMARK    2  A    between atoms: C_2  and  C_15
REMARK    3  A    between atoms: C_2  and  P_25
REMARK    4  A    between atoms: C_3  and  C_5
REMARK    5  A    between atoms: P_25  and  O_26
REMARK    6  A    between atoms: P_25  and  O_27
REMARK                            x       y       z     vdW  Elec       q    Type
REMARK                         _______ _______ _______ _____ _____    ______ ____
ROOT
ATOM      1  C   UNL     1       7.296   0.182  26.282  0.00  0.00    +0.204 C 
ENDROOT
BRANCH   1   2
ATOM      2  C   UNL     1       6.939   0.699  24.831  0.00  0.00    -0.018 A 
ATOM      3  C   UNL     1       7.917   0.819  23.801  0.00  0.00    -0.013 A 
ATOM      4  C   UNL     1       7.648   1.699  22.719  0.00  0.00    -0.018 A 
ATOM      5  C   UNL     1       8.653   2.002  21.787  0.00  0.00    +0.008 A 
ATOM      6  C   UNL     1       9.907   1.404  21.867  0.00  0.00    +0.001 A 
ATOM      7  C   UNL     1      10.149   0.448  22.844  0.00  0.00    +0.001 A 
ATOM      8  C   UNL     1       6.390   2.304  22.590  0.00  0.00    +0.008 A 
ATOM      9  C   UNL     1       5.396   2.087  23.533  0.00  0.00    +0.001 A 
ATOM     10  C   UNL     1       9.167   0.156  23.795  0.00  0.00    +0.009 A 
ATOM     11  C   UNL     1       5.676   1.320  24.658  0.00  0.00    +0.005 A 
ENDBRANCH   1   2
BRANCH   1  12
ATOM     12  C   UNL     1       6.708  -1.247  26.442  0.00  0.00    +0.182 C 
ATOM     13  O   UNL     1       5.897  -1.517  27.336  0.00  0.00    -0.291 OA
BRANCH  12  14
ATOM     14  C   UNL     1       7.029  -2.397  25.533  0.00  0.00    +0.019 A 
ATOM     15  C   UNL     1       8.302  -2.932  25.369  0.00  0.00    +0.012 A 
ATOM     16  C   UNL     1       8.513  -4.009  24.495  0.00  0.00    +0.009 A 
ATOM     17  C   UNL     1       7.468  -4.546  23.729  0.00  0.00    -0.018 A 
ATOM     18  C   UNL     1       6.177  -3.991  23.853  0.00  0.00    -0.017 A 
ATOM     19  C   UNL     1       5.132  -4.504  23.061  0.00  0.00    +0.008 A 
ATOM     20  C   UNL     1       5.358  -5.551  22.168  0.00  0.00    +0.001 A 
ATOM     21  C   UNL     1       6.634  -6.108  22.052  0.00  0.00    +0.001 A 
ATOM     22  C   UNL     1       7.681  -5.606  22.830  0.00  0.00    +0.008 A 
ATOM     23  C   UNL     1       5.974  -2.933  24.759  0.00  0.00    +0.020 A 
ENDBRANCH  12  14
ENDBRANCH   1  12
BRANCH   1  24
ATOM     24  P   UNL     1       6.618   1.344  27.524  0.00  0.00    +0.343 P 
ATOM     25  O   UNL     1       6.046   2.326  28.574  0.00  0.00    -0.258 OA
BRANCH  24  26
ATOM     26  O   UNL     1       7.668   2.490  26.977  0.00  0.00    -0.323 OA
ATOM     27  H   UNL     1       8.594   2.268  27.173  0.00  0.00    +0.220 HD
ENDBRANCH  24  26
BRANCH  24  28
ATOM     28  O   UNL     1       7.726   0.787  28.613  0.00  0.00    -0.323 OA
ATOM     29  H   UNL     1       8.468   1.428  28.610  0.00  0.00    +0.220 HD
ENDBRANCH  24  28
ENDBRANCH   1  24
TORSDOF 6
ENDMDL
