MODEL 1
REMARK VINA RESULT:      -5.9      0.000      0.000
REMARK  Name = 
REMARK  10 active torsions:
REMARK  status: ('A' for Active; 'I' for Inactive)
REMARK    1  A    between atoms: C_1  and  C_2
REMARK    2  A    between atoms: C_2  and  C_3
REMARK    3  A    between atoms: C_3  and  C_4
REMARK    4  A    between atoms: C_4  and  C_5
REMARK    5  A    between atoms: C_6  and  C_7
REMARK    6  A    between atoms: C_10  and  C_12
REMARK    7  A    between atoms: N_14  and  N_15
REMARK    8  A    between atoms: N_15  and  C_16
REMARK    9  A    between atoms: C_16  and  N_18
REMARK   10  A    between atoms: N_18  and  C_19
REMARK                            x       y       z     vdW  Elec       q    Type
REMARK                         _______ _______ _______ _____ _____    ______ ____
ROOT
ATOM      1  C   UNL     1       9.726  -0.690  23.239  0.00  0.00    +0.179 A 
ATOM      2  O   UNL     1       9.752   0.426  24.028  0.00  0.00    -0.442 OA
ATOM      3  C   UNL     1       9.861   1.504  23.177  0.00  0.00    +0.192 A 
ATOM      4  C   UNL     1       9.906   1.053  21.869  0.00  0.00    +0.056 A 
ATOM      5  C   UNL     1       9.821  -0.355  21.910  0.00  0.00    +0.059 A 
ENDROOT
BRANCH   3   6
ATOM      6  C   UNL     1       9.908   2.870  23.660  0.00  0.00    +0.295 C 
ATOM      7  N   UNL     1      10.797   3.729  23.038  0.00  0.00    -0.229 N 
ATOM      8  H   UNL     1      11.403   3.448  22.271  0.00  0.00    +0.173 HD
ATOM      9  O   UNL     1       9.198   3.275  24.586  0.00  0.00    -0.265 OA
BRANCH   7  10
ATOM     10  N   UNL     1      10.852   5.057  23.503  0.00  0.00    -0.246 N 
ATOM     11  H   UNL     1       9.952   5.531  23.524  0.00  0.00    +0.172 HD
BRANCH  10  12
ATOM     12  C   UNL     1      12.009   5.661  23.904  0.00  0.00    +0.147 C 
ATOM     13  S   UNL     1      12.124   6.746  25.173  0.00  0.00    -0.017 S 
BRANCH  12  14
ATOM     14  N   UNL     1      13.147   5.357  23.222  0.00  0.00    -0.329 N 
ATOM     15  H   UNL     1      13.753   4.711  23.715  0.00  0.00    +0.147 HD
ATOM     16  C   UNL     1      13.616   5.801  21.923  0.00  0.00    +0.127 C 
ENDBRANCH  12  14
ENDBRANCH  10  12
ENDBRANCH   7  10
ENDBRANCH   3   6
BRANCH   1  18
ATOM     17  C   UNL     1       9.433  -3.163  24.344  0.00  0.00    -0.094 C 
ATOM     18  C   UNL     1       9.580  -1.966  23.847  0.00  0.00    -0.028 C 
BRANCH  17  19
ATOM     19  C   UNL     1       9.261  -4.557  24.925  0.00  0.00    +0.089 C 
BRANCH  19  20
ATOM     20  C   UNL     1       9.088  -4.480  26.439  0.00  0.00    +0.012 C 
BRANCH  20  22
ATOM     21  C   UNL     1       6.845  -5.345  25.691  0.00  0.00    +0.004 C 
ATOM     22  C   UNL     1       7.649  -4.781  26.852  0.00  0.00    -0.002 C 
ENDBRANCH  20  22
ENDBRANCH  19  20
ENDBRANCH  17  19
ENDBRANCH   1  18
TORSDOF 8
ENDMDL
MODEL 2
REMARK VINA RESULT:      -5.7      4.481      8.532
REMARK  Name = 
REMARK  10 active torsions:
REMARK  status: ('A' for Active; 'I' for Inactive)
REMARK    1  A    between atoms: C_1  and  C_2
REMARK    2  A    between atoms: C_2  and  C_3
REMARK    3  A    between atoms: C_3  and  C_4
REMARK    4  A    between atoms: C_4  and  C_5
REMARK    5  A    between atoms: C_6  and  C_7
REMARK    6  A    between atoms: C_10  and  C_12
REMARK    7  A    between atoms: N_14  and  N_15
REMARK    8  A    between atoms: N_15  and  C_16
REMARK    9  A    between atoms: C_16  and  N_18
REMARK   10  A    between atoms: N_18  and  C_19
REMARK                            x       y       z     vdW  Elec       q    Type
REMARK                         _______ _______ _______ _____ _____    ______ ____
ROOT
ATOM      1  C   UNL     1       9.830   1.531  22.861  0.00  0.00    +0.179 A 
ATOM      2  O   UNL     1       9.933   0.517  23.774  0.00  0.00    -0.442 OA
ATOM      3  C   UNL     1       9.707  -0.654  23.084  0.00  0.00    +0.192 A 
ATOM      4  C   UNL     1       9.463  -0.363  21.753  0.00  0.00    +0.056 A 
ATOM      5  C   UNL     1       9.542   1.039  21.611  0.00  0.00    +0.059 A 
ENDROOT
BRANCH   3   6
ATOM      6  C   UNL     1       9.745  -1.951  23.730  0.00  0.00    +0.295 C 
ATOM      7  N   UNL     1       8.870  -2.158  24.782  0.00  0.00    -0.229 N 
ATOM      8  H   UNL     1       8.214  -1.453  25.111  0.00  0.00    +0.173 HD
ATOM      9  O   UNL     1      10.516  -2.850  23.377  0.00  0.00    -0.265 OA
BRANCH   7  10
ATOM     10  N   UNL     1       8.902  -3.414  25.418  0.00  0.00    -0.246 N 
ATOM     11  H   UNL     1       9.623  -3.504  26.130  0.00  0.00    +0.172 HD
BRANCH  10  12
ATOM     12  C   UNL     1       8.036  -4.426  25.119  0.00  0.00    +0.147 C 
ATOM     13  S   UNL     1       6.888  -5.036  26.173  0.00  0.00    -0.017 S 
BRANCH  12  14
ATOM     14  N   UNL     1       8.114  -4.974  23.876  0.00  0.00    -0.329 N 
ATOM     15  H   UNL     1       8.867  -5.647  23.777  0.00  0.00    +0.147 HD
ATOM     16  C   UNL     1       7.301  -4.755  22.694  0.00  0.00    +0.127 C 
ENDBRANCH  12  14
ENDBRANCH  10  12
ENDBRANCH   7  10
ENDBRANCH   3   6
BRANCH   1  18
ATOM     17  C   UNL     1      10.195   4.103  23.681  0.00  0.00    -0.094 C 
ATOM     18  C   UNL     1      10.054   2.869  23.282  0.00  0.00    -0.028 C 
BRANCH  17  19
ATOM     19  C   UNL     1      10.359   5.541  24.145  0.00  0.00    +0.089 C 
BRANCH  19  20
ATOM     20  C   UNL     1      11.815   5.976  24.007  0.00  0.00    +0.012 C 
BRANCH  20  22
ATOM     21  C   UNL     1      13.340   5.641  22.032  0.00  0.00    +0.004 C 
ATOM     22  C   UNL     1      12.624   4.968  23.192  0.00  0.00    -0.002 C 
ENDBRANCH  20  22
ENDBRANCH  19  20
ENDBRANCH  17  19
ENDBRANCH   1  18
TORSDOF 8
ENDMDL
MODEL 3
REMARK VINA RESULT:      -5.6      2.791      3.228
REMARK  Name = 
REMARK  10 active torsions:
REMARK  status: ('A' for Active; 'I' for Inactive)
REMARK    1  A    between atoms: C_1  and  C_2
REMARK    2  A    between atoms: C_2  and  C_3
REMARK    3  A    between atoms: C_3  and  C_4
REMARK    4  A    between atoms: C_4  and  C_5
REMARK    5  A    between atoms: C_6  and  C_7
REMARK    6  A    between atoms: C_10  and  C_12
REMARK    7  A    between atoms: N_14  and  N_15
REMARK    8  A    between atoms: N_15  and  C_16
REMARK    9  A    between atoms: C_16  and  N_18
REMARK   10  A    between atoms: N_18  and  C_19
REMARK                            x       y       z     vdW  Elec       q    Type
REMARK                         _______ _______ _______ _____ _____    ______ ____
ROOT
ATOM      1  C   UNL     1       8.558  -0.965  22.561  0.00  0.00    +0.179 A 
ATOM      2  O   UNL     1       7.715   0.084  22.805  0.00  0.00    -0.442 OA
ATOM      3  C   UNL     1       8.201   1.152  22.083  0.00  0.00    +0.192 A 
ATOM      4  C   UNL     1       9.340   0.763  21.399  0.00  0.00    +0.056 A 
ATOM      5  C   UNL     1       9.569  -0.595  21.708  0.00  0.00    +0.059 A 
ENDROOT
BRANCH   3   6
ATOM      6  C   UNL     1       7.552   2.448  22.088  0.00  0.00    +0.295 C 
ATOM      7  N   UNL     1       8.368   3.562  22.181  0.00  0.00    -0.229 N 
ATOM      8  H   UNL     1       9.382   3.508  22.242  0.00  0.00    +0.173 HD
ATOM      9  O   UNL     1       6.326   2.581  22.015  0.00  0.00    -0.265 OA
BRANCH   7  10
ATOM     10  N   UNL     1       7.747   4.825  22.191  0.00  0.00    -0.246 N 
ATOM     11  H   UNL     1       6.946   4.903  21.568  0.00  0.00    +0.172 HD
BRANCH  10  12
ATOM     12  C   UNL     1       8.170   5.860  22.974  0.00  0.00    +0.147 C 
ATOM     13  S   UNL     1       7.165   6.806  23.922  0.00  0.00    -0.017 S 
BRANCH  12  14
ATOM     14  N   UNL     1       9.501   6.139  22.983  0.00  0.00    -0.329 N 
ATOM     15  H   UNL     1       9.855   6.449  22.085  0.00  0.00    +0.147 HD
ATOM     16  C   UNL     1      10.474   6.069  24.057  0.00  0.00    +0.127 C 
ENDBRANCH  12  14
ENDBRANCH  10  12
ENDBRANCH   7  10
ENDBRANCH   3   6
BRANCH   1  18
ATOM     17  C   UNL     1       7.996  -3.404  23.638  0.00  0.00    -0.094 C 
ATOM     18  C   UNL     1       8.283  -2.228  23.150  0.00  0.00    -0.028 C 
BRANCH  17  19
ATOM     19  C   UNL     1       7.660  -4.773  24.206  0.00  0.00    +0.089 C 
BRANCH  19  20
ATOM     20  C   UNL     1       6.616  -5.464  23.334  0.00  0.00    +0.012 C 
BRANCH  20  22
ATOM     21  C   UNL     1       6.193  -5.751  20.869  0.00  0.00    +0.004 C 
ATOM     22  C   UNL     1       7.206  -5.896  21.992  0.00  0.00    -0.002 C 
ENDBRANCH  20  22
ENDBRANCH  19  20
ENDBRANCH  17  19
ENDBRANCH   1  18
TORSDOF 8
ENDMDL
MODEL 4
REMARK VINA RESULT:      -5.5      4.773      8.870
REMARK  Name = 
REMARK  10 active torsions:
REMARK  status: ('A' for Active; 'I' for Inactive)
REMARK    1  A    between atoms: C_1  and  C_2
REMARK    2  A    between atoms: C_2  and  C_3
REMARK    3  A    between atoms: C_3  and  C_4
REMARK    4  A    between atoms: C_4  and  C_5
REMARK    5  A    between atoms: C_6  and  C_7
REMARK    6  A    between atoms: C_10  and  C_12
REMARK    7  A    between atoms: N_14  and  N_15
REMARK    8  A    between atoms: N_15  and  C_16
REMARK    9  A    between atoms: C_16  and  N_18
REMARK   10  A    between atoms: N_18  and  C_19
REMARK                            x       y       z     vdW  Elec       q    Type
REMARK                         _______ _______ _______ _____ _____    ______ ____
ROOT
ATOM      1  C   UNL     1      10.085   1.581  23.888  0.00  0.00    +0.179 A 
ATOM      2  O   UNL     1       9.371   0.916  22.930  0.00  0.00    -0.442 OA
ATOM      3  C   UNL     1       9.328  -0.405  23.321  0.00  0.00    +0.192 A 
ATOM      4  C   UNL     1      10.015  -0.552  24.514  0.00  0.00    +0.056 A 
ATOM      5  C   UNL     1      10.500   0.722  24.876  0.00  0.00    +0.059 A 
ENDROOT
BRANCH   3   6
ATOM      6  C   UNL     1       8.640  -1.419  22.547  0.00  0.00    +0.295 C 
ATOM      7  N   UNL     1       7.522  -2.000  23.120  0.00  0.00    -0.229 N 
ATOM      8  H   UNL     1       7.171  -1.748  24.041  0.00  0.00    +0.173 HD
ATOM      9  O   UNL     1       9.014  -1.769  21.423  0.00  0.00    -0.265 OA
BRANCH   7  10
ATOM     10  N   UNL     1       6.849  -2.989  22.377  0.00  0.00    -0.246 N 
ATOM     11  H   UNL     1       6.371  -2.639  21.551  0.00  0.00    +0.172 HD
BRANCH  10  12
ATOM     12  C   UNL     1       6.843  -4.310  22.724  0.00  0.00    +0.147 C 
ATOM     13  S   UNL     1       7.813  -4.985  23.909  0.00  0.00    -0.017 S 
BRANCH  12  14
ATOM     14  N   UNL     1       5.987  -5.131  22.058  0.00  0.00    -0.329 N 
ATOM     15  H   UNL     1       5.061  -5.169  22.469  0.00  0.00    +0.147 HD
ATOM     16  C   UNL     1       6.187  -5.941  20.871  0.00  0.00    +0.127 C 
ENDBRANCH  12  14
ENDBRANCH  10  12
ENDBRANCH   7  10
ENDBRANCH   3   6
BRANCH   1  18
ATOM     17  C   UNL     1      10.443   4.277  23.726  0.00  0.00    -0.094 C 
ATOM     18  C   UNL     1      10.264   2.986  23.770  0.00  0.00    -0.028 C 
BRANCH  17  19
ATOM     19  C   UNL     1      10.651   5.782  23.675  0.00  0.00    +0.089 C 
BRANCH  19  20
ATOM     20  C   UNL     1      12.106   6.123  23.984  0.00  0.00    +0.012 C 
BRANCH  20  22
ATOM     21  C   UNL     1      13.401   5.650  21.878  0.00  0.00    +0.004 C 
ATOM     22  C   UNL     1      13.066   5.166  23.280  0.00  0.00    -0.002 C 
ENDBRANCH  20  22
ENDBRANCH  19  20
ENDBRANCH  17  19
ENDBRANCH   1  18
TORSDOF 8
ENDMDL
MODEL 5
REMARK VINA RESULT:      -5.4      6.724     10.028
REMARK  Name = 
REMARK  10 active torsions:
REMARK  status: ('A' for Active; 'I' for Inactive)
REMARK    1  A    between atoms: C_1  and  C_2
REMARK    2  A    between atoms: C_2  and  C_3
REMARK    3  A    between atoms: C_3  and  C_4
REMARK    4  A    between atoms: C_4  and  C_5
REMARK    5  A    between atoms: C_6  and  C_7
REMARK    6  A    between atoms: C_10  and  C_12
REMARK    7  A    between atoms: N_14  and  N_15
REMARK    8  A    between atoms: N_15  and  C_16
REMARK    9  A    between atoms: C_16  and  N_18
REMARK   10  A    between atoms: N_18  and  C_19
REMARK                            x       y       z     vdW  Elec       q    Type
REMARK                         _______ _______ _______ _____ _____    ______ ____
ROOT
ATOM      1  C   UNL     1       8.636  -2.847  24.218  0.00  0.00    +0.179 A 
ATOM      2  O   UNL     1       7.618  -3.001  23.317  0.00  0.00    -0.442 OA
ATOM      3  C   UNL     1       7.089  -4.254  23.537  0.00  0.00    +0.192 A 
ATOM      4  C   UNL     1       7.780  -4.870  24.567  0.00  0.00    +0.056 A 
ATOM      5  C   UNL     1       8.773  -3.966  25.001  0.00  0.00    +0.059 A 
ENDROOT
BRANCH   3   6
ATOM      6  C   UNL     1       5.973  -4.768  22.768  0.00  0.00    +0.295 C 
ATOM      7  N   UNL     1       5.265  -5.824  23.313  0.00  0.00    -0.229 N 
ATOM      8  H   UNL     1       5.489  -6.243  24.213  0.00  0.00    +0.173 HD
ATOM      9  O   UNL     1       5.649  -4.303  21.670  0.00  0.00    -0.265 OA
BRANCH   7  10
ATOM     10  N   UNL     1       4.181  -6.334  22.571  0.00  0.00    -0.246 N 
ATOM     11  H   UNL     1       4.442  -6.741  21.676  0.00  0.00    +0.172 HD
BRANCH  10  12
ATOM     12  C   UNL     1       2.890  -6.298  23.013  0.00  0.00    +0.147 C 
ATOM     13  S   UNL     1       2.216  -5.033  23.876  0.00  0.00    -0.017 S 
BRANCH  12  14
ATOM     14  N   UNL     1       2.099  -7.368  22.729  0.00  0.00    -0.329 N 
ATOM     15  H   UNL     1       1.859  -7.445  21.747  0.00  0.00    +0.147 HD
ATOM     16  C   UNL     1       1.558  -8.399  23.596  0.00  0.00    +0.127 C 
ENDBRANCH  12  14
ENDBRANCH  10  12
ENDBRANCH   7  10
ENDBRANCH   3   6
BRANCH   1  18
ATOM     17  C   UNL     1      10.051  -0.521  24.327  0.00  0.00    -0.094 C 
ATOM     18  C   UNL     1       9.353  -1.620  24.252  0.00  0.00    -0.028 C 
BRANCH  17  19
ATOM     19  C   UNL     1      10.865   0.760  24.415  0.00  0.00    +0.089 C 
BRANCH  19  20
ATOM     20  C   UNL     1      10.099   1.915  23.779  0.00  0.00    +0.012 C 
BRANCH  20  22
ATOM     21  C   UNL     1       8.609   1.698  21.762  0.00  0.00    +0.004 C 
ATOM     22  C   UNL     1      10.043   1.778  22.258  0.00  0.00    -0.002 C 
ENDBRANCH  20  22
ENDBRANCH  19  20
ENDBRANCH  17  19
ENDBRANCH   1  18
TORSDOF 8
ENDMDL
MODEL 6
REMARK VINA RESULT:      -5.3      4.976      8.735
REMARK  Name = 
REMARK  10 active torsions:
REMARK  status: ('A' for Active; 'I' for Inactive)
REMARK    1  A    between atoms: C_1  and  C_2
REMARK    2  A    between atoms: C_2  and  C_3
REMARK    3  A    between atoms: C_3  and  C_4
REMARK    4  A    between atoms: C_4  and  C_5
REMARK    5  A    between atoms: C_6  and  C_7
REMARK    6  A    between atoms: C_10  and  C_12
REMARK    7  A    between atoms: N_14  and  N_15
REMARK    8  A    between atoms: N_15  and  C_16
REMARK    9  A    between atoms: C_16  and  N_18
REMARK   10  A    between atoms: N_18  and  C_19
REMARK                            x       y       z     vdW  Elec       q    Type
REMARK                         _______ _______ _______ _____ _____    ______ ____
ROOT
ATOM      1  C   UNL     1       9.341   1.275  22.921  0.00  0.00    +0.179 A 
ATOM      2  O   UNL     1       9.193   0.148  23.681  0.00  0.00    -0.442 OA
ATOM      3  C   UNL     1       9.323  -0.923  22.823  0.00  0.00    +0.192 A 
ATOM      4  C   UNL     1       9.547  -0.456  21.539  0.00  0.00    +0.056 A 
ATOM      5  C   UNL     1       9.557   0.953  21.603  0.00  0.00    +0.059 A 
ENDROOT
BRANCH   3   6
ATOM      6  C   UNL     1       9.233  -2.295  23.280  0.00  0.00    +0.295 C 
ATOM      7  N   UNL     1       8.038  -2.956  23.059  0.00  0.00    -0.229 N 
ATOM      8  H   UNL     1       7.239  -2.528  22.597  0.00  0.00    +0.173 HD
ATOM      9  O   UNL     1      10.167  -2.873  23.846  0.00  0.00    -0.265 OA
BRANCH   7  10
ATOM     10  N   UNL     1       7.939  -4.289  23.503  0.00  0.00    -0.246 N 
ATOM     11  H   UNL     1       8.551  -4.939  23.014  0.00  0.00    +0.172 HD
BRANCH  10  12
ATOM     12  C   UNL     1       7.105  -4.683  24.509  0.00  0.00    +0.147 C 
ATOM     13  S   UNL     1       5.660  -5.495  24.282  0.00  0.00    -0.017 S 
BRANCH  12  14
ATOM     14  N   UNL     1       7.479  -4.393  25.785  0.00  0.00    -0.329 N 
ATOM     15  H   UNL     1       7.580  -3.399  25.961  0.00  0.00    +0.147 HD
ATOM     16  C   UNL     1       7.745  -5.266  26.913  0.00  0.00    +0.127 C 
ENDBRANCH  12  14
ENDBRANCH  10  12
ENDBRANCH   7  10
ENDBRANCH   3   6
BRANCH   1  18
ATOM     17  C   UNL     1       9.264   3.744  24.069  0.00  0.00    -0.094 C 
ATOM     18  C   UNL     1       9.292   2.548  23.550  0.00  0.00    -0.028 C 
BRANCH  17  19
ATOM     19  C   UNL     1       9.231   5.138  24.675  0.00  0.00    +0.089 C 
BRANCH  19  20
ATOM     20  C   UNL     1       9.401   6.191  23.583  0.00  0.00    +0.012 C 
BRANCH  20  22
ATOM     21  C   UNL     1       7.456   6.198  21.985  0.00  0.00    +0.004 C 
ATOM     22  C   UNL     1       8.066   6.839  23.221  0.00  0.00    -0.002 C 
ENDBRANCH  20  22
ENDBRANCH  19  20
ENDBRANCH  17  19
ENDBRANCH   1  18
TORSDOF 8
ENDMDL
MODEL 7
REMARK VINA RESULT:      -5.1      6.669     10.044
REMARK  Name = 
REMARK  10 active torsions:
REMARK  status: ('A' for Active; 'I' for Inactive)
REMARK    1  A    between atoms: C_1  and  C_2
REMARK    2  A    between atoms: C_2  and  C_3
REMARK    3  A    between atoms: C_3  and  C_4
REMARK    4  A    between atoms: C_4  and  C_5
REMARK    5  A    between atoms: C_6  and  C_7
REMARK    6  A    between atoms: C_10  and  C_12
REMARK    7  A    between atoms: N_14  and  N_15
REMARK    8  A    between atoms: N_15  and  C_16
REMARK    9  A    between atoms: C_16  and  N_18
REMARK   10  A    between atoms: N_18  and  C_19
REMARK                            x       y       z     vdW  Elec       q    Type
REMARK                         _______ _______ _______ _____ _____    ______ ____
ROOT
ATOM      1  C   UNL     1       8.618  -3.119  23.871  0.00  0.00    +0.179 A 
ATOM      2  O   UNL     1       7.372  -3.674  23.965  0.00  0.00    -0.442 OA
ATOM      3  C   UNL     1       7.473  -4.711  24.868  0.00  0.00    +0.192 A 
ATOM      4  C   UNL     1       8.777  -4.795  25.325  0.00  0.00    +0.056 A 
ATOM      5  C   UNL     1       9.511  -3.774  24.684  0.00  0.00    +0.059 A 
ENDROOT
BRANCH   3   6
ATOM      6  C   UNL     1       6.337  -5.533  25.232  0.00  0.00    +0.295 C 
ATOM      7  N   UNL     1       6.338  -6.084  26.501  0.00  0.00    -0.229 N 
ATOM      8  H   UNL     1       7.087  -5.937  27.174  0.00  0.00    +0.173 HD
ATOM      9  O   UNL     1       5.395  -5.749  24.462  0.00  0.00    -0.265 OA
BRANCH   7  10
ATOM     10  N   UNL     1       5.240  -6.888  26.863  0.00  0.00    -0.246 N 
ATOM     11  H   UNL     1       5.192  -7.778  26.372  0.00  0.00    +0.172 HD
BRANCH  10  12
ATOM     12  C   UNL     1       4.319  -6.517  27.800  0.00  0.00    +0.147 C 
ATOM     13  S   UNL     1       3.265  -5.228  27.638  0.00  0.00    -0.017 S 
BRANCH  12  14
ATOM     14  N   UNL     1       4.256  -7.250  28.945  0.00  0.00    -0.329 N 
ATOM     15  H   UNL     1       4.596  -8.200  28.836  0.00  0.00    +0.147 HD
ATOM     16  C   UNL     1       3.793  -6.891  30.272  0.00  0.00    +0.127 C 
ENDBRANCH  12  14
ENDBRANCH  10  12
ENDBRANCH   7  10
ENDBRANCH   3   6
BRANCH   1  18
ATOM     17  C   UNL     1       9.032  -0.992  22.219  0.00  0.00    -0.094 C 
ATOM     18  C   UNL     1       8.814  -1.991  23.029  0.00  0.00    -0.028 C 
BRANCH  17  19
ATOM     19  C   UNL     1       9.287   0.172  21.275  0.00  0.00    +0.089 C 
BRANCH  19  20
ATOM     20  C   UNL     1       9.839   1.366  22.048  0.00  0.00    +0.012 C 
BRANCH  20  22
ATOM     21  C   UNL     1       9.492   2.344  24.342  0.00  0.00    +0.004 C 
ATOM     22  C   UNL     1       8.819   1.901  23.053  0.00  0.00    -0.002 C 
ENDBRANCH  20  22
ENDBRANCH  19  20
ENDBRANCH  17  19
ENDBRANCH   1  18
TORSDOF 8
ENDMDL
MODEL 8
REMARK VINA RESULT:      -5.1      2.240      2.621
REMARK  Name = 
REMARK  10 active torsions:
REMARK  status: ('A' for Active; 'I' for Inactive)
REMARK    1  A    between atoms: C_1  and  C_2
REMARK    2  A    between atoms: C_2  and  C_3
REMARK    3  A    between atoms: C_3  and  C_4
REMARK    4  A    between atoms: C_4  and  C_5
REMARK    5  A    between atoms: C_6  and  C_7
REMARK    6  A    between atoms: C_10  and  C_12
REMARK    7  A    between atoms: N_14  and  N_15
REMARK    8  A    between atoms: N_15  and  C_16
REMARK    9  A    between atoms: C_16  and  N_18
REMARK   10  A    between atoms: N_18  and  C_19
REMARK                            x       y       z     vdW  Elec       q    Type
REMARK                         _______ _______ _______ _____ _____    ______ ____
ROOT
ATOM      1  C   UNL     1       9.332  -1.517  23.095  0.00  0.00    +0.179 A 
ATOM      2  O   UNL     1       8.725  -0.387  23.567  0.00  0.00    -0.442 OA
ATOM      3  C   UNL     1       8.830   0.559  22.570  0.00  0.00    +0.192 A 
ATOM      4  C   UNL     1       9.501   0.013  21.489  0.00  0.00    +0.056 A 
ATOM      5  C   UNL     1       9.823  -1.319  21.828  0.00  0.00    +0.059 A 
ENDROOT
BRANCH   3   6
ATOM      6  C   UNL     1       8.285   1.895  22.711  0.00  0.00    +0.295 C 
ATOM      7  N   UNL     1       9.170   2.952  22.592  0.00  0.00    -0.229 N 
ATOM      8  H   UNL     1      10.164   2.832  22.411  0.00  0.00    +0.173 HD
ATOM      9  O   UNL     1       7.088   2.108  22.929  0.00  0.00    -0.265 OA
BRANCH   7  10
ATOM     10  N   UNL     1       8.651   4.254  22.731  0.00  0.00    -0.246 N 
ATOM     11  H   UNL     1       8.014   4.532  21.988  0.00  0.00    +0.172 HD
BRANCH  10  12
ATOM     12  C   UNL     1       8.964   5.076  23.776  0.00  0.00    +0.147 C 
ATOM     13  S   UNL     1      10.345   6.016  23.864  0.00  0.00    -0.017 S 
BRANCH  12  14
ATOM     14  N   UNL     1       8.087   5.132  24.815  0.00  0.00    -0.329 N 
ATOM     15  H   UNL     1       7.622   6.030  24.903  0.00  0.00    +0.147 HD
ATOM     16  C   UNL     1       7.718   4.128  25.795  0.00  0.00    +0.127 C 
ENDBRANCH  12  14
ENDBRANCH  10  12
ENDBRANCH   7  10
ENDBRANCH   3   6
BRANCH   1  18
ATOM     17  C   UNL     1       9.413  -3.736  24.673  0.00  0.00    -0.094 C 
ATOM     18  C   UNL     1       9.346  -2.686  23.902  0.00  0.00    -0.028 C 
BRANCH  17  19
ATOM     19  C   UNL     1       9.492  -4.960  25.572  0.00  0.00    +0.089 C 
BRANCH  19  20
ATOM     20  C   UNL     1       8.371  -4.926  26.607  0.00  0.00    +0.012 C 
BRANCH  20  22
ATOM     21  C   UNL     1       6.046  -5.808  26.215  0.00  0.00    +0.004 C 
ATOM     22  C   UNL     1       7.015  -4.666  25.953  0.00  0.00    -0.002 C 
ENDBRANCH  20  22
ENDBRANCH  19  20
ENDBRANCH  17  19
ENDBRANCH   1  18
TORSDOF 8
ENDMDL
MODEL 9
REMARK VINA RESULT:      -5.1      4.924      8.716
REMARK  Name = 
REMARK  10 active torsions:
REMARK  status: ('A' for Active; 'I' for Inactive)
REMARK    1  A    between atoms: C_1  and  C_2
REMARK    2  A    between atoms: C_2  and  C_3
REMARK    3  A    between atoms: C_3  and  C_4
REMARK    4  A    between atoms: C_4  and  C_5
REMARK    5  A    between atoms: C_6  and  C_7
REMARK    6  A    between atoms: C_10  and  C_12
REMARK    7  A    between atoms: N_14  and  N_15
REMARK    8  A    between atoms: N_15  and  C_16
REMARK    9  A    between atoms: C_16  and  N_18
REMARK   10  A    between atoms: N_18  and  C_19
REMARK                            x       y       z     vdW  Elec       q    Type
REMARK                         _______ _______ _______ _____ _____    ______ ____
ROOT
ATOM      1  C   UNL     1       9.192   1.601  23.349  0.00  0.00    +0.179 A 
ATOM      2  O   UNL     1       8.653   0.390  23.016  0.00  0.00    -0.442 OA
ATOM      3  C   UNL     1       9.497  -0.569  23.531  0.00  0.00    +0.192 A 
ATOM      4  C   UNL     1      10.554   0.049  24.176  0.00  0.00    +0.056 A 
ATOM      5  C   UNL     1      10.358   1.441  24.058  0.00  0.00    +0.059 A 
ENDROOT
BRANCH   3   6
ATOM      6  C   UNL     1       9.239  -1.988  23.380  0.00  0.00    +0.295 C 
ATOM      7  N   UNL     1       8.033  -2.353  22.810  0.00  0.00    -0.229 N 
ATOM      8  H   UNL     1       7.336  -1.681  22.496  0.00  0.00    +0.173 HD
ATOM      9  O   UNL     1      10.044  -2.854  23.739  0.00  0.00    -0.265 OA
BRANCH   7  10
ATOM     10  N   UNL     1       7.771  -3.729  22.664  0.00  0.00    -0.246 N 
ATOM     11  H   UNL     1       8.400  -4.208  22.024  0.00  0.00    +0.172 HD
BRANCH  10  12
ATOM     12  C   UNL     1       6.768  -4.374  23.328  0.00  0.00    +0.147 C 
ATOM     13  S   UNL     1       5.140  -4.210  22.981  0.00  0.00    -0.017 S 
BRANCH  12  14
ATOM     14  N   UNL     1       7.122  -5.210  24.342  0.00  0.00    -0.329 N 
ATOM     15  H   UNL     1       6.897  -6.182  24.162  0.00  0.00    +0.147 HD
ATOM     16  C   UNL     1       7.761  -4.932  25.615  0.00  0.00    +0.127 C 
ENDBRANCH  12  14
ENDBRANCH  10  12
ENDBRANCH   7  10
ENDBRANCH   3   6
BRANCH   1  18
ATOM     17  C   UNL     1       7.847   3.878  22.693  0.00  0.00    -0.094 C 
ATOM     18  C   UNL     1       8.510   2.791  22.978  0.00  0.00    -0.028 C 
BRANCH  17  19
ATOM     19  C   UNL     1       7.074   5.143  22.359  0.00  0.00    +0.089 C 
BRANCH  19  20
ATOM     20  C   UNL     1       7.986   6.362  22.473  0.00  0.00    +0.012 C 
BRANCH  20  22
ATOM     21  C   UNL     1      10.075   6.341  23.876  0.00  0.00    +0.004 C 
ATOM     22  C   UNL     1       8.563   6.498  23.881  0.00  0.00    -0.002 C 
ENDBRANCH  20  22
ENDBRANCH  19  20
ENDBRANCH  17  19
ENDBRANCH   1  18
TORSDOF 8
ENDMDL
