MODEL 1
REMARK VINA RESULT:      -4.9      0.000      0.000
REMARK  Name = 
REMARK  3 active torsions:
REMARK  status: ('A' for Active; 'I' for Inactive)
REMARK    1  A    between atoms: C_1  and  C_2
REMARK    2  A    between atoms: C_5  and  O_6
REMARK    3  A    between atoms: C_7  and  N_9
REMARK                            x       y       z     vdW  Elec       q    Type
REMARK                         _______ _______ _______ _____ _____    ______ ____
ROOT
ATOM      1  C   UNL     1       9.820  -2.855  24.131  0.00  0.00    +0.044 C 
ATOM      2  C   UNL     1       9.742  -1.556  23.383  0.00  0.00    -0.044 A 
ATOM      3  C   UNL     1       9.899  -0.345  24.067  0.00  0.00    +0.091 A 
ATOM      4  C   UNL     1       9.835   0.860  23.356  0.00  0.00    +0.314 A 
ATOM      5  C   UNL     1       9.603   0.885  21.981  0.00  0.00    +0.195 A 
ATOM      6  C   UNL     1       9.434  -0.321  21.303  0.00  0.00    +0.053 A 
ATOM      7  C   UNL     1       9.504  -1.533  22.001  0.00  0.00    +0.007 A 
ENDROOT
BRANCH   4   8
ATOM      8  N   UNL     1      10.024   2.094  24.091  0.00  0.00    +0.083 N 
ATOM      9  O   UNL     1      11.016   2.775  23.793  0.00  0.00    +0.042 OA
ATOM     10  O   UNL     1       9.150   2.415  24.907  0.00  0.00    -0.576 OA
ENDBRANCH   4   8
BRANCH   5  11
ATOM     11  O   UNL     1       9.516   2.064  21.303  0.00  0.00    -0.501 OA
ATOM     12  H   UNL     1      10.381   2.287  20.918  0.00  0.00    +0.292 HD
ENDBRANCH   5  11
TORSDOF 2
ENDMDL
MODEL 2
REMARK VINA RESULT:      -4.7      2.902      3.645
REMARK  Name = 
REMARK  3 active torsions:
REMARK  status: ('A' for Active; 'I' for Inactive)
REMARK    1  A    between atoms: C_1  and  C_2
REMARK    2  A    between atoms: C_5  and  O_6
REMARK    3  A    between atoms: C_7  and  N_9
REMARK                            x       y       z     vdW  Elec       q    Type
REMARK                         _______ _______ _______ _____ _____    ______ ____
ROOT
ATOM      1  C   UNL     1      10.821   2.757  23.717  0.00  0.00    +0.044 C 
ATOM      2  C   UNL     1      10.255   1.478  23.169  0.00  0.00    -0.044 A 
ATOM      3  C   UNL     1      10.195   0.338  23.978  0.00  0.00    +0.091 A 
ATOM      4  C   UNL     1       9.656  -0.845  23.459  0.00  0.00    +0.314 A 
ATOM      5  C   UNL     1       9.188  -0.921  22.147  0.00  0.00    +0.195 A 
ATOM      6  C   UNL     1       9.261   0.211  21.338  0.00  0.00    +0.053 A 
ATOM      7  C   UNL     1       9.792   1.403  21.847  0.00  0.00    +0.007 A 
ENDROOT
BRANCH   4   8
ATOM      8  N   UNL     1       9.587  -2.001  24.330  0.00  0.00    +0.083 N 
ATOM      9  O   UNL     1      10.188  -3.019  23.956  0.00  0.00    +0.042 OA
ATOM     10  O   UNL     1       8.998  -1.869  25.412  0.00  0.00    -0.576 OA
ENDBRANCH   4   8
BRANCH   5  11
ATOM     11  O   UNL     1       8.690  -2.086  21.643  0.00  0.00    -0.501 OA
ATOM     12  H   UNL     1       7.751  -2.172  21.882  0.00  0.00    +0.292 HD
ENDBRANCH   5  11
TORSDOF 2
ENDMDL
MODEL 3
REMARK VINA RESULT:      -4.6      3.001      3.816
REMARK  Name = 
REMARK  3 active torsions:
REMARK  status: ('A' for Active; 'I' for Inactive)
REMARK    1  A    between atoms: C_1  and  C_2
REMARK    2  A    between atoms: C_5  and  O_6
REMARK    3  A    between atoms: C_7  and  N_9
REMARK                            x       y       z     vdW  Elec       q    Type
REMARK                         _______ _______ _______ _____ _____    ______ ____
ROOT
ATOM      1  C   UNL     1       8.733   2.733  24.825  0.00  0.00    +0.044 C 
ATOM      2  C   UNL     1       9.103   1.596  23.917  0.00  0.00    -0.044 A 
ATOM      3  C   UNL     1       9.090   0.283  24.401  0.00  0.00    +0.091 A 
ATOM      4  C   UNL     1       9.426  -0.770  23.542  0.00  0.00    +0.314 A 
ATOM      5  C   UNL     1       9.788  -0.542  22.214  0.00  0.00    +0.195 A 
ATOM      6  C   UNL     1       9.813   0.767  21.737  0.00  0.00    +0.053 A 
ATOM      7  C   UNL     1       9.472   1.829  22.584  0.00  0.00    +0.007 A 
ENDROOT
BRANCH   4   8
ATOM      8  N   UNL     1       9.381  -2.118  24.068  0.00  0.00    +0.083 N 
ATOM      9  O   UNL     1       8.380  -2.426  24.732  0.00  0.00    +0.042 OA
ATOM     10  O   UNL     1      10.304  -2.885  23.761  0.00  0.00    -0.576 OA
ENDBRANCH   4   8
BRANCH   5  11
ATOM     11  O   UNL     1      10.140  -1.572  21.393  0.00  0.00    -0.501 OA
ATOM     12  H   UNL     1       9.463  -2.269  21.432  0.00  0.00    +0.292 HD
ENDBRANCH   5  11
TORSDOF 2
ENDMDL
MODEL 4
REMARK VINA RESULT:      -4.4      5.474      6.788
REMARK  Name = 
REMARK  3 active torsions:
REMARK  status: ('A' for Active; 'I' for Inactive)
REMARK    1  A    between atoms: C_1  and  C_2
REMARK    2  A    between atoms: C_5  and  O_6
REMARK    3  A    between atoms: C_7  and  N_9
REMARK                            x       y       z     vdW  Elec       q    Type
REMARK                         _______ _______ _______ _____ _____    ______ ____
ROOT
ATOM      1  C   UNL     1       5.376  -4.824  22.401  0.00  0.00    +0.044 C 
ATOM      2  C   UNL     1       6.170  -4.974  23.666  0.00  0.00    -0.044 A 
ATOM      3  C   UNL     1       7.536  -4.672  23.673  0.00  0.00    +0.091 A 
ATOM      4  C   UNL     1       8.264  -4.806  24.862  0.00  0.00    +0.314 A 
ATOM      5  C   UNL     1       7.663  -5.248  26.040  0.00  0.00    +0.195 A 
ATOM      6  C   UNL     1       6.305  -5.561  26.029  0.00  0.00    +0.053 A 
ATOM      7  C   UNL     1       5.564  -5.425  24.848  0.00  0.00    +0.007 A 
ENDROOT
BRANCH   4   8
ATOM      8  N   UNL     1       9.671  -4.463  24.840  0.00  0.00    +0.083 N 
ATOM      9  O   UNL     1      10.448  -5.256  25.392  0.00  0.00    +0.042 OA
ATOM     10  O   UNL     1      10.004  -3.447  24.215  0.00  0.00    -0.576 OA
ENDBRANCH   4   8
BRANCH   5  11
ATOM     11  O   UNL     1       8.386  -5.401  27.186  0.00  0.00    -0.501 OA
ATOM     12  H   UNL     1       8.569  -4.529  27.578  0.00  0.00    +0.292 HD
ENDBRANCH   5  11
TORSDOF 2
ENDMDL
MODEL 5
REMARK VINA RESULT:      -4.4      6.078      6.974
REMARK  Name = 
REMARK  3 active torsions:
REMARK  status: ('A' for Active; 'I' for Inactive)
REMARK    1  A    between atoms: C_1  and  C_2
REMARK    2  A    between atoms: C_5  and  O_6
REMARK    3  A    between atoms: C_7  and  N_9
REMARK                            x       y       z     vdW  Elec       q    Type
REMARK                         _______ _______ _______ _____ _____    ______ ____
ROOT
ATOM      1  C   UNL     1       4.024  -6.144  23.913  0.00  0.00    +0.044 C 
ATOM      2  C   UNL     1       5.471  -5.777  24.065  0.00  0.00    -0.044 A 
ATOM      3  C   UNL     1       6.006  -5.561  25.340  0.00  0.00    +0.091 A 
ATOM      4  C   UNL     1       7.361  -5.229  25.470  0.00  0.00    +0.314 A 
ATOM      5  C   UNL     1       8.189  -5.094  24.356  0.00  0.00    +0.195 A 
ATOM      6  C   UNL     1       7.652  -5.295  23.086  0.00  0.00    +0.053 A 
ATOM      7  C   UNL     1       6.301  -5.635  22.943  0.00  0.00    +0.007 A 
ENDROOT
BRANCH   4   8
ATOM      8  N   UNL     1       7.888  -5.036  26.804  0.00  0.00    +0.083 N 
ATOM      9  O   UNL     1       8.618  -4.049  26.979  0.00  0.00    +0.042 OA
ATOM     10  O   UNL     1       7.519  -5.822  27.687  0.00  0.00    -0.576 OA
ENDBRANCH   4   8
BRANCH   5  11
ATOM     11  O   UNL     1       9.500  -4.744  24.491  0.00  0.00    -0.501 OA
ATOM     12  H   UNL     1       9.777  -4.206  23.729  0.00  0.00    +0.292 HD
ENDBRANCH   5  11
TORSDOF 2
ENDMDL
MODEL 6
REMARK VINA RESULT:      -4.4      6.367      7.296
REMARK  Name = 
REMARK  3 active torsions:
REMARK  status: ('A' for Active; 'I' for Inactive)
REMARK    1  A    between atoms: C_1  and  C_2
REMARK    2  A    between atoms: C_5  and  O_6
REMARK    3  A    between atoms: C_7  and  N_9
REMARK                            x       y       z     vdW  Elec       q    Type
REMARK                         _______ _______ _______ _____ _____    ______ ____
ROOT
ATOM      1  C   UNL     1       5.712  -5.103  22.786  0.00  0.00    +0.044 C 
ATOM      2  C   UNL     1       6.686  -5.043  23.927  0.00  0.00    -0.044 A 
ATOM      3  C   UNL     1       6.229  -5.180  25.243  0.00  0.00    +0.091 A 
ATOM      4  C   UNL     1       7.148  -5.132  26.298  0.00  0.00    +0.314 A 
ATOM      5  C   UNL     1       8.511  -4.937  26.072  0.00  0.00    +0.195 A 
ATOM      6  C   UNL     1       8.963  -4.787  24.762  0.00  0.00    +0.053 A 
ATOM      7  C   UNL     1       8.055  -4.840  23.697  0.00  0.00    +0.007 A 
ENDROOT
BRANCH   4   8
ATOM      8  N   UNL     1       6.646  -5.300  27.646  0.00  0.00    +0.083 N 
ATOM      9  O   UNL     1       5.724  -4.549  27.996  0.00  0.00    +0.042 OA
ATOM     10  O   UNL     1       7.119  -6.223  28.324  0.00  0.00    -0.576 OA
ENDBRANCH   4   8
BRANCH   5  11
ATOM     11  O   UNL     1       9.394  -4.865  27.108  0.00  0.00    -0.501 OA
ATOM     12  H   UNL     1      10.087  -5.538  26.996  0.00  0.00    +0.292 HD
ENDBRANCH   5  11
TORSDOF 2
ENDMDL
MODEL 7
REMARK VINA RESULT:      -4.4      1.788      2.630
REMARK  Name = 
REMARK  3 active torsions:
REMARK  status: ('A' for Active; 'I' for Inactive)
REMARK    1  A    between atoms: C_1  and  C_2
REMARK    2  A    between atoms: C_5  and  O_6
REMARK    3  A    between atoms: C_7  and  N_9
REMARK                            x       y       z     vdW  Elec       q    Type
REMARK                         _______ _______ _______ _____ _____    ______ ____
ROOT
ATOM      1  C   UNL     1       8.600  -0.944  26.905  0.00  0.00    +0.044 C 
ATOM      2  C   UNL     1       9.059  -1.088  25.483  0.00  0.00    -0.044 A 
ATOM      3  C   UNL     1       9.340   0.052  24.721  0.00  0.00    +0.091 A 
ATOM      4  C   UNL     1       9.777  -0.096  23.399  0.00  0.00    +0.314 A 
ATOM      5  C   UNL     1       9.927  -1.354  22.815  0.00  0.00    +0.195 A 
ATOM      6  C   UNL     1       9.635  -2.488  23.571  0.00  0.00    +0.053 A 
ATOM      7  C   UNL     1       9.203  -2.354  24.897  0.00  0.00    +0.007 A 
ENDROOT
BRANCH   4   8
ATOM      8  N   UNL     1      10.080   1.103  22.645  0.00  0.00    +0.083 N 
ATOM      9  O   UNL     1       9.662   1.151  21.479  0.00  0.00    +0.042 OA
ATOM     10  O   UNL     1      10.669   2.018  23.237  0.00  0.00    -0.576 OA
ENDBRANCH   4   8
BRANCH   5  11
ATOM     11  O   UNL     1      10.327  -1.486  21.519  0.00  0.00    -0.501 OA
ATOM     12  H   UNL     1      11.208  -1.898  21.487  0.00  0.00    +0.292 HD
ENDBRANCH   5  11
TORSDOF 2
ENDMDL
MODEL 8
REMARK VINA RESULT:      -4.3      5.196      6.469
REMARK  Name = 
REMARK  3 active torsions:
REMARK  status: ('A' for Active; 'I' for Inactive)
REMARK    1  A    between atoms: C_1  and  C_2
REMARK    2  A    between atoms: C_5  and  O_6
REMARK    3  A    between atoms: C_7  and  N_9
REMARK                            x       y       z     vdW  Elec       q    Type
REMARK                         _______ _______ _______ _____ _____    ______ ____
ROOT
ATOM      1  C   UNL     1       5.382  -6.157  26.654  0.00  0.00    +0.044 C 
ATOM      2  C   UNL     1       6.589  -5.512  26.037  0.00  0.00    -0.044 A 
ATOM      3  C   UNL     1       6.566  -5.132  24.690  0.00  0.00    +0.091 A 
ATOM      4  C   UNL     1       7.695  -4.521  24.129  0.00  0.00    +0.314 A 
ATOM      5  C   UNL     1       8.850  -4.294  24.877  0.00  0.00    +0.195 A 
ATOM      6  C   UNL     1       8.876  -4.684  26.214  0.00  0.00    +0.053 A 
ATOM      7  C   UNL     1       7.751  -5.289  26.790  0.00  0.00    +0.007 A 
ENDROOT
BRANCH   4   8
ATOM      8  N   UNL     1       7.630  -4.120  22.739  0.00  0.00    +0.083 N 
ATOM      9  O   UNL     1       7.236  -4.972  21.929  0.00  0.00    +0.042 OA
ATOM     10  O   UNL     1       7.902  -2.942  22.469  0.00  0.00    -0.576 OA
ENDBRANCH   4   8
BRANCH   5  11
ATOM     11  O   UNL     1       9.953  -3.723  24.314  0.00  0.00    -0.501 OA
ATOM     12  H   UNL     1      10.624  -4.405  24.142  0.00  0.00    +0.292 HD
ENDBRANCH   5  11
TORSDOF 2
ENDMDL
MODEL 9
REMARK VINA RESULT:      -4.2      1.561      2.128
REMARK  Name = 
REMARK  3 active torsions:
REMARK  status: ('A' for Active; 'I' for Inactive)
REMARK    1  A    between atoms: C_1  and  C_2
REMARK    2  A    between atoms: C_5  and  O_6
REMARK    3  A    between atoms: C_7  and  N_9
REMARK                            x       y       z     vdW  Elec       q    Type
REMARK                         _______ _______ _______ _____ _____    ______ ____
ROOT
ATOM      1  C   UNL     1       8.970  -0.698  26.172  0.00  0.00    +0.044 C 
ATOM      2  C   UNL     1       9.321   0.085  24.940  0.00  0.00    -0.044 A 
ATOM      3  C   UNL     1       9.113   1.468  24.909  0.00  0.00    +0.091 A 
ATOM      4  C   UNL     1       9.453   2.189  23.758  0.00  0.00    +0.314 A 
ATOM      5  C   UNL     1       9.984   1.559  22.632  0.00  0.00    +0.195 A 
ATOM      6  C   UNL     1      10.179   0.180  22.660  0.00  0.00    +0.053 A 
ATOM      7  C   UNL     1       9.849  -0.552  23.808  0.00  0.00    +0.007 A 
ENDROOT
BRANCH   4   8
ATOM      8  N   UNL     1       9.246   3.622  23.767  0.00  0.00    +0.083 N 
ATOM      9  O   UNL     1       8.078   4.017  23.892  0.00  0.00    +0.042 OA
ATOM     10  O   UNL     1      10.250   4.347  23.721  0.00  0.00    -0.576 OA
ENDBRANCH   4   8
BRANCH   5  11
ATOM     11  O   UNL     1      10.288   2.266  21.507  0.00  0.00    -0.501 OA
ATOM     12  H   UNL     1       9.474   2.456  21.008  0.00  0.00    +0.292 HD
ENDBRANCH   5  11
TORSDOF 2
ENDMDL
