MODEL 1
REMARK VINA RESULT:      -6.0      0.000      0.000
REMARK  Name = 
REMARK  7 active torsions:
REMARK  status: ('A' for Active; 'I' for Inactive)
REMARK    1  A    between atoms: C_2  and  O_3
REMARK    2  A    between atoms: C_2  and  C_4
REMARK    3  A    between atoms: C_2  and  C_6
REMARK    4  A    between atoms: C_4  and  N_5
REMARK    5  A    between atoms: C_6  and  N_7
REMARK    6  A    between atoms: N_7  and  C_8
REMARK    7  A    between atoms: C_15  and  N_18
REMARK                            x       y       z     vdW  Elec       q    Type
REMARK                         _______ _______ _______ _____ _____    ______ ____
ROOT
ATOM      1  C   UNL     1       7.270  -1.669  23.554  0.00  0.00    +0.054 A 
ATOM      2  C   UNL     1       8.057  -1.537  24.714  0.00  0.00    +0.032 A 
ATOM      3  C   UNL     1       8.603  -2.646  25.342  0.00  0.00    +0.087 A 
ATOM      4  C   UNL     1       8.407  -3.901  24.772  0.00  0.00    +0.282 A 
ATOM      5  C   UNL     1       7.647  -4.095  23.594  0.00  0.00    +0.079 A 
ATOM      6  C   UNL     1       7.427  -5.355  22.981  0.00  0.00    +0.018 A 
ATOM      7  C   UNL     1       6.660  -5.466  21.828  0.00  0.00    +0.021 A 
ATOM      8  C   UNL     1       6.120  -4.305  21.316  0.00  0.00    +0.111 A 
ATOM      9  N   UNL     1       6.302  -3.083  21.867  0.00  0.00    -0.253 NA
ATOM     10  C   UNL     1       7.061  -2.958  22.982  0.00  0.00    +0.098 A 
ENDROOT
BRANCH   4  11
ATOM     11  N   UNL     1       9.026  -5.019  25.456  0.00  0.00    +0.080 N 
ATOM     12  O   UNL     1       8.313  -5.668  26.236  0.00  0.00    +0.041 OA
ATOM     13  O   UNL     1      10.228  -5.229  25.238  0.00  0.00    -0.576 OA
ENDBRANCH   4  11
BRANCH   1  14
ATOM     14  N   UNL     1       6.786  -0.518  22.874  0.00  0.00    -0.340 N 
ATOM     15  H   UNL     1       5.772  -0.422  23.050  0.00  0.00    +0.146 HD
BRANCH  14  16
ATOM     16  C   UNL     1       7.521   0.746  22.980  0.00  0.00    +0.134 C 
BRANCH  16  17
ATOM     17  C   UNL     1       8.411   1.022  21.750  0.00  0.00    +0.145 C 
BRANCH  17  18
ATOM     18  O   UNL     1       8.638   2.428  21.588  0.00  0.00    -0.389 OA
ATOM     19  H   UNL     1       7.834   2.763  21.147  0.00  0.00    +0.210 HD
ENDBRANCH  17  18
BRANCH  17  20
ATOM     20  C   UNL     1       9.762   0.289  21.794  0.00  0.00    +0.110 C 
BRANCH  20  21
ATOM     21  N   UNL     1       9.701  -1.056  21.207  0.00  0.00    -0.328 NA
ATOM     22  H   UNL     1      10.543  -1.568  21.466  0.00  0.00    +0.118 HD
ATOM     23  H   UNL     1       8.929  -1.562  21.644  0.00  0.00    +0.118 HD
ENDBRANCH  20  21
ENDBRANCH  17  20
ENDBRANCH  16  17
ENDBRANCH  14  16
ENDBRANCH   1  14
TORSDOF 7
ENDMDL
MODEL 2
REMARK VINA RESULT:      -5.8      2.528      3.527
REMARK  Name = 
REMARK  7 active torsions:
REMARK  status: ('A' for Active; 'I' for Inactive)
REMARK    1  A    between atoms: C_2  and  O_3
REMARK    2  A    between atoms: C_2  and  C_4
REMARK    3  A    between atoms: C_2  and  C_6
REMARK    4  A    between atoms: C_4  and  N_5
REMARK    5  A    between atoms: C_6  and  N_7
REMARK    6  A    between atoms: N_7  and  C_8
REMARK    7  A    between atoms: C_15  and  N_18
REMARK                            x       y       z     vdW  Elec       q    Type
REMARK                         _______ _______ _______ _____ _____    ______ ____
ROOT
ATOM      1  C   UNL     1       8.516  -2.185  22.977  0.00  0.00    +0.054 A 
ATOM      2  C   UNL     1       7.331  -1.738  22.362  0.00  0.00    +0.032 A 
ATOM      3  C   UNL     1       6.127  -2.397  22.559  0.00  0.00    +0.087 A 
ATOM      4  C   UNL     1       6.094  -3.484  23.428  0.00  0.00    +0.282 A 
ATOM      5  C   UNL     1       7.246  -3.964  24.096  0.00  0.00    +0.079 A 
ATOM      6  C   UNL     1       7.254  -5.065  24.990  0.00  0.00    +0.018 A 
ATOM      7  C   UNL     1       8.430  -5.482  25.601  0.00  0.00    +0.021 A 
ATOM      8  C   UNL     1       9.581  -4.789  25.293  0.00  0.00    +0.111 A 
ATOM      9  N   UNL     1       9.621  -3.735  24.446  0.00  0.00    -0.253 NA
ATOM     10  C   UNL     1       8.480  -3.306  23.856  0.00  0.00    +0.098 A 
ENDROOT
BRANCH   4  11
ATOM     11  N   UNL     1       4.803  -4.114  23.619  0.00  0.00    +0.080 N 
ATOM     12  O   UNL     1       4.440  -4.928  22.756  0.00  0.00    +0.041 OA
ATOM     13  O   UNL     1       4.141  -3.774  24.610  0.00  0.00    -0.576 OA
ENDBRANCH   4  11
BRANCH   1  14
ATOM     14  N   UNL     1       9.726  -1.452  22.832  0.00  0.00    -0.340 N 
ATOM     15  H   UNL     1      10.516  -2.114  22.760  0.00  0.00    +0.146 HD
BRANCH  14  16
ATOM     16  C   UNL     1       9.792  -0.351  21.866  0.00  0.00    +0.134 C 
BRANCH  16  17
ATOM     17  C   UNL     1      10.179   0.992  22.518  0.00  0.00    +0.145 C 
BRANCH  17  18
ATOM     18  O   UNL     1      10.035   2.073  21.588  0.00  0.00    -0.389 OA
ATOM     19  H   UNL     1      10.504   2.824  22.001  0.00  0.00    +0.210 HD
ENDBRANCH  17  18
BRANCH  17  20
ATOM     20  C   UNL     1       9.380   1.308  23.794  0.00  0.00    +0.110 C 
BRANCH  20  21
ATOM     21  N   UNL     1      10.080   0.901  25.020  0.00  0.00    -0.328 NA
ATOM     22  H   UNL     1      10.058   1.674  25.684  0.00  0.00    +0.118 HD
ATOM     23  H   UNL     1       9.546   0.149  25.459  0.00  0.00    +0.118 HD
ENDBRANCH  20  21
ENDBRANCH  17  20
ENDBRANCH  16  17
ENDBRANCH  14  16
ENDBRANCH   1  14
TORSDOF 7
ENDMDL
MODEL 3
REMARK VINA RESULT:      -5.7      2.309      2.847
REMARK  Name = 
REMARK  7 active torsions:
REMARK  status: ('A' for Active; 'I' for Inactive)
REMARK    1  A    between atoms: C_2  and  O_3
REMARK    2  A    between atoms: C_2  and  C_4
REMARK    3  A    between atoms: C_2  and  C_6
REMARK    4  A    between atoms: C_4  and  N_5
REMARK    5  A    between atoms: C_6  and  N_7
REMARK    6  A    between atoms: N_7  and  C_8
REMARK    7  A    between atoms: C_15  and  N_18
REMARK                            x       y       z     vdW  Elec       q    Type
REMARK                         _______ _______ _______ _____ _____    ______ ____
ROOT
ATOM      1  C   UNL     1       8.637  -3.469  24.682  0.00  0.00    +0.054 A 
ATOM      2  C   UNL     1       8.577  -3.544  26.087  0.00  0.00    +0.032 A 
ATOM      3  C   UNL     1       7.548  -4.218  26.727  0.00  0.00    +0.087 A 
ATOM      4  C   UNL     1       6.596  -4.875  25.952  0.00  0.00    +0.282 A 
ATOM      5  C   UNL     1       6.617  -4.857  24.537  0.00  0.00    +0.079 A 
ATOM      6  C   UNL     1       5.669  -5.516  23.712  0.00  0.00    +0.018 A 
ATOM      7  C   UNL     1       5.752  -5.445  22.328  0.00  0.00    +0.021 A 
ATOM      8  C   UNL     1       6.786  -4.703  21.796  0.00  0.00    +0.111 A 
ATOM      9  N   UNL     1       7.712  -4.058  22.542  0.00  0.00    -0.253 NA
ATOM     10  C   UNL     1       7.653  -4.133  23.894  0.00  0.00    +0.098 A 
ENDROOT
BRANCH   4  11
ATOM     11  N   UNL     1       5.561  -5.588  26.675  0.00  0.00    +0.080 N 
ATOM     12  O   UNL     1       5.795  -6.768  26.976  0.00  0.00    +0.041 OA
ATOM     13  O   UNL     1       4.507  -4.981  26.914  0.00  0.00    -0.576 OA
ENDBRANCH   4  11
BRANCH   1  14
ATOM     14  N   UNL     1       9.742  -2.846  24.039  0.00  0.00    -0.340 N 
ATOM     15  H   UNL     1       9.880  -3.278  23.110  0.00  0.00    +0.146 HD
BRANCH  14  16
ATOM     16  C   UNL     1       9.839  -1.383  24.026  0.00  0.00    +0.134 C 
BRANCH  16  17
ATOM     17  C   UNL     1       9.887  -0.802  22.598  0.00  0.00    +0.145 C 
BRANCH  17  18
ATOM     18  O   UNL     1       9.823  -1.846  21.618  0.00  0.00    -0.389 OA
ATOM     19  H   UNL     1      10.742  -1.951  21.304  0.00  0.00    +0.210 HD
ENDBRANCH  17  18
BRANCH  17  20
ATOM     20  C   UNL     1       8.781   0.229  22.318  0.00  0.00    +0.110 C 
BRANCH  20  21
ATOM     21  N   UNL     1       9.098   1.113  21.189  0.00  0.00    -0.328 NA
ATOM     22  H   UNL     1       9.579   1.940  21.541  0.00  0.00    +0.118 HD
ATOM     23  H   UNL     1       9.776   0.638  20.590  0.00  0.00    +0.118 HD
ENDBRANCH  20  21
ENDBRANCH  17  20
ENDBRANCH  16  17
ENDBRANCH  14  16
ENDBRANCH   1  14
TORSDOF 7
ENDMDL
MODEL 4
REMARK VINA RESULT:      -5.7      4.228      7.297
REMARK  Name = 
REMARK  7 active torsions:
REMARK  status: ('A' for Active; 'I' for Inactive)
REMARK    1  A    between atoms: C_2  and  O_3
REMARK    2  A    between atoms: C_2  and  C_4
REMARK    3  A    between atoms: C_2  and  C_6
REMARK    4  A    between atoms: C_4  and  N_5
REMARK    5  A    between atoms: C_6  and  N_7
REMARK    6  A    between atoms: N_7  and  C_8
REMARK    7  A    between atoms: C_15  and  N_18
REMARK                            x       y       z     vdW  Elec       q    Type
REMARK                         _______ _______ _______ _____ _____    ______ ____
ROOT
ATOM      1  C   UNL     1       4.785  -6.427  25.368  0.00  0.00    +0.054 A 
ATOM      2  C   UNL     1       3.940  -6.491  24.244  0.00  0.00    +0.032 A 
ATOM      3  C   UNL     1       4.325  -5.955  23.024  0.00  0.00    +0.087 A 
ATOM      4  C   UNL     1       5.595  -5.397  22.910  0.00  0.00    +0.282 A 
ATOM      5  C   UNL     1       6.499  -5.326  23.998  0.00  0.00    +0.079 A 
ATOM      6  C   UNL     1       7.801  -4.768  23.922  0.00  0.00    +0.018 A 
ATOM      7  C   UNL     1       8.627  -4.726  25.037  0.00  0.00    +0.021 A 
ATOM      8  C   UNL     1       8.124  -5.240  26.214  0.00  0.00    +0.111 A 
ATOM      9  N   UNL     1       6.889  -5.780  26.334  0.00  0.00    -0.253 NA
ATOM     10  C   UNL     1       6.079  -5.842  25.250  0.00  0.00    +0.098 A 
ENDROOT
BRANCH   4  11
ATOM     11  N   UNL     1       5.954  -4.880  21.605  0.00  0.00    +0.080 N 
ATOM     12  O   UNL     1       5.697  -3.688  21.380  0.00  0.00    +0.041 OA
ATOM     13  O   UNL     1       6.462  -5.670  20.796  0.00  0.00    -0.576 OA
ENDBRANCH   4  11
BRANCH   1  14
ATOM     14  N   UNL     1       4.411  -7.052  26.589  0.00  0.00    -0.340 N 
ATOM     15  H   UNL     1       5.265  -7.336  27.099  0.00  0.00    +0.146 HD
BRANCH  14  16
ATOM     16  C   UNL     1       3.400  -6.424  27.443  0.00  0.00    +0.134 C 
BRANCH  16  17
ATOM     17  C   UNL     1       3.722  -6.559  28.946  0.00  0.00    +0.145 C 
BRANCH  17  18
ATOM     18  O   UNL     1       3.454  -7.889  29.409  0.00  0.00    -0.389 OA
ATOM     19  H   UNL     1       4.334  -8.278  29.576  0.00  0.00    +0.210 HD
ENDBRANCH  17  18
BRANCH  17  20
ATOM     20  C   UNL     1       5.169  -6.177  29.301  0.00  0.00    +0.110 C 
BRANCH  20  21
ATOM     21  N   UNL     1       6.131  -7.242  28.989  0.00  0.00    -0.328 NA
ATOM     22  H   UNL     1       7.019  -6.817  28.722  0.00  0.00    +0.118 HD
ATOM     23  H   UNL     1       6.325  -7.760  29.848  0.00  0.00    +0.118 HD
ENDBRANCH  20  21
ENDBRANCH  17  20
ENDBRANCH  16  17
ENDBRANCH  14  16
ENDBRANCH   1  14
TORSDOF 7
ENDMDL
MODEL 5
REMARK VINA RESULT:      -5.5      3.492      6.299
REMARK  Name = 
REMARK  7 active torsions:
REMARK  status: ('A' for Active; 'I' for Inactive)
REMARK    1  A    between atoms: C_2  and  O_3
REMARK    2  A    between atoms: C_2  and  C_4
REMARK    3  A    between atoms: C_2  and  C_6
REMARK    4  A    between atoms: C_4  and  N_5
REMARK    5  A    between atoms: C_6  and  N_7
REMARK    6  A    between atoms: N_7  and  C_8
REMARK    7  A    between atoms: C_15  and  N_18
REMARK                            x       y       z     vdW  Elec       q    Type
REMARK                         _______ _______ _______ _____ _____    ______ ____
ROOT
ATOM      1  C   UNL     1       6.678  -5.457  25.995  0.00  0.00    +0.054 A 
ATOM      2  C   UNL     1       7.625  -4.734  26.745  0.00  0.00    +0.032 A 
ATOM      3  C   UNL     1       8.479  -3.824  26.138  0.00  0.00    +0.087 A 
ATOM      4  C   UNL     1       8.346  -3.591  24.773  0.00  0.00    +0.282 A 
ATOM      5  C   UNL     1       7.396  -4.268  23.971  0.00  0.00    +0.079 A 
ATOM      6  C   UNL     1       7.227  -4.056  22.578  0.00  0.00    +0.018 A 
ATOM      7  C   UNL     1       6.277  -4.767  21.856  0.00  0.00    +0.021 A 
ATOM      8  C   UNL     1       5.517  -5.686  22.549  0.00  0.00    +0.111 A 
ATOM      9  N   UNL     1       5.644  -5.922  23.875  0.00  0.00    -0.253 NA
ATOM     10  C   UNL     1       6.555  -5.224  24.595  0.00  0.00    +0.098 A 
ENDROOT
BRANCH   4  11
ATOM     11  N   UNL     1       9.244  -2.608  24.199  0.00  0.00    +0.080 N 
ATOM     12  O   UNL     1      10.327  -3.022  23.760  0.00  0.00    +0.041 OA
ATOM     13  O   UNL     1       8.881  -1.423  24.217  0.00  0.00    -0.576 OA
ENDBRANCH   4  11
BRANCH   1  14
ATOM     14  N   UNL     1       5.755  -6.324  26.641  0.00  0.00    -0.340 N 
ATOM     15  H   UNL     1       6.279  -7.046  27.164  0.00  0.00    +0.146 HD
BRANCH  14  16
ATOM     16  C   UNL     1       4.632  -5.755  27.392  0.00  0.00    +0.134 C 
BRANCH  16  17
ATOM     17  C   UNL     1       4.546  -6.294  28.835  0.00  0.00    +0.145 C 
BRANCH  17  18
ATOM     18  O   UNL     1       3.998  -7.619  28.855  0.00  0.00    -0.389 OA
ATOM     19  H   UNL     1       3.853  -7.844  27.915  0.00  0.00    +0.210 HD
ENDBRANCH  17  18
BRANCH  17  20
ATOM     20  C   UNL     1       5.895  -6.289  29.574  0.00  0.00    +0.110 C 
BRANCH  20  21
ATOM     21  N   UNL     1       6.702  -7.484  29.295  0.00  0.00    -0.328 NA
ATOM     22  H   UNL     1       7.657  -7.318  29.609  0.00  0.00    +0.118 HD
ATOM     23  H   UNL     1       6.353  -8.250  29.875  0.00  0.00    +0.118 HD
ENDBRANCH  20  21
ENDBRANCH  17  20
ENDBRANCH  16  17
ENDBRANCH  14  16
ENDBRANCH   1  14
TORSDOF 7
ENDMDL
MODEL 6
REMARK VINA RESULT:      -5.5      3.369      5.711
REMARK  Name = 
REMARK  7 active torsions:
REMARK  status: ('A' for Active; 'I' for Inactive)
REMARK    1  A    between atoms: C_2  and  O_3
REMARK    2  A    between atoms: C_2  and  C_4
REMARK    3  A    between atoms: C_2  and  C_6
REMARK    4  A    between atoms: C_4  and  N_5
REMARK    5  A    between atoms: C_6  and  N_7
REMARK    6  A    between atoms: N_7  and  C_8
REMARK    7  A    between atoms: C_15  and  N_18
REMARK                            x       y       z     vdW  Elec       q    Type
REMARK                         _______ _______ _______ _____ _____    ______ ____
ROOT
ATOM      1  C   UNL     1       6.759  -5.477  25.811  0.00  0.00    +0.054 A 
ATOM      2  C   UNL     1       7.755  -4.934  26.644  0.00  0.00    +0.032 A 
ATOM      3  C   UNL     1       8.652  -3.989  26.170  0.00  0.00    +0.087 A 
ATOM      4  C   UNL     1       8.516  -3.537  24.860  0.00  0.00    +0.282 A 
ATOM      5  C   UNL     1       7.519  -4.026  23.983  0.00  0.00    +0.079 A 
ATOM      6  C   UNL     1       7.345  -3.589  22.644  0.00  0.00    +0.018 A 
ATOM      7  C   UNL     1       6.347  -4.124  21.841  0.00  0.00    +0.021 A 
ATOM      8  C   UNL     1       5.544  -5.098  22.397  0.00  0.00    +0.111 A 
ATOM      9  N   UNL     1       5.673  -5.546  23.667  0.00  0.00    -0.253 NA
ATOM     10  C   UNL     1       6.632  -5.021  24.467  0.00  0.00    +0.098 A 
ENDROOT
BRANCH   4  11
ATOM     11  N   UNL     1       9.462  -2.527  24.429  0.00  0.00    +0.080 N 
ATOM     12  O   UNL     1       9.214  -1.352  24.743  0.00  0.00    +0.041 OA
ATOM     13  O   UNL     1      10.430  -2.901  23.752  0.00  0.00    -0.576 OA
ENDBRANCH   4  11
BRANCH   1  14
ATOM     14  N   UNL     1       5.796  -6.384  26.333  0.00  0.00    -0.340 N 
ATOM     15  H   UNL     1       6.282  -7.126  26.863  0.00  0.00    +0.146 HD
BRANCH  14  16
ATOM     16  C   UNL     1       4.606  -5.862  27.012  0.00  0.00    +0.134 C 
BRANCH  16  17
ATOM     17  C   UNL     1       3.306  -6.127  26.223  0.00  0.00    +0.145 C 
BRANCH  17  18
ATOM     18  O   UNL     1       3.152  -5.180  25.158  0.00  0.00    -0.389 OA
ATOM     19  H   UNL     1       3.117  -5.720  24.346  0.00  0.00    +0.210 HD
ENDBRANCH  17  18
BRANCH  17  20
ATOM     20  C   UNL     1       3.213  -7.553  25.655  0.00  0.00    +0.110 C 
BRANCH  20  21
ATOM     21  N   UNL     1       3.791  -7.669  24.309  0.00  0.00    -0.328 NA
ATOM     22  H   UNL     1       3.345  -6.986  23.698  0.00  0.00    +0.118 HD
ATOM     23  H   UNL     1       4.773  -7.391  24.357  0.00  0.00    +0.118 HD
ENDBRANCH  20  21
ENDBRANCH  17  20
ENDBRANCH  16  17
ENDBRANCH  14  16
ENDBRANCH   1  14
TORSDOF 7
ENDMDL
MODEL 7
REMARK VINA RESULT:      -5.5      3.035      4.615
REMARK  Name = 
REMARK  7 active torsions:
REMARK  status: ('A' for Active; 'I' for Inactive)
REMARK    1  A    between atoms: C_2  and  O_3
REMARK    2  A    between atoms: C_2  and  C_4
REMARK    3  A    between atoms: C_2  and  C_6
REMARK    4  A    between atoms: C_4  and  N_5
REMARK    5  A    between atoms: C_6  and  N_7
REMARK    6  A    between atoms: N_7  and  C_8
REMARK    7  A    between atoms: C_15  and  N_18
REMARK                            x       y       z     vdW  Elec       q    Type
REMARK                         _______ _______ _______ _____ _____    ______ ____
ROOT
ATOM      1  C   UNL     1       6.927  -4.844  23.247  0.00  0.00    +0.054 A 
ATOM      2  C   UNL     1       5.848  -5.202  22.418  0.00  0.00    +0.032 A 
ATOM      3  C   UNL     1       4.733  -5.850  22.928  0.00  0.00    +0.087 A 
ATOM      4  C   UNL     1       4.670  -6.093  24.297  0.00  0.00    +0.282 A 
ATOM      5  C   UNL     1       5.712  -5.733  25.186  0.00  0.00    +0.079 A 
ATOM      6  C   UNL     1       5.685  -5.960  26.586  0.00  0.00    +0.018 A 
ATOM      7  C   UNL     1       6.752  -5.586  27.392  0.00  0.00    +0.021 A 
ATOM      8  C   UNL     1       7.833  -4.996  26.773  0.00  0.00    +0.111 A 
ATOM      9  N   UNL     1       7.904  -4.762  25.442  0.00  0.00    -0.253 NA
ATOM     10  C   UNL     1       6.864  -5.106  24.646  0.00  0.00    +0.098 A 
ENDROOT
BRANCH   4  11
ATOM     11  N   UNL     1       3.469  -6.745  24.779  0.00  0.00    +0.080 N 
ATOM     12  O   UNL     1       2.541  -6.011  25.154  0.00  0.00    +0.041 OA
ATOM     13  O   UNL     1       3.463  -7.984  24.810  0.00  0.00    -0.576 OA
ENDBRANCH   4  11
BRANCH   1  14
ATOM     14  N   UNL     1       8.026  -4.108  22.725  0.00  0.00    -0.340 N 
ATOM     15  H   UNL     1       8.235  -4.442  21.769  0.00  0.00    +0.146 HD
BRANCH  14  16
ATOM     16  C   UNL     1       8.044  -2.647  22.852  0.00  0.00    +0.134 C 
BRANCH  16  17
ATOM     17  C   UNL     1       9.335  -2.122  23.512  0.00  0.00    +0.145 C 
BRANCH  17  18
ATOM     18  O   UNL     1      10.126  -3.204  24.023  0.00  0.00    -0.389 OA
ATOM     19  H   UNL     1       9.619  -3.546  24.784  0.00  0.00    +0.210 HD
ENDBRANCH  17  18
BRANCH  17  20
ATOM     20  C   UNL     1      10.197  -1.261  22.574  0.00  0.00    +0.110 C 
BRANCH  20  21
ATOM     21  N   UNL     1       9.608  -1.109  21.237  0.00  0.00    -0.328 NA
ATOM     22  H   UNL     1       9.101  -1.961  21.001  0.00  0.00    +0.118 HD
ATOM     23  H   UNL     1       8.900  -0.374  21.280  0.00  0.00    +0.118 HD
ENDBRANCH  20  21
ENDBRANCH  17  20
ENDBRANCH  16  17
ENDBRANCH  14  16
ENDBRANCH   1  14
TORSDOF 7
ENDMDL
MODEL 8
REMARK VINA RESULT:      -5.4      4.385      6.949
REMARK  Name = 
REMARK  7 active torsions:
REMARK  status: ('A' for Active; 'I' for Inactive)
REMARK    1  A    between atoms: C_2  and  O_3
REMARK    2  A    between atoms: C_2  and  C_4
REMARK    3  A    between atoms: C_2  and  C_6
REMARK    4  A    between atoms: C_4  and  N_5
REMARK    5  A    between atoms: C_6  and  N_7
REMARK    6  A    between atoms: N_7  and  C_8
REMARK    7  A    between atoms: C_15  and  N_18
REMARK                            x       y       z     vdW  Elec       q    Type
REMARK                         _______ _______ _______ _____ _____    ______ ____
ROOT
ATOM      1  C   UNL     1       4.647  -6.687  24.491  0.00  0.00    +0.054 A 
ATOM      2  C   UNL     1       4.701  -6.697  25.897  0.00  0.00    +0.032 A 
ATOM      3  C   UNL     1       5.652  -5.960  26.586  0.00  0.00    +0.087 A 
ATOM      4  C   UNL     1       6.526  -5.154  25.861  0.00  0.00    +0.282 A 
ATOM      5  C   UNL     1       6.505  -5.082  24.448  0.00  0.00    +0.079 A 
ATOM      6  C   UNL     1       7.375  -4.272  23.673  0.00  0.00    +0.018 A 
ATOM      7  C   UNL     1       7.298  -4.261  22.287  0.00  0.00    +0.021 A 
ATOM      8  C   UNL     1       6.350  -5.074  21.702  0.00  0.00    +0.111 A 
ATOM      9  N   UNL     1       5.500  -5.863  22.399  0.00  0.00    -0.253 NA
ATOM     10  C   UNL     1       5.553  -5.871  23.753  0.00  0.00    +0.098 A 
ENDROOT
BRANCH   4  11
ATOM     11  N   UNL     1       7.478  -4.383  26.635  0.00  0.00    +0.080 N 
ATOM     12  O   UNL     1       8.502  -4.970  27.017  0.00  0.00    +0.041 OA
ATOM     13  O   UNL     1       7.189  -3.204  26.887  0.00  0.00    -0.576 OA
ENDBRANCH   4  11
BRANCH   1  14
ATOM     14  N   UNL     1       3.616  -7.382  23.802  0.00  0.00    -0.340 N 
ATOM     15  H   UNL     1       3.788  -8.399  23.872  0.00  0.00    +0.146 HD
BRANCH  14  16
ATOM     16  C   UNL     1       2.216  -7.007  24.026  0.00  0.00    +0.134 C 
BRANCH  16  17
ATOM     17  C   UNL     1       1.224  -8.046  23.464  0.00  0.00    +0.145 C 
BRANCH  17  18
ATOM     18  O   UNL     1       1.570  -8.410  22.121  0.00  0.00    -0.389 OA
ATOM     19  H   UNL     1       0.988  -9.165  21.909  0.00  0.00    +0.210 HD
ENDBRANCH  17  18
BRANCH  17  20
ATOM     20  C   UNL     1       1.112  -9.316  24.324  0.00  0.00    +0.110 C 
BRANCH  20  21
ATOM     21  N   UNL     1       2.200  -9.439  25.303  0.00  0.00    -0.328 NA
ATOM     22  H   UNL     1       3.042  -9.756  24.824  0.00  0.00    +0.118 HD
ATOM     23  H   UNL     1       2.421  -8.506  25.655  0.00  0.00    +0.118 HD
ENDBRANCH  20  21
ENDBRANCH  17  20
ENDBRANCH  16  17
ENDBRANCH  14  16
ENDBRANCH   1  14
TORSDOF 7
ENDMDL
MODEL 9
REMARK VINA RESULT:      -5.4      2.668      6.025
REMARK  Name = 
REMARK  7 active torsions:
REMARK  status: ('A' for Active; 'I' for Inactive)
REMARK    1  A    between atoms: C_2  and  O_3
REMARK    2  A    between atoms: C_2  and  C_4
REMARK    3  A    between atoms: C_2  and  C_6
REMARK    4  A    between atoms: C_4  and  N_5
REMARK    5  A    between atoms: C_6  and  N_7
REMARK    6  A    between atoms: N_7  and  C_8
REMARK    7  A    between atoms: C_15  and  N_18
REMARK                            x       y       z     vdW  Elec       q    Type
REMARK                         _______ _______ _______ _____ _____    ______ ____
ROOT
ATOM      1  C   UNL     1       8.392  -1.143  25.754  0.00  0.00    +0.054 A 
ATOM      2  C   UNL     1       7.458  -0.224  26.266  0.00  0.00    +0.032 A 
ATOM      3  C   UNL     1       7.046   0.872  25.522  0.00  0.00    +0.087 A 
ATOM      4  C   UNL     1       7.532   1.021  24.227  0.00  0.00    +0.282 A 
ATOM      5  C   UNL     1       8.454   0.116  23.647  0.00  0.00    +0.079 A 
ATOM      6  C   UNL     1       8.969   0.230  22.331  0.00  0.00    +0.018 A 
ATOM      7  C   UNL     1       9.879  -0.695  21.835  0.00  0.00    +0.021 A 
ATOM      8  C   UNL     1      10.261  -1.717  22.678  0.00  0.00    +0.111 A 
ATOM      9  N   UNL     1       9.797  -1.865  23.941  0.00  0.00    -0.253 NA
ATOM     10  C   UNL     1       8.897  -0.979  24.431  0.00  0.00    +0.098 A 
ENDROOT
BRANCH   4  11
ATOM     11  N   UNL     1       7.044   2.168  23.486  0.00  0.00    +0.080 N 
ATOM     12  O   UNL     1       6.027   2.002  22.797  0.00  0.00    +0.041 OA
ATOM     13  O   UNL     1       7.693   3.221  23.569  0.00  0.00    -0.576 OA
ENDBRANCH   4  11
BRANCH   1  14
ATOM     14  N   UNL     1       8.742  -2.306  26.494  0.00  0.00    -0.340 N 
ATOM     15  H   UNL     1       9.085  -2.023  27.427  0.00  0.00    +0.146 HD
BRANCH  14  16
ATOM     16  C   UNL     1       7.820  -3.445  26.529  0.00  0.00    +0.134 C 
BRANCH  16  17
ATOM     17  C   UNL     1       8.548  -4.797  26.682  0.00  0.00    +0.145 C 
BRANCH  17  18
ATOM     18  O   UNL     1       7.748  -5.728  27.423  0.00  0.00    -0.389 OA
ATOM     19  H   UNL     1       7.679  -5.342  28.318  0.00  0.00    +0.210 HD
ENDBRANCH  17  18
BRANCH  17  20
ATOM     20  C   UNL     1       8.956  -5.429  25.341  0.00  0.00    +0.110 C 
BRANCH  20  21
ATOM     21  N   UNL     1      10.237  -4.919  24.836  0.00  0.00    -0.328 NA
ATOM     22  H   UNL     1      10.133  -4.683  23.850  0.00  0.00    +0.118 HD
ATOM     23  H   UNL     1      10.438  -4.035  25.307  0.00  0.00    +0.118 HD
ENDBRANCH  20  21
ENDBRANCH  17  20
ENDBRANCH  16  17
ENDBRANCH  14  16
ENDBRANCH   1  14
TORSDOF 7
ENDMDL
