MODEL 1
REMARK VINA RESULT:      -7.1      0.000      0.000
REMARK  Name = 
REMARK  8 active torsions:
REMARK  status: ('A' for Active; 'I' for Inactive)
REMARK    1  A    between atoms: C_1  and  O_2
REMARK    2  A    between atoms: O_2  and  C_3
REMARK    3  A    between atoms: C_9  and  C_10
REMARK    4  A    between atoms: C_10  and  O_11
REMARK    5  A    between atoms: O_11  and  C_12
REMARK    6  A    between atoms: C_15  and  N_18
REMARK    7  A    between atoms: C_21  and  C_22
REMARK    8  A    between atoms: N_23  and  C_24
REMARK                            x       y       z     vdW  Elec       q    Type
REMARK                         _______ _______ _______ _____ _____    ______ ____
ROOT
ATOM      1  C   UNL     1       3.645  -6.456  24.162  0.00  0.00    +0.171 C 
ATOM      2  C   UNL     1       4.730  -5.798  23.323  0.00  0.00    +0.230 C 
ATOM      3  O   UNL     1       4.568  -5.544  22.132  0.00  0.00    -0.283 OA
ATOM      4  C   UNL     1       5.938  -5.450  24.060  0.00  0.00    +0.061 A 
ATOM      5  C   UNL     1       7.101  -4.721  23.644  0.00  0.00    +0.022 A 
ATOM      6  C   UNL     1       7.918  -4.600  24.769  0.00  0.00    +0.023 A 
ATOM      7  N   UNL     1       7.312  -5.280  25.809  0.00  0.00    -0.344 N 
ATOM      8  C   UNL     1       7.809  -5.407  27.166  0.00  0.00    +0.149 C 
ATOM      9  C   UNL     1       9.216  -3.884  24.947  0.00  0.00    +0.064 C 
ATOM     10  C   UNL     1       6.111  -5.789  25.385  0.00  0.00    +0.101 A 
ATOM     11  C   UNL     1       5.139  -6.517  26.151  0.00  0.00    +0.207 C 
ATOM     12  O   UNL     1       5.277  -6.884  27.313  0.00  0.00    -0.286 OA
ATOM     13  C   UNL     1       3.864  -6.796  25.448  0.00  0.00    +0.102 C 
ENDROOT
BRANCH   1  15
ATOM     14  C   UNL     1       1.867  -7.956  23.610  0.00  0.00    +0.277 C 
ATOM     15  O   UNL     1       2.441  -6.656  23.503  0.00  0.00    -0.491 OA
ENDBRANCH   1  15
BRANCH   5  16
ATOM     16  C   UNL     1       7.300  -4.147  22.263  0.00  0.00    +0.267 C 
BRANCH  16  17
ATOM     17  O   UNL     1       6.882  -2.782  22.164  0.00  0.00    -0.487 OA
BRANCH  17  18
ATOM     18  C   UNL     1       7.808  -1.833  22.498  0.00  0.00    +0.121 A 
ATOM     19  C   UNL     1       7.408  -0.964  23.519  0.00  0.00    +0.052 A 
ATOM     20  C   UNL     1       8.265   0.038  23.982  0.00  0.00    +0.088 A 
ATOM     21  C   UNL     1       9.537   0.170  23.412  0.00  0.00    +0.273 A 
ATOM     22  C   UNL     1       9.941  -0.683  22.378  0.00  0.00    +0.088 A 
ATOM     23  C   UNL     1       9.074  -1.682  21.923  0.00  0.00    +0.052 A 
BRANCH  21  24
ATOM     24  N   UNL     1      10.457   1.198  23.910  0.00  0.00    +0.080 N 
ATOM     25  O   UNL     1      11.421   0.829  24.593  0.00  0.00    +0.041 OA
ATOM     26  O   UNL     1      10.217   2.378  23.612  0.00  0.00    -0.576 OA
ENDBRANCH  21  24
ENDBRANCH  17  18
ENDBRANCH  16  17
ENDBRANCH   5  16
TORSDOF 5
ENDMDL
MODEL 2
REMARK VINA RESULT:      -7.0      1.884      3.658
REMARK  Name = 
REMARK  8 active torsions:
REMARK  status: ('A' for Active; 'I' for Inactive)
REMARK    1  A    between atoms: C_1  and  O_2
REMARK    2  A    between atoms: O_2  and  C_3
REMARK    3  A    between atoms: C_9  and  C_10
REMARK    4  A    between atoms: C_10  and  O_11
REMARK    5  A    between atoms: O_11  and  C_12
REMARK    6  A    between atoms: C_15  and  N_18
REMARK    7  A    between atoms: C_21  and  C_22
REMARK    8  A    between atoms: N_23  and  C_24
REMARK                            x       y       z     vdW  Elec       q    Type
REMARK                         _______ _______ _______ _____ _____    ______ ____
ROOT
ATOM      1  C   UNL     1       5.730  -6.017  26.089  0.00  0.00    +0.171 C 
ATOM      2  C   UNL     1       6.804  -4.942  26.133  0.00  0.00    +0.230 C 
ATOM      3  O   UNL     1       7.482  -4.740  27.138  0.00  0.00    -0.283 OA
ATOM      4  C   UNL     1       6.995  -4.223  24.880  0.00  0.00    +0.061 A 
ATOM      5  C   UNL     1       7.979  -3.248  24.510  0.00  0.00    +0.022 A 
ATOM      6  C   UNL     1       7.757  -2.949  23.165  0.00  0.00    +0.023 A 
ATOM      7  N   UNL     1       6.649  -3.663  22.749  0.00  0.00    -0.344 N 
ATOM      8  C   UNL     1       6.067  -3.661  21.421  0.00  0.00    +0.149 C 
ATOM      9  C   UNL     1       8.515  -2.059  22.236  0.00  0.00    +0.064 C 
ATOM     10  C   UNL     1       6.190  -4.439  23.782  0.00  0.00    +0.101 A 
ATOM     11  C   UNL     1       5.095  -5.368  23.772  0.00  0.00    +0.207 C 
ATOM     12  O   UNL     1       4.323  -5.549  22.836  0.00  0.00    -0.286 OA
ATOM     13  C   UNL     1       4.944  -6.178  25.005  0.00  0.00    +0.102 C 
ENDROOT
BRANCH   1  15
ATOM     14  C   UNL     1       4.511  -6.584  28.066  0.00  0.00    +0.277 C 
ATOM     15  O   UNL     1       5.643  -6.803  27.229  0.00  0.00    -0.491 OA
ENDBRANCH   1  15
BRANCH   5  16
ATOM     16  C   UNL     1       9.071  -2.749  25.424  0.00  0.00    +0.267 C 
BRANCH  16  17
ATOM     17  O   UNL     1       8.678  -1.601  26.183  0.00  0.00    -0.487 OA
BRANCH  17  18
ATOM     18  C   UNL     1       8.903  -0.381  25.608  0.00  0.00    +0.121 A 
ATOM     19  C   UNL     1      10.194  -0.206  25.100  0.00  0.00    +0.052 A 
ATOM     20  C   UNL     1      10.556   0.983  24.460  0.00  0.00    +0.088 A 
ATOM     21  C   UNL     1       9.611   2.007  24.332  0.00  0.00    +0.273 A 
ATOM     22  C   UNL     1       8.321   1.851  24.852  0.00  0.00    +0.088 A 
ATOM     23  C   UNL     1       7.971   0.656  25.491  0.00  0.00    +0.052 A 
BRANCH  21  24
ATOM     24  N   UNL     1       9.970   3.248  23.636  0.00  0.00    +0.080 N 
ATOM     25  O   UNL     1       9.060   4.045  23.370  0.00  0.00    +0.041 OA
ATOM     26  O   UNL     1      11.165   3.429  23.360  0.00  0.00    -0.576 OA
ENDBRANCH  21  24
ENDBRANCH  17  18
ENDBRANCH  16  17
ENDBRANCH   5  16
TORSDOF 5
ENDMDL
MODEL 3
REMARK VINA RESULT:      -6.9      2.854      3.499
REMARK  Name = 
REMARK  8 active torsions:
REMARK  status: ('A' for Active; 'I' for Inactive)
REMARK    1  A    between atoms: C_1  and  O_2
REMARK    2  A    between atoms: O_2  and  C_3
REMARK    3  A    between atoms: C_9  and  C_10
REMARK    4  A    between atoms: C_10  and  O_11
REMARK    5  A    between atoms: O_11  and  C_12
REMARK    6  A    between atoms: C_15  and  N_18
REMARK    7  A    between atoms: C_21  and  C_22
REMARK    8  A    between atoms: N_23  and  C_24
REMARK                            x       y       z     vdW  Elec       q    Type
REMARK                         _______ _______ _______ _____ _____    ______ ____
ROOT
ATOM      1  C   UNL     1       5.792  -4.052  22.353  0.00  0.00    +0.171 C 
ATOM      2  C   UNL     1       7.205  -3.743  22.824  0.00  0.00    +0.230 C 
ATOM      3  O   UNL     1       8.194  -4.078  22.178  0.00  0.00    -0.283 OA
ATOM      4  C   UNL     1       7.277  -2.975  24.060  0.00  0.00    +0.061 A 
ATOM      5  C   UNL     1       8.407  -2.402  24.732  0.00  0.00    +0.022 A 
ATOM      6  C   UNL     1       7.904  -1.699  25.827  0.00  0.00    +0.023 A 
ATOM      7  N   UNL     1       6.535  -1.887  25.860  0.00  0.00    -0.344 N 
ATOM      8  C   UNL     1       5.608  -1.329  26.826  0.00  0.00    +0.149 C 
ATOM      9  C   UNL     1       8.607  -0.851  26.836  0.00  0.00    +0.064 C 
ATOM     10  C   UNL     1       6.152  -2.652  24.789  0.00  0.00    +0.101 A 
ATOM     11  C   UNL     1       4.823  -3.046  24.412  0.00  0.00    +0.207 C 
ATOM     12  O   UNL     1       3.805  -2.826  25.059  0.00  0.00    -0.286 OA
ATOM     13  C   UNL     1       4.719  -3.744  23.109  0.00  0.00    +0.102 C 
ENDROOT
BRANCH   1  15
ATOM     14  C   UNL     1       6.043  -6.037  21.044  0.00  0.00    +0.277 C 
ATOM     15  O   UNL     1       5.712  -4.652  21.105  0.00  0.00    -0.491 OA
ENDBRANCH   1  15
BRANCH   5  16
ATOM     16  C   UNL     1       9.831  -2.504  24.245  0.00  0.00    +0.267 C 
BRANCH  16  17
ATOM     17  O   UNL     1      10.036  -1.853  22.988  0.00  0.00    -0.487 OA
BRANCH  17  18
ATOM     18  C   UNL     1      10.133  -0.489  23.013  0.00  0.00    +0.121 A 
ATOM     19  C   UNL     1      10.699   0.033  24.180  0.00  0.00    +0.052 A 
ATOM     20  C   UNL     1      10.886   1.409  24.332  0.00  0.00    +0.088 A 
ATOM     21  C   UNL     1      10.498   2.271  23.299  0.00  0.00    +0.273 A 
ATOM     22  C   UNL     1       9.915   1.762  22.133  0.00  0.00    +0.088 A 
ATOM     23  C   UNL     1       9.733   0.382  21.994  0.00  0.00    +0.052 A 
BRANCH  21  24
ATOM     24  N   UNL     1      10.717   3.715  23.434  0.00  0.00    +0.080 N 
ATOM     25  O   UNL     1      11.850   4.153  23.193  0.00  0.00    +0.041 OA
ATOM     26  O   UNL     1       9.752   4.414  23.776  0.00  0.00    -0.576 OA
ENDBRANCH  21  24
ENDBRANCH  17  18
ENDBRANCH  16  17
ENDBRANCH   5  16
TORSDOF 5
ENDMDL
MODEL 4
REMARK VINA RESULT:      -6.9      1.916      3.557
REMARK  Name = 
REMARK  8 active torsions:
REMARK  status: ('A' for Active; 'I' for Inactive)
REMARK    1  A    between atoms: C_1  and  O_2
REMARK    2  A    between atoms: O_2  and  C_3
REMARK    3  A    between atoms: C_9  and  C_10
REMARK    4  A    between atoms: C_10  and  O_11
REMARK    5  A    between atoms: O_11  and  C_12
REMARK    6  A    between atoms: C_15  and  N_18
REMARK    7  A    between atoms: C_21  and  C_22
REMARK    8  A    between atoms: N_23  and  C_24
REMARK                            x       y       z     vdW  Elec       q    Type
REMARK                         _______ _______ _______ _____ _____    ______ ____
ROOT
ATOM      1  C   UNL     1       6.060  -5.977  27.918  0.00  0.00    +0.171 C 
ATOM      2  C   UNL     1       7.114  -5.375  27.002  0.00  0.00    +0.230 C 
ATOM      3  O   UNL     1       8.217  -5.029  27.417  0.00  0.00    -0.283 OA
ATOM      4  C   UNL     1       6.725  -5.298  25.600  0.00  0.00    +0.061 A 
ATOM      5  C   UNL     1       7.485  -4.912  24.446  0.00  0.00    +0.022 A 
ATOM      6  C   UNL     1       6.654  -5.102  23.341  0.00  0.00    +0.023 A 
ATOM      7  N   UNL     1       5.421  -5.524  23.804  0.00  0.00    -0.344 N 
ATOM      8  C   UNL     1       4.259  -5.849  22.999  0.00  0.00    +0.149 C 
ATOM      9  C   UNL     1       6.931  -4.934  21.884  0.00  0.00    +0.064 C 
ATOM     10  C   UNL     1       5.464  -5.650  25.169  0.00  0.00    +0.101 A 
ATOM     11  C   UNL     1       4.424  -6.106  26.048  0.00  0.00    +0.207 C 
ATOM     12  O   UNL     1       3.276  -6.378  25.713  0.00  0.00    -0.286 OA
ATOM     13  C   UNL     1       4.828  -6.283  27.464  0.00  0.00    +0.102 C 
ENDROOT
BRANCH   1  15
ATOM     14  C   UNL     1       5.573  -5.788  30.251  0.00  0.00    +0.277 C 
ATOM     15  O   UNL     1       6.476  -6.189  29.225  0.00  0.00    -0.491 OA
ENDBRANCH   1  15
BRANCH   5  16
ATOM     16  C   UNL     1       8.929  -4.478  24.481  0.00  0.00    +0.267 C 
BRANCH  16  17
ATOM     17  O   UNL     1       9.107  -3.194  25.088  0.00  0.00    -0.487 OA
BRANCH  17  18
ATOM     18  C   UNL     1       9.170  -2.121  24.242  0.00  0.00    +0.121 A 
ATOM     19  C   UNL     1       8.617  -0.943  24.754  0.00  0.00    +0.052 A 
ATOM     20  C   UNL     1       8.637   0.240  24.010  0.00  0.00    +0.088 A 
ATOM     21  C   UNL     1       9.219   0.238  22.737  0.00  0.00    +0.273 A 
ATOM     22  C   UNL     1       9.761  -0.939  22.207  0.00  0.00    +0.088 A 
ATOM     23  C   UNL     1       9.733  -2.116  22.962  0.00  0.00    +0.052 A 
BRANCH  21  24
ATOM     24  N   UNL     1       9.273   1.480  21.958  0.00  0.00    +0.080 N 
ATOM     25  O   UNL     1       8.224   1.880  21.435  0.00  0.00    +0.041 OA
ATOM     26  O   UNL     1      10.366   2.058  21.872  0.00  0.00    -0.576 OA
ENDBRANCH  21  24
ENDBRANCH  17  18
ENDBRANCH  16  17
ENDBRANCH   5  16
TORSDOF 5
ENDMDL
MODEL 5
REMARK VINA RESULT:      -6.7      2.759      8.478
REMARK  Name = 
REMARK  8 active torsions:
REMARK  status: ('A' for Active; 'I' for Inactive)
REMARK    1  A    between atoms: C_1  and  O_2
REMARK    2  A    between atoms: O_2  and  C_3
REMARK    3  A    between atoms: C_9  and  C_10
REMARK    4  A    between atoms: C_10  and  O_11
REMARK    5  A    between atoms: O_11  and  C_12
REMARK    6  A    between atoms: C_15  and  N_18
REMARK    7  A    between atoms: C_21  and  C_22
REMARK    8  A    between atoms: N_23  and  C_24
REMARK                            x       y       z     vdW  Elec       q    Type
REMARK                         _______ _______ _______ _____ _____    ______ ____
ROOT
ATOM      1  C   UNL     1      10.348   3.204  23.608  0.00  0.00    +0.171 C 
ATOM      2  C   UNL     1      10.248   1.747  24.032  0.00  0.00    +0.230 C 
ATOM      3  O   UNL     1      11.244   1.045  24.188  0.00  0.00    -0.283 OA
ATOM      4  C   UNL     1       8.891   1.282  24.289  0.00  0.00    +0.061 A 
ATOM      5  C   UNL     1       8.422   0.033  24.815  0.00  0.00    +0.022 A 
ATOM      6  C   UNL     1       7.037   0.148  24.936  0.00  0.00    +0.023 A 
ATOM      7  N   UNL     1       6.669   1.388  24.447  0.00  0.00    -0.344 N 
ATOM      8  C   UNL     1       5.325   1.931  24.388  0.00  0.00    +0.149 C 
ATOM      9  C   UNL     1       6.033  -0.809  25.490  0.00  0.00    +0.064 C 
ATOM     10  C   UNL     1       7.789   2.078  24.061  0.00  0.00    +0.101 A 
ATOM     11  C   UNL     1       7.870   3.416  23.545  0.00  0.00    +0.207 C 
ATOM     12  O   UNL     1       6.913   4.136  23.279  0.00  0.00    -0.286 OA
ATOM     13  C   UNL     1       9.245   3.941  23.369  0.00  0.00    +0.102 C 
ENDROOT
BRANCH   1  15
ATOM     14  C   UNL     1      11.787   5.111  23.516  0.00  0.00    +0.277 C 
ATOM     15  O   UNL     1      11.642   3.694  23.505  0.00  0.00    -0.491 OA
ENDBRANCH   1  15
BRANCH   5  16
ATOM     16  C   UNL     1       9.316  -1.112  25.220  0.00  0.00    +0.267 C 
BRANCH  16  17
ATOM     17  O   UNL     1       9.719  -1.921  24.111  0.00  0.00    -0.487 OA
BRANCH  17  18
ATOM     18  C   UNL     1       8.787  -2.791  23.617  0.00  0.00    +0.121 A 
ATOM     19  C   UNL     1       8.607  -3.948  24.383  0.00  0.00    +0.052 A 
ATOM     20  C   UNL     1       7.666  -4.912  24.012  0.00  0.00    +0.088 A 
ATOM     21  C   UNL     1       6.898  -4.712  22.859  0.00  0.00    +0.273 A 
ATOM     22  C   UNL     1       7.081  -3.567  22.076  0.00  0.00    +0.088 A 
ATOM     23  C   UNL     1       8.027  -2.609  22.457  0.00  0.00    +0.052 A 
BRANCH  21  24
ATOM     24  N   UNL     1       5.886  -5.702  22.476  0.00  0.00    +0.080 N 
ATOM     25  O   UNL     1       5.605  -5.806  21.274  0.00  0.00    +0.041 OA
ATOM     26  O   UNL     1       5.373  -6.381  23.378  0.00  0.00    -0.576 OA
ENDBRANCH  21  24
ENDBRANCH  17  18
ENDBRANCH  16  17
ENDBRANCH   5  16
TORSDOF 5
ENDMDL
MODEL 6
REMARK VINA RESULT:      -6.7      3.811      9.717
REMARK  Name = 
REMARK  8 active torsions:
REMARK  status: ('A' for Active; 'I' for Inactive)
REMARK    1  A    between atoms: C_1  and  O_2
REMARK    2  A    between atoms: O_2  and  C_3
REMARK    3  A    between atoms: C_9  and  C_10
REMARK    4  A    between atoms: C_10  and  O_11
REMARK    5  A    between atoms: O_11  and  C_12
REMARK    6  A    between atoms: C_15  and  N_18
REMARK    7  A    between atoms: C_21  and  C_22
REMARK    8  A    between atoms: N_23  and  C_24
REMARK                            x       y       z     vdW  Elec       q    Type
REMARK                         _______ _______ _______ _____ _____    ______ ____
ROOT
ATOM      1  C   UNL     1      10.764   5.688  23.776  0.00  0.00    +0.171 C 
ATOM      2  C   UNL     1      10.819   4.195  23.491  0.00  0.00    +0.230 C 
ATOM      3  O   UNL     1      11.882   3.581  23.436  0.00  0.00    -0.283 OA
ATOM      4  C   UNL     1       9.517   3.557  23.349  0.00  0.00    +0.061 A 
ATOM      5  C   UNL     1       9.173   2.173  23.203  0.00  0.00    +0.022 A 
ATOM      6  C   UNL     1       7.779   2.108  23.195  0.00  0.00    +0.023 A 
ATOM      7  N   UNL     1       7.293   3.400  23.269  0.00  0.00    -0.344 N 
ATOM      8  C   UNL     1       5.899   3.801  23.298  0.00  0.00    +0.149 C 
ATOM      9  C   UNL     1       6.867   0.927  23.140  0.00  0.00    +0.064 C 
ATOM     10  C   UNL     1       8.342   4.278  23.369  0.00  0.00    +0.101 A 
ATOM     11  C   UNL     1       8.290   5.706  23.517  0.00  0.00    +0.207 C 
ATOM     12  O   UNL     1       7.271   6.388  23.487  0.00  0.00    -0.286 OA
ATOM     13  C   UNL     1       9.597   6.362  23.760  0.00  0.00    +0.102 C 
ENDROOT
BRANCH   1  15
ATOM     14  C   UNL     1      12.121   6.889  25.335  0.00  0.00    +0.277 C 
ATOM     15  O   UNL     1      11.991   6.273  24.057  0.00  0.00    -0.491 OA
ENDBRANCH   1  15
BRANCH   5  16
ATOM     16  C   UNL     1      10.173   1.045  23.160  0.00  0.00    +0.267 C 
BRANCH  16  17
ATOM     17  O   UNL     1      10.506   0.548  24.459  0.00  0.00    -0.487 OA
BRANCH  17  18
ATOM     18  C   UNL     1       9.799  -0.536  24.900  0.00  0.00    +0.121 A 
ATOM     19  C   UNL     1       9.880  -1.661  24.072  0.00  0.00    +0.052 A 
ATOM     20  C   UNL     1       9.230  -2.850  24.413  0.00  0.00    +0.088 A 
ATOM     21  C   UNL     1       8.488  -2.909  25.599  0.00  0.00    +0.273 A 
ATOM     22  C   UNL     1       8.385  -1.785  26.427  0.00  0.00    +0.088 A 
ATOM     23  C   UNL     1       9.040  -0.601  26.073  0.00  0.00    +0.052 A 
BRANCH  21  24
ATOM     24  N   UNL     1       7.826  -4.160  25.983  0.00  0.00    +0.080 N 
ATOM     25  O   UNL     1       7.007  -4.647  25.192  0.00  0.00    +0.041 OA
ATOM     26  O   UNL     1       8.128  -4.659  27.077  0.00  0.00    -0.576 OA
ENDBRANCH  21  24
ENDBRANCH  17  18
ENDBRANCH  16  17
ENDBRANCH   5  16
TORSDOF 5
ENDMDL
MODEL 7
REMARK VINA RESULT:      -6.5      3.181      8.917
REMARK  Name = 
REMARK  8 active torsions:
REMARK  status: ('A' for Active; 'I' for Inactive)
REMARK    1  A    between atoms: C_1  and  O_2
REMARK    2  A    between atoms: O_2  and  C_3
REMARK    3  A    between atoms: C_9  and  C_10
REMARK    4  A    between atoms: C_10  and  O_11
REMARK    5  A    between atoms: O_11  and  C_12
REMARK    6  A    between atoms: C_15  and  N_18
REMARK    7  A    between atoms: C_21  and  C_22
REMARK    8  A    between atoms: N_23  and  C_24
REMARK                            x       y       z     vdW  Elec       q    Type
REMARK                         _______ _______ _______ _____ _____    ______ ____
ROOT
ATOM      1  C   UNL     1       9.923   4.994  23.842  0.00  0.00    +0.171 C 
ATOM      2  C   UNL     1      10.213   3.502  23.795  0.00  0.00    +0.230 C 
ATOM      3  O   UNL     1      11.221   3.051  23.256  0.00  0.00    -0.283 OA
ATOM      4  C   UNL     1       9.234   2.672  24.485  0.00  0.00    +0.061 A 
ATOM      5  C   UNL     1       9.237   1.263  24.754  0.00  0.00    +0.022 A 
ATOM      6  C   UNL     1       8.102   1.002  25.522  0.00  0.00    +0.023 A 
ATOM      7  N   UNL     1       7.403   2.187  25.661  0.00  0.00    -0.344 N 
ATOM      8  C   UNL     1       6.164   2.380  26.391  0.00  0.00    +0.149 C 
ATOM      9  C   UNL     1       7.630  -0.269  26.148  0.00  0.00    +0.064 C 
ATOM     10  C   UNL     1       8.089   3.199  25.041  0.00  0.00    +0.101 A 
ATOM     11  C   UNL     1       7.749   4.593  24.984  0.00  0.00    +0.207 C 
ATOM     12  O   UNL     1       6.716   5.093  25.418  0.00  0.00    -0.286 OA
ATOM     13  C   UNL     1       8.777   5.468  24.371  0.00  0.00    +0.102 C 
ENDROOT
BRANCH   1  15
ATOM     14  C   UNL     1      12.008   6.111  24.185  0.00  0.00    +0.277 C 
ATOM     15  O   UNL     1      10.923   5.799  23.316  0.00  0.00    -0.491 OA
ENDBRANCH   1  15
BRANCH   5  16
ATOM     16  C   UNL     1      10.334   0.316  24.334  0.00  0.00    +0.267 C 
BRANCH  16  17
ATOM     17  O   UNL     1      10.031  -0.381  23.122  0.00  0.00    -0.487 OA
BRANCH  17  18
ATOM     18  C   UNL     1       9.367  -1.570  23.250  0.00  0.00    +0.121 A 
ATOM     19  C   UNL     1       8.278  -1.724  22.386  0.00  0.00    +0.052 A 
ATOM     20  C   UNL     1       7.524  -2.901  22.387  0.00  0.00    +0.088 A 
ATOM     21  C   UNL     1       7.868  -3.934  23.266  0.00  0.00    +0.273 A 
ATOM     22  C   UNL     1       8.946  -3.785  24.148  0.00  0.00    +0.088 A 
ATOM     23  C   UNL     1       9.691  -2.601  24.137  0.00  0.00    +0.052 A 
BRANCH  21  24
ATOM     24  N   UNL     1       7.104  -5.186  23.256  0.00  0.00    +0.080 N 
ATOM     25  O   UNL     1       6.393  -5.437  24.239  0.00  0.00    +0.041 OA
ATOM     26  O   UNL     1       7.211  -5.918  22.261  0.00  0.00    -0.576 OA
ENDBRANCH  21  24
ENDBRANCH  17  18
ENDBRANCH  16  17
ENDBRANCH   5  16
TORSDOF 5
ENDMDL
MODEL 8
REMARK VINA RESULT:      -6.5      2.486      4.235
REMARK  Name = 
REMARK  8 active torsions:
REMARK  status: ('A' for Active; 'I' for Inactive)
REMARK    1  A    between atoms: C_1  and  O_2
REMARK    2  A    between atoms: O_2  and  C_3
REMARK    3  A    between atoms: C_9  and  C_10
REMARK    4  A    between atoms: C_10  and  O_11
REMARK    5  A    between atoms: O_11  and  C_12
REMARK    6  A    between atoms: C_15  and  N_18
REMARK    7  A    between atoms: C_21  and  C_22
REMARK    8  A    between atoms: N_23  and  C_24
REMARK                            x       y       z     vdW  Elec       q    Type
REMARK                         _______ _______ _______ _____ _____    ______ ____
ROOT
ATOM      1  C   UNL     1       5.260  -0.548  25.782  0.00  0.00    +0.171 C 
ATOM      2  C   UNL     1       6.101  -0.848  24.552  0.00  0.00    +0.230 C 
ATOM      3  O   UNL     1       6.608   0.043  23.875  0.00  0.00    -0.283 OA
ATOM      4  C   UNL     1       6.297  -2.267  24.284  0.00  0.00    +0.061 A 
ATOM      5  C   UNL     1       7.117  -2.923  23.306  0.00  0.00    +0.022 A 
ATOM      6  C   UNL     1       7.000  -4.293  23.543  0.00  0.00    +0.023 A 
ATOM      7  N   UNL     1       6.100  -4.470  24.578  0.00  0.00    -0.344 N 
ATOM      8  C   UNL     1       5.686  -5.733  25.158  0.00  0.00    +0.149 C 
ATOM      9  C   UNL     1       7.679  -5.448  22.884  0.00  0.00    +0.064 C 
ATOM     10  C   UNL     1       5.679  -3.247  25.032  0.00  0.00    +0.101 A 
ATOM     11  C   UNL     1       4.787  -2.967  26.122  0.00  0.00    +0.207 C 
ATOM     12  O   UNL     1       4.176  -3.806  26.776  0.00  0.00    -0.286 OA
ATOM     13  C   UNL     1       4.649  -1.533  26.471  0.00  0.00    +0.102 C 
ENDROOT
BRANCH   1  15
ATOM     14  C   UNL     1       5.999   1.210  27.225  0.00  0.00    +0.277 C 
ATOM     15  O   UNL     1       5.191   0.795  26.127  0.00  0.00    -0.491 OA
ENDBRANCH   1  15
BRANCH   5  16
ATOM     16  C   UNL     1       7.982  -2.206  22.300  0.00  0.00    +0.267 C 
BRANCH  16  17
ATOM     17  O   UNL     1       9.321  -2.006  22.762  0.00  0.00    -0.487 OA
BRANCH  17  18
ATOM     18  C   UNL     1       9.691  -0.716  23.028  0.00  0.00    +0.121 A 
ATOM     19  C   UNL     1       9.622   0.148  21.931  0.00  0.00    +0.052 A 
ATOM     20  C   UNL     1       9.944   1.501  22.064  0.00  0.00    +0.088 A 
ATOM     21  C   UNL     1      10.341   1.991  23.314  0.00  0.00    +0.273 A 
ATOM     22  C   UNL     1      10.430   1.133  24.415  0.00  0.00    +0.088 A 
ATOM     23  C   UNL     1      10.106  -0.220  24.269  0.00  0.00    +0.052 A 
BRANCH  21  24
ATOM     24  N   UNL     1      10.652   3.416  23.473  0.00  0.00    +0.080 N 
ATOM     25  O   UNL     1       9.730   4.176  23.797  0.00  0.00    +0.041 OA
ATOM     26  O   UNL     1      11.823   3.775  23.280  0.00  0.00    -0.576 OA
ENDBRANCH  21  24
ENDBRANCH  17  18
ENDBRANCH  16  17
ENDBRANCH   5  16
TORSDOF 5
ENDMDL
MODEL 9
REMARK VINA RESULT:      -6.4      1.923      3.475
REMARK  Name = 
REMARK  8 active torsions:
REMARK  status: ('A' for Active; 'I' for Inactive)
REMARK    1  A    between atoms: C_1  and  O_2
REMARK    2  A    between atoms: O_2  and  C_3
REMARK    3  A    between atoms: C_9  and  C_10
REMARK    4  A    between atoms: C_10  and  O_11
REMARK    5  A    between atoms: O_11  and  C_12
REMARK    6  A    between atoms: C_15  and  N_18
REMARK    7  A    between atoms: C_21  and  C_22
REMARK    8  A    between atoms: N_23  and  C_24
REMARK                            x       y       z     vdW  Elec       q    Type
REMARK                         _______ _______ _______ _____ _____    ______ ____
ROOT
ATOM      1  C   UNL     1       5.128  -5.409  22.708  0.00  0.00    +0.171 C 
ATOM      2  C   UNL     1       6.239  -5.365  23.747  0.00  0.00    +0.230 C 
ATOM      3  O   UNL     1       7.386  -5.034  23.459  0.00  0.00    -0.283 OA
ATOM      4  C   UNL     1       5.814  -5.690  25.102  0.00  0.00    +0.061 A 
ATOM      5  C   UNL     1       6.537  -5.634  26.340  0.00  0.00    +0.022 A 
ATOM      6  C   UNL     1       5.630  -5.970  27.346  0.00  0.00    +0.023 A 
ATOM      7  N   UNL     1       4.424  -6.278  26.744  0.00  0.00    -0.344 N 
ATOM      8  C   UNL     1       3.199  -6.672  27.414  0.00  0.00    +0.149 C 
ATOM      9  C   UNL     1       5.803  -6.007  28.828  0.00  0.00    +0.064 C 
ATOM     10  C   UNL     1       4.531  -6.103  25.389  0.00  0.00    +0.101 A 
ATOM     11  C   UNL     1       3.508  -6.262  24.393  0.00  0.00    +0.207 C 
ATOM     12  O   UNL     1       2.372  -6.678  24.598  0.00  0.00    -0.286 OA
ATOM     13  C   UNL     1       3.892  -5.845  23.023  0.00  0.00    +0.102 C 
ENDROOT
BRANCH   1  15
ATOM     14  C   UNL     1       6.085  -5.920  20.578  0.00  0.00    +0.277 C 
ATOM     15  O   UNL     1       5.492  -4.959  21.447  0.00  0.00    -0.491 OA
ENDBRANCH   1  15
BRANCH   5  16
ATOM     16  C   UNL     1       7.977  -5.204  26.468  0.00  0.00    +0.267 C 
BRANCH  16  17
ATOM     17  O   UNL     1       8.117  -3.892  27.022  0.00  0.00    -0.487 OA
BRANCH  17  18
ATOM     18  C   UNL     1       8.612  -2.926  26.190  0.00  0.00    +0.121 A 
ATOM     19  C   UNL     1       9.246  -3.413  25.043  0.00  0.00    +0.052 A 
ATOM     20  C   UNL     1       9.775  -2.538  24.090  0.00  0.00    +0.088 A 
ATOM     21  C   UNL     1       9.665  -1.157  24.294  0.00  0.00    +0.273 A 
ATOM     22  C   UNL     1       9.048  -0.657  25.446  0.00  0.00    +0.088 A 
ATOM     23  C   UNL     1       8.524  -1.544  26.392  0.00  0.00    +0.052 A 
BRANCH  21  24
ATOM     24  N   UNL     1      10.189  -0.228  23.287  0.00  0.00    +0.080 N 
ATOM     25  O   UNL     1      10.670   0.842  23.683  0.00  0.00    +0.041 OA
ATOM     26  O   UNL     1      10.125  -0.571  22.097  0.00  0.00    -0.576 OA
ENDBRANCH  21  24
ENDBRANCH  17  18
ENDBRANCH  16  17
ENDBRANCH   5  16
TORSDOF 5
ENDMDL
