MODEL 1
REMARK VINA RESULT:      -5.7      0.000      0.000
REMARK  Name = 
REMARK  19 active torsions:
REMARK  status: ('A' for Active; 'I' for Inactive)
REMARK    1  A    between atoms: C_2  and  C_3
REMARK    2  A    between atoms: C_3  and  S_4
REMARK    3  A    between atoms: S_4  and  C_5
REMARK    4  A    between atoms: C_5  and  C_6
REMARK    5  A    between atoms: C_6  and  N_7
REMARK    6  A    between atoms: N_7  and  C_8
REMARK    7  A    between atoms: C_8  and  C_9
REMARK    8  A    between atoms: C_9  and  C_10
REMARK    9  A    between atoms: C_10  and  C_11
REMARK   10  A    between atoms: C_11  and  C_12
REMARK   11  A    between atoms: C_12  and  C_13
REMARK   12  A    between atoms: C_13  and  C_14
REMARK   13  A    between atoms: C_14  and  C_15
REMARK   14  A    between atoms: C_15  and  C_16
REMARK   15  A    between atoms: C_16  and  C_17
REMARK   16  A    between atoms: C_19  and  N_21
REMARK   17  A    between atoms: C_25  and  N_26
REMARK   18  A    between atoms: C_31  and  O_33
REMARK   19  A    between atoms: C_34  and  O_36
REMARK                            x       y       z     vdW  Elec       q    Type
REMARK                         _______ _______ _______ _____ _____    ______ ____
ROOT
ATOM      1  C   UNL     1       2.545  -4.532  24.412  0.00  0.00    +0.162 C 
ATOM      2  C   UNL     1       2.527  -5.941  24.999  0.00  0.00    +0.177 C 
ATOM      3  C   UNL     1       3.865  -6.553  24.597  0.00  0.00    +0.195 C 
ATOM      4  C   UNL     1       4.545  -5.485  23.729  0.00  0.00    +0.253 C 
ATOM      5  O   UNL     1       3.894  -4.236  24.013  0.00  0.00    -0.347 OA
ENDROOT
BRANCH   4   6
ATOM      6  N   UNL     1       5.977  -5.316  23.913  0.00  0.00    -0.286 N 
ATOM      7  C   UNL     1       6.660  -5.227  25.099  0.00  0.00    +0.167 A 
ATOM      8  C   UNL     1       8.003  -5.265  24.741  0.00  0.00    +0.147 A 
ATOM      9  C   UNL     1       8.941  -5.226  25.788  0.00  0.00    +0.147 A 
ATOM     10  N   UNL     1       8.486  -5.085  27.052  0.00  0.00    -0.219 NA
ATOM     11  C   UNL     1       7.151  -5.045  27.253  0.00  0.00    +0.225 A 
ATOM     12  N   UNL     1       8.147  -5.348  23.375  0.00  0.00    -0.231 NA
ATOM     13  N   UNL     1       6.154  -5.138  26.342  0.00  0.00    -0.216 NA
ATOM     14  C   UNL     1       6.916  -5.375  22.911  0.00  0.00    +0.203 A 
BRANCH   9  15
ATOM     15  N   UNL     1      10.310  -5.318  25.581  0.00  0.00    -0.341 N 
ATOM     16  H   UNL     1      10.658  -6.262  25.676  0.00  0.00    +0.144 HD
ATOM     17  H   UNL     1      10.839  -4.566  26.007  0.00  0.00    +0.144 HD
ENDBRANCH   9  15
ENDBRANCH   4   6
BRANCH   3  18
ATOM     18  O   UNL     1       3.645  -7.784  23.892  0.00  0.00    -0.385 OA
ATOM     19  H   UNL     1       4.528  -8.090  23.607  0.00  0.00    +0.210 HD
ENDBRANCH   3  18
BRANCH   2  20
ATOM     20  O   UNL     1       1.412  -6.668  24.478  0.00  0.00    -0.386 OA
ATOM     21  H   UNL     1       1.536  -6.672  23.506  0.00  0.00    +0.210 HD
ENDBRANCH   2  20
BRANCH   1  22
ATOM     22  C   UNL     1       2.012  -3.449  25.356  0.00  0.00    +0.103 C 
BRANCH  22  23
ATOM     23  S   UNL     1       2.951  -3.411  26.922  0.00  0.00    -0.157 S 
BRANCH  23  24
ATOM     24  C   UNL     1       3.430  -1.652  26.938  0.00  0.00    +0.084 C 
BRANCH  24  25
ATOM     25  C   UNL     1       4.965  -1.527  26.960  0.00  0.00    +0.091 C 
BRANCH  25  26
ATOM     26  N   UNL     1       5.656  -2.160  25.825  0.00  0.00    -0.315 NA
ATOM     27  H   UNL     1       5.111  -2.983  25.552  0.00  0.00    +0.122 HD
BRANCH  26  28
ATOM     28  C   UNL     1       5.745  -1.258  24.681  0.00  0.00    +0.081 C 
BRANCH  28  29
ATOM     29  C   UNL     1       6.973  -1.579  23.837  0.00  0.00    +0.015 C 
BRANCH  29  30
ATOM     30  C   UNL     1       8.203  -1.649  24.739  0.00  0.00    +0.001 C 
BRANCH  30  31
ATOM     31  C   UNL     1       9.467  -1.918  23.934  0.00  0.00    +0.000 C 
BRANCH  31  32
ATOM     32  C   UNL     1       9.170  -1.865  22.438  0.00  0.00    +0.000 C 
BRANCH  32  33
ATOM     33  C   UNL     1       9.996  -0.775  21.765  0.00  0.00    -0.000 C 
BRANCH  33  34
ATOM     34  C   UNL     1       9.170   0.490  21.552  0.00  0.00    -0.000 C 
BRANCH  34  35
ATOM     35  C   UNL     1       9.925   1.717  22.058  0.00  0.00    -0.000 C 
BRANCH  35  36
ATOM     36  C   UNL     1      10.441   1.505  23.478  0.00  0.00    -0.003 C 
ATOM     37  C   UNL     1       9.418   1.957  24.506  0.00  0.00    +0.004 C 
ENDBRANCH  35  36
ENDBRANCH  34  35
ENDBRANCH  33  34
ENDBRANCH  32  33
ENDBRANCH  31  32
ENDBRANCH  30  31
ENDBRANCH  29  30
ENDBRANCH  28  29
ENDBRANCH  26  28
ENDBRANCH  25  26
ENDBRANCH  24  25
ENDBRANCH  23  24
ENDBRANCH  22  23
ENDBRANCH   1  22
TORSDOF 18
ENDMDL
MODEL 2
REMARK VINA RESULT:      -5.7      3.605      6.089
REMARK  Name = 
REMARK  19 active torsions:
REMARK  status: ('A' for Active; 'I' for Inactive)
REMARK    1  A    between atoms: C_2  and  C_3
REMARK    2  A    between atoms: C_3  and  S_4
REMARK    3  A    between atoms: S_4  and  C_5
REMARK    4  A    between atoms: C_5  and  C_6
REMARK    5  A    between atoms: C_6  and  N_7
REMARK    6  A    between atoms: N_7  and  C_8
REMARK    7  A    between atoms: C_8  and  C_9
REMARK    8  A    between atoms: C_9  and  C_10
REMARK    9  A    between atoms: C_10  and  C_11
REMARK   10  A    between atoms: C_11  and  C_12
REMARK   11  A    between atoms: C_12  and  C_13
REMARK   12  A    between atoms: C_13  and  C_14
REMARK   13  A    between atoms: C_14  and  C_15
REMARK   14  A    between atoms: C_15  and  C_16
REMARK   15  A    between atoms: C_16  and  C_17
REMARK   16  A    between atoms: C_19  and  N_21
REMARK   17  A    between atoms: C_25  and  N_26
REMARK   18  A    between atoms: C_31  and  O_33
REMARK   19  A    between atoms: C_34  and  O_36
REMARK                            x       y       z     vdW  Elec       q    Type
REMARK                         _______ _______ _______ _____ _____    ______ ____
ROOT
ATOM      1  C   UNL     1       9.835  -1.940  23.633  0.00  0.00    +0.162 C 
ATOM      2  C   UNL     1       8.594  -1.770  22.761  0.00  0.00    +0.177 C 
ATOM      3  C   UNL     1       7.700  -2.955  23.111  0.00  0.00    +0.195 C 
ATOM      4  C   UNL     1       8.518  -3.788  24.109  0.00  0.00    +0.253 C 
ATOM      5  O   UNL     1       9.540  -2.926  24.636  0.00  0.00    -0.347 OA
ENDROOT
BRANCH   4   6
ATOM      6  N   UNL     1       7.785  -4.374  25.218  0.00  0.00    -0.286 N 
ATOM      7  C   UNL     1       6.688  -5.195  25.150  0.00  0.00    +0.167 A 
ATOM      8  C   UNL     1       6.485  -5.629  26.455  0.00  0.00    +0.147 A 
ATOM      9  C   UNL     1       5.426  -6.528  26.670  0.00  0.00    +0.147 A 
ATOM     10  N   UNL     1       4.640  -6.855  25.620  0.00  0.00    -0.219 NA
ATOM     11  C   UNL     1       4.944  -6.344  24.406  0.00  0.00    +0.225 A 
ATOM     12  N   UNL     1       7.410  -5.073  27.308  0.00  0.00    -0.231 NA
ATOM     13  N   UNL     1       5.968  -5.528  24.064  0.00  0.00    -0.216 NA
ATOM     14  C   UNL     1       8.171  -4.327  26.536  0.00  0.00    +0.203 A 
BRANCH   9  15
ATOM     15  N   UNL     1       5.147  -7.089  27.907  0.00  0.00    -0.341 N 
ATOM     16  H   UNL     1       4.164  -7.283  28.038  0.00  0.00    +0.144 HD
ATOM     17  H   UNL     1       5.659  -6.665  28.672  0.00  0.00    +0.144 HD
ENDBRANCH   9  15
ENDBRANCH   4   6
BRANCH   3  18
ATOM     18  O   UNL     1       7.370  -3.685  21.919  0.00  0.00    -0.385 OA
ATOM     19  H   UNL     1       6.715  -3.137  21.444  0.00  0.00    +0.210 HD
ENDBRANCH   3  18
BRANCH   2  20
ATOM     20  O   UNL     1       8.969  -1.753  21.382  0.00  0.00    -0.386 OA
ATOM     21  H   UNL     1       8.538  -0.958  21.005  0.00  0.00    +0.210 HD
ENDBRANCH   2  20
BRANCH   1  22
ATOM     22  C   UNL     1      10.333  -0.644  24.281  0.00  0.00    +0.103 C 
BRANCH  22  23
ATOM     23  S   UNL     1       8.946   0.348  24.934  0.00  0.00    -0.157 S 
BRANCH  23  24
ATOM     24  C   UNL     1       9.373   1.966  24.208  0.00  0.00    +0.084 C 
BRANCH  24  25
ATOM     25  C   UNL     1       9.826   1.782  22.748  0.00  0.00    +0.091 C 
BRANCH  25  26
ATOM     26  N   UNL     1       8.936   2.380  21.741  0.00  0.00    -0.315 NA
ATOM     27  H   UNL     1       8.685   1.644  21.075  0.00  0.00    +0.122 HD
BRANCH  26  28
ATOM     28  C   UNL     1       7.713   2.899  22.346  0.00  0.00    +0.081 C 
BRANCH  28  29
ATOM     29  C   UNL     1       7.656   4.418  22.225  0.00  0.00    +0.015 C 
BRANCH  29  30
ATOM     30  C   UNL     1       6.722   4.977  23.295  0.00  0.00    +0.001 C 
BRANCH  30  31
ATOM     31  C   UNL     1       7.232   6.304  23.839  0.00  0.00    +0.000 C 
BRANCH  31  32
ATOM     32  C   UNL     1       8.676   6.541  23.404  0.00  0.00    +0.000 C 
BRANCH  32  33
ATOM     33  C   UNL     1       9.521   7.013  24.583  0.00  0.00    -0.000 C 
BRANCH  33  34
ATOM     34  C   UNL     1      10.926   6.422  24.525  0.00  0.00    -0.000 C 
BRANCH  34  35
ATOM     35  C   UNL     1      10.974   5.242  23.556  0.00  0.00    -0.000 C 
BRANCH  35  36
ATOM     36  C   UNL     1      12.409   4.796  23.297  0.00  0.00    -0.003 C 
ATOM     37  C   UNL     1      13.073   5.667  22.245  0.00  0.00    +0.004 C 
ENDBRANCH  35  36
ENDBRANCH  34  35
ENDBRANCH  33  34
ENDBRANCH  32  33
ENDBRANCH  31  32
ENDBRANCH  30  31
ENDBRANCH  29  30
ENDBRANCH  28  29
ENDBRANCH  26  28
ENDBRANCH  25  26
ENDBRANCH  24  25
ENDBRANCH  23  24
ENDBRANCH  22  23
ENDBRANCH   1  22
TORSDOF 18
ENDMDL
MODEL 3
REMARK VINA RESULT:      -5.6      2.827      4.630
REMARK  Name = 
REMARK  19 active torsions:
REMARK  status: ('A' for Active; 'I' for Inactive)
REMARK    1  A    between atoms: C_2  and  C_3
REMARK    2  A    between atoms: C_3  and  S_4
REMARK    3  A    between atoms: S_4  and  C_5
REMARK    4  A    between atoms: C_5  and  C_6
REMARK    5  A    between atoms: C_6  and  N_7
REMARK    6  A    between atoms: N_7  and  C_8
REMARK    7  A    between atoms: C_8  and  C_9
REMARK    8  A    between atoms: C_9  and  C_10
REMARK    9  A    between atoms: C_10  and  C_11
REMARK   10  A    between atoms: C_11  and  C_12
REMARK   11  A    between atoms: C_12  and  C_13
REMARK   12  A    between atoms: C_13  and  C_14
REMARK   13  A    between atoms: C_14  and  C_15
REMARK   14  A    between atoms: C_15  and  C_16
REMARK   15  A    between atoms: C_16  and  C_17
REMARK   16  A    between atoms: C_19  and  N_21
REMARK   17  A    between atoms: C_25  and  N_26
REMARK   18  A    between atoms: C_31  and  O_33
REMARK   19  A    between atoms: C_34  and  O_36
REMARK                            x       y       z     vdW  Elec       q    Type
REMARK                         _______ _______ _______ _____ _____    ______ ____
ROOT
ATOM      1  C   UNL     1       7.492  -3.665  22.469  0.00  0.00    +0.162 C 
ATOM      2  C   UNL     1       5.991  -3.811  22.234  0.00  0.00    +0.177 C 
ATOM      3  C   UNL     1       5.521  -4.810  23.287  0.00  0.00    +0.195 C 
ATOM      4  C   UNL     1       6.800  -5.245  24.018  0.00  0.00    +0.253 C 
ATOM      5  O   UNL     1       7.799  -4.249  23.746  0.00  0.00    -0.347 OA
ENDROOT
BRANCH   4   6
ATOM      6  N   UNL     1       6.695  -5.420  25.457  0.00  0.00    -0.286 N 
ATOM      7  C   UNL     1       5.635  -5.933  26.160  0.00  0.00    +0.167 A 
ATOM      8  C   UNL     1       6.099  -6.062  27.463  0.00  0.00    +0.147 A 
ATOM      9  C   UNL     1       5.208  -6.609  28.404  0.00  0.00    +0.147 A 
ATOM     10  N   UNL     1       3.952  -6.905  28.002  0.00  0.00    -0.219 NA
ATOM     11  C   UNL     1       3.632  -6.712  26.704  0.00  0.00    +0.225 A 
ATOM     12  N   UNL     1       7.397  -5.619  27.571  0.00  0.00    -0.231 NA
ATOM     13  N   UNL     1       4.414  -6.257  25.697  0.00  0.00    -0.216 NA
ATOM     14  C   UNL     1       7.722  -5.241  26.354  0.00  0.00    +0.203 A 
BRANCH   9  15
ATOM     15  N   UNL     1       5.557  -6.853  29.724  0.00  0.00    -0.341 N 
ATOM     16  H   UNL     1       4.813  -6.637  30.373  0.00  0.00    +0.144 HD
ATOM     17  H   UNL     1       6.498  -6.561  29.959  0.00  0.00    +0.144 HD
ENDBRANCH   9  15
ENDBRANCH   4   6
BRANCH   3  18
ATOM     18  O   UNL     1       4.846  -5.906  22.652  0.00  0.00    -0.385 OA
ATOM     19  H   UNL     1       5.546  -6.444  22.233  0.00  0.00    +0.210 HD
ENDBRANCH   3  18
BRANCH   2  20
ATOM     20  O   UNL     1       5.752  -4.266  20.900  0.00  0.00    -0.386 OA
ATOM     21  H   UNL     1       6.540  -4.799  20.662  0.00  0.00    +0.210 HD
ENDBRANCH   2  20
BRANCH   1  22
ATOM     22  C   UNL     1       8.004  -2.223  22.399  0.00  0.00    +0.103 C 
BRANCH  22  23
ATOM     23  S   UNL     1       6.910  -1.084  23.316  0.00  0.00    -0.157 S 
BRANCH  23  24
ATOM     24  C   UNL     1       7.805  -1.027  24.904  0.00  0.00    +0.084 C 
BRANCH  24  25
ATOM     25  C   UNL     1       9.308  -0.812  24.650  0.00  0.00    +0.091 C 
BRANCH  25  26
ATOM     26  N   UNL     1       9.864   0.424  25.223  0.00  0.00    -0.315 NA
ATOM     27  H   UNL     1      10.277   0.186  26.130  0.00  0.00    +0.122 HD
BRANCH  26  28
ATOM     28  C   UNL     1      10.906   0.989  24.370  0.00  0.00    +0.081 C 
BRANCH  28  29
ATOM     29  C   UNL     1      10.403   2.243  23.666  0.00  0.00    +0.015 C 
BRANCH  29  30
ATOM     30  C   UNL     1      10.118   1.922  22.200  0.00  0.00    +0.001 C 
BRANCH  30  31
ATOM     31  C   UNL     1       8.628   1.981  21.898  0.00  0.00    +0.000 C 
BRANCH  31  32
ATOM     32  C   UNL     1       7.909   2.862  22.917  0.00  0.00    +0.000 C 
BRANCH  32  33
ATOM     33  C   UNL     1       7.351   4.112  22.246  0.00  0.00    -0.000 C 
BRANCH  33  34
ATOM     34  C   UNL     1       7.273   5.276  23.228  0.00  0.00    -0.000 C 
BRANCH  34  35
ATOM     35  C   UNL     1       8.266   6.372  22.844  0.00  0.00    -0.000 C 
BRANCH  35  36
ATOM     36  C   UNL     1       9.619   6.154  23.514  0.00  0.00    -0.003 C 
ATOM     37  C   UNL     1       9.469   6.017  25.020  0.00  0.00    +0.004 C 
ENDBRANCH  35  36
ENDBRANCH  34  35
ENDBRANCH  33  34
ENDBRANCH  32  33
ENDBRANCH  31  32
ENDBRANCH  30  31
ENDBRANCH  29  30
ENDBRANCH  28  29
ENDBRANCH  26  28
ENDBRANCH  25  26
ENDBRANCH  24  25
ENDBRANCH  23  24
ENDBRANCH  22  23
ENDBRANCH   1  22
TORSDOF 18
ENDMDL
MODEL 4
REMARK VINA RESULT:      -5.4      3.552      5.777
REMARK  Name = 
REMARK  19 active torsions:
REMARK  status: ('A' for Active; 'I' for Inactive)
REMARK    1  A    between atoms: C_2  and  C_3
REMARK    2  A    between atoms: C_3  and  S_4
REMARK    3  A    between atoms: S_4  and  C_5
REMARK    4  A    between atoms: C_5  and  C_6
REMARK    5  A    between atoms: C_6  and  N_7
REMARK    6  A    between atoms: N_7  and  C_8
REMARK    7  A    between atoms: C_8  and  C_9
REMARK    8  A    between atoms: C_9  and  C_10
REMARK    9  A    between atoms: C_10  and  C_11
REMARK   10  A    between atoms: C_11  and  C_12
REMARK   11  A    between atoms: C_12  and  C_13
REMARK   12  A    between atoms: C_13  and  C_14
REMARK   13  A    between atoms: C_14  and  C_15
REMARK   14  A    between atoms: C_15  and  C_16
REMARK   15  A    between atoms: C_16  and  C_17
REMARK   16  A    between atoms: C_19  and  N_21
REMARK   17  A    between atoms: C_25  and  N_26
REMARK   18  A    between atoms: C_31  and  O_33
REMARK   19  A    between atoms: C_34  and  O_36
REMARK                            x       y       z     vdW  Elec       q    Type
REMARK                         _______ _______ _______ _____ _____    ______ ____
ROOT
ATOM      1  C   UNL     1       8.813  -3.315  25.014  0.00  0.00    +0.162 C 
ATOM      2  C   UNL     1       9.264  -4.669  25.555  0.00  0.00    +0.177 C 
ATOM      3  C   UNL     1       8.002  -5.524  25.582  0.00  0.00    +0.195 C 
ATOM      4  C   UNL     1       6.876  -4.583  25.129  0.00  0.00    +0.253 C 
ATOM      5  O   UNL     1       7.498  -3.477  24.455  0.00  0.00    -0.347 OA
ENDROOT
BRANCH   4   6
ATOM      6  N   UNL     1       5.867  -5.155  24.252  0.00  0.00    -0.286 N 
ATOM      7  C   UNL     1       4.900  -6.070  24.580  0.00  0.00    +0.167 A 
ATOM      8  C   UNL     1       4.084  -6.146  23.458  0.00  0.00    +0.147 A 
ATOM      9  C   UNL     1       2.971  -7.001  23.537  0.00  0.00    +0.147 A 
ATOM     10  N   UNL     1       2.806  -7.738  24.658  0.00  0.00    -0.219 NA
ATOM     11  C   UNL     1       3.688  -7.575  25.668  0.00  0.00    +0.225 A 
ATOM     12  N   UNL     1       4.547  -5.324  22.456  0.00  0.00    -0.231 NA
ATOM     13  N   UNL     1       4.753  -6.742  25.737  0.00  0.00    -0.216 NA
ATOM     14  C   UNL     1       5.615  -4.747  22.964  0.00  0.00    +0.203 A 
BRANCH   9  15
ATOM     15  N   UNL     1       2.040  -7.129  22.516  0.00  0.00    -0.341 N 
ATOM     16  H   UNL     1       1.334  -7.824  22.713  0.00  0.00    +0.144 HD
ATOM     17  H   UNL     1       2.445  -7.105  21.588  0.00  0.00    +0.144 HD
ENDBRANCH   9  15
ENDBRANCH   4   6
BRANCH   3  18
ATOM     18  O   UNL     1       7.793  -6.042  26.905  0.00  0.00    -0.385 OA
ATOM     19  H   UNL     1       7.393  -5.312  27.417  0.00  0.00    +0.210 HD
ENDBRANCH   3  18
BRANCH   2  20
ATOM     20  O   UNL     1       9.843  -4.502  26.852  0.00  0.00    -0.386 OA
ATOM     21  H   UNL     1       9.791  -3.541  27.038  0.00  0.00    +0.210 HD
ENDBRANCH   2  20
BRANCH   1  22
ATOM     22  C   UNL     1       9.764  -2.700  23.982  0.00  0.00    +0.103 C 
BRANCH  22  23
ATOM     23  S   UNL     1       9.811  -0.880  24.122  0.00  0.00    -0.157 S 
BRANCH  23  24
ATOM     24  C   UNL     1       8.905  -0.442  22.601  0.00  0.00    +0.084 C 
BRANCH  24  25
ATOM     25  C   UNL     1       9.781   0.457  21.710  0.00  0.00    +0.091 C 
BRANCH  25  26
ATOM     26  N   UNL     1       9.269   1.822  21.509  0.00  0.00    -0.315 NA
ATOM     27  H   UNL     1       9.523   2.110  20.559  0.00  0.00    +0.122 HD
BRANCH  26  28
ATOM     28  C   UNL     1       7.816   1.873  21.639  0.00  0.00    +0.081 C 
BRANCH  28  29
ATOM     29  C   UNL     1       7.394   3.063  22.493  0.00  0.00    +0.015 C 
BRANCH  29  30
ATOM     30  C   UNL     1       7.296   2.628  23.954  0.00  0.00    +0.001 C 
BRANCH  30  31
ATOM     31  C   UNL     1       8.584   2.921  24.709  0.00  0.00    +0.000 C 
BRANCH  31  32
ATOM     32  C   UNL     1       8.783   4.426  24.865  0.00  0.00    +0.000 C 
BRANCH  32  33
ATOM     33  C   UNL     1       9.886   4.922  23.938  0.00  0.00    -0.000 C 
BRANCH  33  34
ATOM     34  C   UNL     1       9.697   6.396  23.594  0.00  0.00    -0.000 C 
BRANCH  34  35
ATOM     35  C   UNL     1       8.221   6.781  23.669  0.00  0.00    -0.000 C 
BRANCH  35  36
ATOM     36  C   UNL     1       7.553   6.685  22.300  0.00  0.00    -0.003 C 
ATOM     37  C   UNL     1       6.048   6.534  22.434  0.00  0.00    +0.004 C 
ENDBRANCH  35  36
ENDBRANCH  34  35
ENDBRANCH  33  34
ENDBRANCH  32  33
ENDBRANCH  31  32
ENDBRANCH  30  31
ENDBRANCH  29  30
ENDBRANCH  28  29
ENDBRANCH  26  28
ENDBRANCH  25  26
ENDBRANCH  24  25
ENDBRANCH  23  24
ENDBRANCH  22  23
ENDBRANCH   1  22
TORSDOF 18
ENDMDL
MODEL 5
REMARK VINA RESULT:      -5.4      3.116      4.825
REMARK  Name = 
REMARK  19 active torsions:
REMARK  status: ('A' for Active; 'I' for Inactive)
REMARK    1  A    between atoms: C_2  and  C_3
REMARK    2  A    between atoms: C_3  and  S_4
REMARK    3  A    between atoms: S_4  and  C_5
REMARK    4  A    between atoms: C_5  and  C_6
REMARK    5  A    between atoms: C_6  and  N_7
REMARK    6  A    between atoms: N_7  and  C_8
REMARK    7  A    between atoms: C_8  and  C_9
REMARK    8  A    between atoms: C_9  and  C_10
REMARK    9  A    between atoms: C_10  and  C_11
REMARK   10  A    between atoms: C_11  and  C_12
REMARK   11  A    between atoms: C_12  and  C_13
REMARK   12  A    between atoms: C_13  and  C_14
REMARK   13  A    between atoms: C_14  and  C_15
REMARK   14  A    between atoms: C_15  and  C_16
REMARK   15  A    between atoms: C_16  and  C_17
REMARK   16  A    between atoms: C_19  and  N_21
REMARK   17  A    between atoms: C_25  and  N_26
REMARK   18  A    between atoms: C_31  and  O_33
REMARK   19  A    between atoms: C_34  and  O_36
REMARK                            x       y       z     vdW  Elec       q    Type
REMARK                         _______ _______ _______ _____ _____    ______ ____
ROOT
ATOM      1  C   UNL     1       8.484  -2.366  25.124  0.00  0.00    +0.162 C 
ATOM      2  C   UNL     1       8.960  -3.283  24.000  0.00  0.00    +0.177 C 
ATOM      3  C   UNL     1       8.491  -4.678  24.402  0.00  0.00    +0.195 C 
ATOM      4  C   UNL     1       7.839  -4.494  25.781  0.00  0.00    +0.253 C 
ATOM      5  O   UNL     1       7.535  -3.096  25.919  0.00  0.00    -0.347 OA
ENDROOT
BRANCH   4   6
ATOM      6  N   UNL     1       6.632  -5.261  26.033  0.00  0.00    -0.286 N 
ATOM      7  C   UNL     1       6.225  -5.808  27.224  0.00  0.00    +0.167 A 
ATOM      8  C   UNL     1       4.936  -6.268  26.985  0.00  0.00    +0.147 A 
ATOM      9  C   UNL     1       4.257  -6.853  28.069  0.00  0.00    +0.147 A 
ATOM     10  N   UNL     1       4.919  -6.992  29.239  0.00  0.00    -0.219 NA
ATOM     11  C   UNL     1       6.179  -6.513  29.325  0.00  0.00    +0.225 A 
ATOM     12  N   UNL     1       4.564  -6.036  25.680  0.00  0.00    -0.231 NA
ATOM     13  N   UNL     1       6.910  -5.877  28.380  0.00  0.00    -0.216 NA
ATOM     14  C   UNL     1       5.602  -5.435  25.139  0.00  0.00    +0.203 A 
BRANCH   9  15
ATOM     15  N   UNL     1       2.946  -7.298  27.990  0.00  0.00    -0.341 N 
ATOM     16  H   UNL     1       2.853  -8.154  27.461  0.00  0.00    +0.144 HD
ATOM     17  H   UNL     1       2.272  -6.559  27.829  0.00  0.00    +0.144 HD
ENDBRANCH   9  15
ENDBRANCH   4   6
BRANCH   3  18
ATOM     18  O   UNL     1       9.609  -5.578  24.432  0.00  0.00    -0.385 OA
ATOM     19  H   UNL     1       9.730  -5.883  23.512  0.00  0.00    +0.210 HD
ENDBRANCH   3  18
BRANCH   2  20
ATOM     20  O   UNL     1      10.382  -3.197  23.875  0.00  0.00    -0.386 OA
ATOM     21  H   UNL     1      10.701  -4.124  23.893  0.00  0.00    +0.210 HD
ENDBRANCH   2  20
BRANCH   1  22
ATOM     22  C   UNL     1       7.880  -1.043  24.644  0.00  0.00    +0.103 C 
BRANCH  22  23
ATOM     23  S   UNL     1       6.072  -1.178  24.423  0.00  0.00    -0.157 S 
BRANCH  23  24
ATOM     24  C   UNL     1       5.531   0.077  25.631  0.00  0.00    +0.084 C 
BRANCH  24  25
ATOM     25  C   UNL     1       5.695   1.485  25.031  0.00  0.00    +0.091 C 
BRANCH  25  26
ATOM     26  N   UNL     1       4.881   1.749  23.834  0.00  0.00    -0.315 NA
ATOM     27  H   UNL     1       3.937   1.992  24.149  0.00  0.00    +0.122 HD
BRANCH  26  28
ATOM     28  C   UNL     1       5.415   2.866  23.058  0.00  0.00    +0.081 C 
BRANCH  28  29
ATOM     29  C   UNL     1       6.932   2.935  23.191  0.00  0.00    +0.015 C 
BRANCH  29  30
ATOM     30  C   UNL     1       7.574   2.624  21.841  0.00  0.00    +0.001 C 
BRANCH  30  31
ATOM     31  C   UNL     1       8.411   1.354  21.904  0.00  0.00    +0.000 C 
BRANCH  31  32
ATOM     32  C   UNL     1       9.896   1.696  21.991  0.00  0.00    +0.000 C 
BRANCH  32  33
ATOM     33  C   UNL     1      10.261   2.151  23.400  0.00  0.00    -0.000 C 
BRANCH  33  34
ATOM     34  C   UNL     1      11.113   3.415  23.368  0.00  0.00    -0.000 C 
BRANCH  34  35
ATOM     35  C   UNL     1      10.308   4.619  23.855  0.00  0.00    -0.000 C 
BRANCH  35  36
ATOM     36  C   UNL     1      11.135   5.899  23.795  0.00  0.00    -0.003 C 
ATOM     37  C   UNL     1      12.553   5.615  23.330  0.00  0.00    +0.004 C 
ENDBRANCH  35  36
ENDBRANCH  34  35
ENDBRANCH  33  34
ENDBRANCH  32  33
ENDBRANCH  31  32
ENDBRANCH  30  31
ENDBRANCH  29  30
ENDBRANCH  28  29
ENDBRANCH  26  28
ENDBRANCH  25  26
ENDBRANCH  24  25
ENDBRANCH  23  24
ENDBRANCH  22  23
ENDBRANCH   1  22
TORSDOF 18
ENDMDL
MODEL 6
REMARK VINA RESULT:      -5.3      3.322      5.325
REMARK  Name = 
REMARK  19 active torsions:
REMARK  status: ('A' for Active; 'I' for Inactive)
REMARK    1  A    between atoms: C_2  and  C_3
REMARK    2  A    between atoms: C_3  and  S_4
REMARK    3  A    between atoms: S_4  and  C_5
REMARK    4  A    between atoms: C_5  and  C_6
REMARK    5  A    between atoms: C_6  and  N_7
REMARK    6  A    between atoms: N_7  and  C_8
REMARK    7  A    between atoms: C_8  and  C_9
REMARK    8  A    between atoms: C_9  and  C_10
REMARK    9  A    between atoms: C_10  and  C_11
REMARK   10  A    between atoms: C_11  and  C_12
REMARK   11  A    between atoms: C_12  and  C_13
REMARK   12  A    between atoms: C_13  and  C_14
REMARK   13  A    between atoms: C_14  and  C_15
REMARK   14  A    between atoms: C_15  and  C_16
REMARK   15  A    between atoms: C_16  and  C_17
REMARK   16  A    between atoms: C_19  and  N_21
REMARK   17  A    between atoms: C_25  and  N_26
REMARK   18  A    between atoms: C_31  and  O_33
REMARK   19  A    between atoms: C_34  and  O_36
REMARK                            x       y       z     vdW  Elec       q    Type
REMARK                         _______ _______ _______ _____ _____    ______ ____
ROOT
ATOM      1  C   UNL     1       7.324  -3.389  22.434  0.00  0.00    +0.162 C 
ATOM      2  C   UNL     1       5.921  -3.925  22.157  0.00  0.00    +0.177 C 
ATOM      3  C   UNL     1       5.701  -5.012  23.204  0.00  0.00    +0.195 C 
ATOM      4  C   UNL     1       7.026  -5.095  23.975  0.00  0.00    +0.253 C 
ATOM      5  O   UNL     1       7.736  -3.871  23.724  0.00  0.00    -0.347 OA
ENDROOT
BRANCH   4   6
ATOM      6  N   UNL     1       6.929  -5.292  25.411  0.00  0.00    -0.286 N 
ATOM      7  C   UNL     1       5.886  -5.846  26.108  0.00  0.00    +0.167 A 
ATOM      8  C   UNL     1       6.355  -5.978  27.410  0.00  0.00    +0.147 A 
ATOM      9  C   UNL     1       5.483  -6.565  28.344  0.00  0.00    +0.147 A 
ATOM     10  N   UNL     1       4.237  -6.895  27.939  0.00  0.00    -0.219 NA
ATOM     11  C   UNL     1       3.909  -6.695  26.644  0.00  0.00    +0.225 A 
ATOM     12  N   UNL     1       7.639  -5.496  27.522  0.00  0.00    -0.231 NA
ATOM     13  N   UNL     1       4.675  -6.203  25.642  0.00  0.00    -0.216 NA
ATOM     14  C   UNL     1       7.951  -5.092  26.309  0.00  0.00    +0.203 A 
BRANCH   9  15
ATOM     15  N   UNL     1       5.841  -6.814  29.661  0.00  0.00    -0.341 N 
ATOM     16  H   UNL     1       5.704  -6.015  30.263  0.00  0.00    +0.144 HD
ATOM     17  H   UNL     1       6.697  -7.348  29.758  0.00  0.00    +0.144 HD
ENDBRANCH   9  15
ENDBRANCH   4   6
BRANCH   3  18
ATOM     18  O   UNL     1       5.357  -6.247  22.558  0.00  0.00    -0.385 OA
ATOM     19  H   UNL     1       4.818  -6.745  23.204  0.00  0.00    +0.210 HD
ENDBRANCH   3  18
BRANCH   2  20
ATOM     20  O   UNL     1       5.851  -4.426  20.821  0.00  0.00    -0.386 OA
ATOM     21  H   UNL     1       6.270  -3.738  20.262  0.00  0.00    +0.210 HD
ENDBRANCH   2  20
BRANCH   1  22
ATOM     22  C   UNL     1       7.440  -1.862  22.368  0.00  0.00    +0.103 C 
BRANCH  22  23
ATOM     23  S   UNL     1       8.683  -1.237  23.550  0.00  0.00    -0.157 S 
BRANCH  23  24
ATOM     24  C   UNL     1       9.894  -0.552  22.372  0.00  0.00    +0.084 C 
BRANCH  24  25
ATOM     25  C   UNL     1       9.194   0.426  21.411  0.00  0.00    +0.091 C 
BRANCH  25  26
ATOM     26  N   UNL     1       9.669   1.817  21.483  0.00  0.00    -0.315 NA
ATOM     27  H   UNL     1       9.261   2.324  20.692  0.00  0.00    +0.122 HD
BRANCH  26  28
ATOM     28  C   UNL     1       9.247   2.464  22.722  0.00  0.00    +0.081 C 
BRANCH  28  29
ATOM     29  C   UNL     1       7.733   2.641  22.747  0.00  0.00    +0.015 C 
BRANCH  29  30
ATOM     30  C   UNL     1       7.390   3.992  23.371  0.00  0.00    +0.001 C 
BRANCH  30  31
ATOM     31  C   UNL     1       7.451   5.110  22.341  0.00  0.00    +0.000 C 
BRANCH  31  32
ATOM     32  C   UNL     1       8.312   6.263  22.852  0.00  0.00    +0.000 C 
BRANCH  32  33
ATOM     33  C   UNL     1       8.472   6.182  24.366  0.00  0.00    -0.000 C 
BRANCH  33  34
ATOM     34  C   UNL     1       9.943   6.235  24.767  0.00  0.00    -0.000 C 
BRANCH  34  35
ATOM     35  C   UNL     1      10.841   6.010  23.553  0.00  0.00    -0.000 C 
BRANCH  35  36
ATOM     36  C   UNL     1      12.271   5.687  23.973  0.00  0.00    -0.003 C 
ATOM     37  C   UNL     1      13.155   5.437  22.763  0.00  0.00    +0.004 C 
ENDBRANCH  35  36
ENDBRANCH  34  35
ENDBRANCH  33  34
ENDBRANCH  32  33
ENDBRANCH  31  32
ENDBRANCH  30  31
ENDBRANCH  29  30
ENDBRANCH  28  29
ENDBRANCH  26  28
ENDBRANCH  25  26
ENDBRANCH  24  25
ENDBRANCH  23  24
ENDBRANCH  22  23
ENDBRANCH   1  22
TORSDOF 18
ENDMDL
MODEL 7
REMARK VINA RESULT:      -5.3      2.712      4.355
REMARK  Name = 
REMARK  19 active torsions:
REMARK  status: ('A' for Active; 'I' for Inactive)
REMARK    1  A    between atoms: C_2  and  C_3
REMARK    2  A    between atoms: C_3  and  S_4
REMARK    3  A    between atoms: S_4  and  C_5
REMARK    4  A    between atoms: C_5  and  C_6
REMARK    5  A    between atoms: C_6  and  N_7
REMARK    6  A    between atoms: N_7  and  C_8
REMARK    7  A    between atoms: C_8  and  C_9
REMARK    8  A    between atoms: C_9  and  C_10
REMARK    9  A    between atoms: C_10  and  C_11
REMARK   10  A    between atoms: C_11  and  C_12
REMARK   11  A    between atoms: C_12  and  C_13
REMARK   12  A    between atoms: C_13  and  C_14
REMARK   13  A    between atoms: C_14  and  C_15
REMARK   14  A    between atoms: C_15  and  C_16
REMARK   15  A    between atoms: C_16  and  C_17
REMARK   16  A    between atoms: C_19  and  N_21
REMARK   17  A    between atoms: C_25  and  N_26
REMARK   18  A    between atoms: C_31  and  O_33
REMARK   19  A    between atoms: C_34  and  O_36
REMARK                            x       y       z     vdW  Elec       q    Type
REMARK                         _______ _______ _______ _____ _____    ______ ____
ROOT
ATOM      1  C   UNL     1       7.523  -3.457  22.535  0.00  0.00    +0.162 C 
ATOM      2  C   UNL     1       6.022  -3.191  22.453  0.00  0.00    +0.177 C 
ATOM      3  C   UNL     1       5.398  -4.136  23.475  0.00  0.00    +0.195 C 
ATOM      4  C   UNL     1       6.574  -4.952  24.031  0.00  0.00    +0.253 C 
ATOM      5  O   UNL     1       7.773  -4.221  23.726  0.00  0.00    -0.347 OA
ENDROOT
BRANCH   4   6
ATOM      6  N   UNL     1       6.551  -5.235  25.456  0.00  0.00    -0.286 N 
ATOM      7  C   UNL     1       5.534  -5.811  26.175  0.00  0.00    +0.167 A 
ATOM      8  C   UNL     1       6.070  -6.032  27.438  0.00  0.00    +0.147 A 
ATOM      9  C   UNL     1       5.237  -6.658  28.382  0.00  0.00    +0.147 A 
ATOM     10  N   UNL     1       3.963  -6.937  28.028  0.00  0.00    -0.219 NA
ATOM     11  C   UNL     1       3.569  -6.650  26.767  0.00  0.00    +0.225 A 
ATOM     12  N   UNL     1       7.369  -5.584  27.507  0.00  0.00    -0.231 NA
ATOM     13  N   UNL     1       4.291  -6.113  25.756  0.00  0.00    -0.216 NA
ATOM     14  C   UNL     1       7.624  -5.112  26.306  0.00  0.00    +0.203 A 
BRANCH   9  15
ATOM     15  N   UNL     1       5.660  -6.996  29.659  0.00  0.00    -0.341 N 
ATOM     16  H   UNL     1       6.134  -6.238  30.129  0.00  0.00    +0.144 HD
ATOM     17  H   UNL     1       6.057  -7.925  29.726  0.00  0.00    +0.144 HD
ENDBRANCH   9  15
ENDBRANCH   4   6
BRANCH   3  18
ATOM     18  O   UNL     1       4.406  -4.956  22.839  0.00  0.00    -0.385 OA
ATOM     19  H   UNL     1       3.773  -5.203  23.541  0.00  0.00    +0.210 HD
ENDBRANCH   3  18
BRANCH   2  20
ATOM     20  O   UNL     1       5.559  -3.437  21.123  0.00  0.00    -0.386 OA
ATOM     21  H   UNL     1       6.024  -2.783  20.561  0.00  0.00    +0.210 HD
ENDBRANCH   2  20
BRANCH   1  22
ATOM     22  C   UNL     1       8.388  -2.192  22.515  0.00  0.00    +0.103 C 
BRANCH  22  23
ATOM     23  S   UNL     1       9.759  -2.305  23.717  0.00  0.00    -0.157 S 
BRANCH  23  24
ATOM     24  C   UNL     1       9.320  -0.904  24.799  0.00  0.00    +0.084 C 
BRANCH  24  25
ATOM     25  C   UNL     1       8.728  -1.428  26.120  0.00  0.00    +0.091 C 
BRANCH  25  26
ATOM     26  N   UNL     1       8.455  -0.396  27.132  0.00  0.00    -0.315 NA
ATOM     27  H   UNL     1       9.131   0.360  26.992  0.00  0.00    +0.122 HD
BRANCH  26  28
ATOM     28  C   UNL     1       7.108   0.150  26.990  0.00  0.00    +0.081 C 
BRANCH  28  29
ATOM     29  C   UNL     1       7.132   1.671  27.088  0.00  0.00    +0.015 C 
BRANCH  29  30
ATOM     30  C   UNL     1       7.538   2.260  25.739  0.00  0.00    +0.001 C 
BRANCH  30  31
ATOM     31  C   UNL     1       6.721   1.660  24.604  0.00  0.00    +0.000 C 
BRANCH  31  32
ATOM     32  C   UNL     1       6.009   2.759  23.818  0.00  0.00    +0.000 C 
BRANCH  32  33
ATOM     33  C   UNL     1       6.372   2.682  22.339  0.00  0.00    -0.000 C 
BRANCH  33  34
ATOM     34  C   UNL     1       7.871   2.866  22.129  0.00  0.00    -0.000 C 
BRANCH  34  35
ATOM     35  C   UNL     1       8.479   1.628  21.473  0.00  0.00    -0.000 C 
BRANCH  35  36
ATOM     36  C   UNL     1       9.907   1.390  21.955  0.00  0.00    -0.003 C 
ATOM     37  C   UNL     1      10.284   2.366  23.057  0.00  0.00    +0.004 C 
ENDBRANCH  35  36
ENDBRANCH  34  35
ENDBRANCH  33  34
ENDBRANCH  32  33
ENDBRANCH  31  32
ENDBRANCH  30  31
ENDBRANCH  29  30
ENDBRANCH  28  29
ENDBRANCH  26  28
ENDBRANCH  25  26
ENDBRANCH  24  25
ENDBRANCH  23  24
ENDBRANCH  22  23
ENDBRANCH   1  22
TORSDOF 18
ENDMDL
MODEL 8
REMARK VINA RESULT:      -5.2      2.727      5.146
REMARK  Name = 
REMARK  19 active torsions:
REMARK  status: ('A' for Active; 'I' for Inactive)
REMARK    1  A    between atoms: C_2  and  C_3
REMARK    2  A    between atoms: C_3  and  S_4
REMARK    3  A    between atoms: S_4  and  C_5
REMARK    4  A    between atoms: C_5  and  C_6
REMARK    5  A    between atoms: C_6  and  N_7
REMARK    6  A    between atoms: N_7  and  C_8
REMARK    7  A    between atoms: C_8  and  C_9
REMARK    8  A    between atoms: C_9  and  C_10
REMARK    9  A    between atoms: C_10  and  C_11
REMARK   10  A    between atoms: C_11  and  C_12
REMARK   11  A    between atoms: C_12  and  C_13
REMARK   12  A    between atoms: C_13  and  C_14
REMARK   13  A    between atoms: C_14  and  C_15
REMARK   14  A    between atoms: C_15  and  C_16
REMARK   15  A    between atoms: C_16  and  C_17
REMARK   16  A    between atoms: C_19  and  N_21
REMARK   17  A    between atoms: C_25  and  N_26
REMARK   18  A    between atoms: C_31  and  O_33
REMARK   19  A    between atoms: C_34  and  O_36
REMARK                            x       y       z     vdW  Elec       q    Type
REMARK                         _______ _______ _______ _____ _____    ______ ____
ROOT
ATOM      1  C   UNL     1       7.560  -3.344  22.291  0.00  0.00    +0.162 C 
ATOM      2  C   UNL     1       6.042  -3.186  22.246  0.00  0.00    +0.177 C 
ATOM      3  C   UNL     1       5.515  -4.146  23.308  0.00  0.00    +0.195 C 
ATOM      4  C   UNL     1       6.760  -4.863  23.848  0.00  0.00    +0.253 C 
ATOM      5  O   UNL     1       7.896  -4.059  23.491  0.00  0.00    -0.347 OA
ENDROOT
BRANCH   4   6
ATOM      6  N   UNL     1       6.795  -5.110  25.280  0.00  0.00    -0.286 N 
ATOM      7  C   UNL     1       5.832  -5.716  26.045  0.00  0.00    +0.167 A 
ATOM      8  C   UNL     1       6.417  -5.879  27.295  0.00  0.00    +0.147 A 
ATOM      9  C   UNL     1       5.646  -6.520  28.280  0.00  0.00    +0.147 A 
ATOM     10  N   UNL     1       4.377  -6.869  27.974  0.00  0.00    -0.219 NA
ATOM     11  C   UNL     1       3.930  -6.635  26.721  0.00  0.00    +0.225 A 
ATOM     12  N   UNL     1       7.694  -5.366  27.311  0.00  0.00    -0.231 NA
ATOM     13  N   UNL     1       4.593  -6.089  25.675  0.00  0.00    -0.216 NA
ATOM     14  C   UNL     1       7.888  -4.913  26.091  0.00  0.00    +0.203 A 
BRANCH   9  15
ATOM     15  N   UNL     1       6.125  -6.804  29.551  0.00  0.00    -0.341 N 
ATOM     16  H   UNL     1       7.134  -6.810  29.598  0.00  0.00    +0.144 HD
ATOM     17  H   UNL     1       5.618  -7.543  30.023  0.00  0.00    +0.144 HD
ENDBRANCH   9  15
ENDBRANCH   4   6
BRANCH   3  18
ATOM     18  O   UNL     1       4.566  -5.048  22.720  0.00  0.00    -0.385 OA
ATOM     19  H   UNL     1       3.694  -4.786  23.073  0.00  0.00    +0.210 HD
ENDBRANCH   3  18
BRANCH   2  20
ATOM     20  O   UNL     1       5.562  -3.497  20.936  0.00  0.00    -0.386 OA
ATOM     21  H   UNL     1       4.691  -3.925  21.074  0.00  0.00    +0.210 HD
ENDBRANCH   2  20
BRANCH   1  22
ATOM     22  C   UNL     1       8.334  -2.023  22.216  0.00  0.00    +0.103 C 
BRANCH  22  23
ATOM     23  S   UNL     1       9.736  -2.006  23.385  0.00  0.00    -0.157 S 
BRANCH  23  24
ATOM     24  C   UNL     1      10.283  -0.280  23.167  0.00  0.00    +0.084 C 
BRANCH  24  25
ATOM     25  C   UNL     1       9.731   0.280  21.843  0.00  0.00    +0.091 C 
BRANCH  25  26
ATOM     26  N   UNL     1       9.825   1.741  21.698  0.00  0.00    -0.315 NA
ATOM     27  H   UNL     1       8.884   2.093  21.499  0.00  0.00    +0.122 HD
BRANCH  26  28
ATOM     28  C   UNL     1      10.309   2.371  22.924  0.00  0.00    +0.081 C 
BRANCH  28  29
ATOM     29  C   UNL     1       9.268   3.336  23.479  0.00  0.00    +0.015 C 
BRANCH  29  30
ATOM     30  C   UNL     1       8.448   2.632  24.557  0.00  0.00    +0.001 C 
BRANCH  30  31
ATOM     31  C   UNL     1       6.960   2.681  24.242  0.00  0.00    +0.000 C 
BRANCH  31  32
ATOM     32  C   UNL     1       6.549   1.472  23.406  0.00  0.00    +0.000 C 
BRANCH  32  33
ATOM     33  C   UNL     1       6.398   0.236  24.286  0.00  0.00    -0.000 C 
BRANCH  33  34
ATOM     34  C   UNL     1       5.535   0.532  25.508  0.00  0.00    -0.000 C 
BRANCH  34  35
ATOM     35  C   UNL     1       6.202   0.004  26.777  0.00  0.00    -0.000 C 
BRANCH  35  36
ATOM     36  C   UNL     1       6.428  -1.502  26.699  0.00  0.00    -0.003 C 
ATOM     37  C   UNL     1       5.129  -2.263  26.901  0.00  0.00    +0.004 C 
ENDBRANCH  35  36
ENDBRANCH  34  35
ENDBRANCH  33  34
ENDBRANCH  32  33
ENDBRANCH  31  32
ENDBRANCH  30  31
ENDBRANCH  29  30
ENDBRANCH  28  29
ENDBRANCH  26  28
ENDBRANCH  25  26
ENDBRANCH  24  25
ENDBRANCH  23  24
ENDBRANCH  22  23
ENDBRANCH   1  22
TORSDOF 18
ENDMDL
MODEL 9
REMARK VINA RESULT:      -5.2      4.724      8.462
REMARK  Name = 
REMARK  19 active torsions:
REMARK  status: ('A' for Active; 'I' for Inactive)
REMARK    1  A    between atoms: C_2  and  C_3
REMARK    2  A    between atoms: C_3  and  S_4
REMARK    3  A    between atoms: S_4  and  C_5
REMARK    4  A    between atoms: C_5  and  C_6
REMARK    5  A    between atoms: C_6  and  N_7
REMARK    6  A    between atoms: N_7  and  C_8
REMARK    7  A    between atoms: C_8  and  C_9
REMARK    8  A    between atoms: C_9  and  C_10
REMARK    9  A    between atoms: C_10  and  C_11
REMARK   10  A    between atoms: C_11  and  C_12
REMARK   11  A    between atoms: C_12  and  C_13
REMARK   12  A    between atoms: C_13  and  C_14
REMARK   13  A    between atoms: C_14  and  C_15
REMARK   14  A    between atoms: C_15  and  C_16
REMARK   15  A    between atoms: C_16  and  C_17
REMARK   16  A    between atoms: C_19  and  N_21
REMARK   17  A    between atoms: C_25  and  N_26
REMARK   18  A    between atoms: C_31  and  O_33
REMARK   19  A    between atoms: C_34  and  O_36
REMARK                            x       y       z     vdW  Elec       q    Type
REMARK                         _______ _______ _______ _____ _____    ______ ____
ROOT
ATOM      1  C   UNL     1       9.833   0.058  25.000  0.00  0.00    +0.162 C 
ATOM      2  C   UNL     1       8.575  -0.136  25.842  0.00  0.00    +0.177 C 
ATOM      3  C   UNL     1       7.848   1.203  25.780  0.00  0.00    +0.195 C 
ATOM      4  C   UNL     1       8.775   2.120  24.968  0.00  0.00    +0.253 C 
ATOM      5  O   UNL     1       9.677   1.269  24.242  0.00  0.00    -0.347 OA
ENDROOT
BRANCH   4   6
ATOM      6  N   UNL     1       8.132   3.025  24.031  0.00  0.00    -0.286 N 
ATOM      7  C   UNL     1       8.279   4.386  23.952  0.00  0.00    +0.167 A 
ATOM      8  C   UNL     1       7.613   4.752  22.788  0.00  0.00    +0.147 A 
ATOM      9  C   UNL     1       7.638   6.114  22.442  0.00  0.00    +0.147 A 
ATOM     10  N   UNL     1       8.241   6.980  23.287  0.00  0.00    -0.219 NA
ATOM     11  C   UNL     1       8.836   6.486  24.395  0.00  0.00    +0.225 A 
ATOM     12  N   UNL     1       7.048   3.655  22.179  0.00  0.00    -0.231 NA
ATOM     13  N   UNL     1       8.935   5.199  24.800  0.00  0.00    -0.216 NA
ATOM     14  C   UNL     1       7.376   2.640  22.949  0.00  0.00    +0.203 A 
BRANCH   9  15
ATOM     15  N   UNL     1       7.069   6.610  21.278  0.00  0.00    -0.341 N 
ATOM     16  H   UNL     1       7.666   7.268  20.798  0.00  0.00    +0.144 HD
ATOM     17  H   UNL     1       6.084   6.832  21.367  0.00  0.00    +0.144 HD
ENDBRANCH   9  15
ENDBRANCH   4   6
BRANCH   3  18
ATOM     18  O   UNL     1       7.611   1.691  27.109  0.00  0.00    -0.385 OA
ATOM     19  H   UNL     1       7.726   0.921  27.700  0.00  0.00    +0.210 HD
ENDBRANCH   3  18
BRANCH   2  20
ATOM     20  O   UNL     1       8.937  -0.503  27.176  0.00  0.00    -0.386 OA
ATOM     21  H   UNL     1       9.035   0.343  27.660  0.00  0.00    +0.210 HD
ENDBRANCH   2  20
BRANCH   1  22
ATOM     22  C   UNL     1      10.159  -1.119  24.074  0.00  0.00    +0.103 C 
BRANCH  22  23
ATOM     23  S   UNL     1       9.730  -0.740  22.340  0.00  0.00    -0.157 S 
BRANCH  23  24
ATOM     24  C   UNL     1       8.296  -1.848  22.140  0.00  0.00    +0.084 C 
BRANCH  24  25
ATOM     25  C   UNL     1       7.048  -1.210  22.778  0.00  0.00    +0.091 C 
BRANCH  25  26
ATOM     26  N   UNL     1       5.941  -2.141  23.044  0.00  0.00    -0.315 NA
ATOM     27  H   UNL     1       5.114  -1.580  23.274  0.00  0.00    +0.122 HD
BRANCH  26  28
ATOM     28  C   UNL     1       5.638  -2.962  21.875  0.00  0.00    +0.081 C 
BRANCH  28  29
ATOM     29  C   UNL     1       5.529  -4.432  22.264  0.00  0.00    +0.015 C 
BRANCH  29  30
ATOM     30  C   UNL     1       6.630  -5.224  21.563  0.00  0.00    +0.001 C 
BRANCH  30  31
ATOM     31  C   UNL     1       7.499  -5.972  22.563  0.00  0.00    +0.000 C 
BRANCH  31  32
ATOM     32  C   UNL     1       7.305  -5.409  23.968  0.00  0.00    +0.000 C 
BRANCH  32  33
ATOM     33  C   UNL     1       8.552  -4.657  24.422  0.00  0.00    -0.000 C 
BRANCH  33  34
ATOM     34  C   UNL     1       8.308  -3.931  25.741  0.00  0.00    -0.000 C 
BRANCH  34  35
ATOM     35  C   UNL     1       7.750  -4.892  26.789  0.00  0.00    -0.000 C 
BRANCH  35  36
ATOM     36  C   UNL     1       6.491  -4.330  27.442  0.00  0.00    -0.003 C 
ATOM     37  C   UNL     1       6.068  -3.027  26.786  0.00  0.00    +0.004 C 
ENDBRANCH  35  36
ENDBRANCH  34  35
ENDBRANCH  33  34
ENDBRANCH  32  33
ENDBRANCH  31  32
ENDBRANCH  30  31
ENDBRANCH  29  30
ENDBRANCH  28  29
ENDBRANCH  26  28
ENDBRANCH  25  26
ENDBRANCH  24  25
ENDBRANCH  23  24
ENDBRANCH  22  23
ENDBRANCH   1  22
TORSDOF 18
ENDMDL
