MODEL 1
REMARK VINA RESULT:      -3.8      0.000      0.000
REMARK  Name = 
REMARK  6 active torsions:
REMARK  status: ('A' for Active; 'I' for Inactive)
REMARK    1  A    between atoms: CG1_1  and  CB_2
REMARK    2  A    between atoms: CB_2  and  CG2_3
REMARK    3  A    between atoms: CB_2  and  CA_4
REMARK    4  A    between atoms: CA_4  and  N_6
REMARK    5  A    between atoms: CA_4  and  C_7
REMARK    6  A    between atoms: C_7  and  O_8
REMARK                            x       y       z     vdW  Elec       q    Type
REMARK                         _______ _______ _______ _____ _____    ______ ____
ROOT
ATOM      1  CA  VAL A   1      10.359  -1.202  22.826  0.00  0.00    +0.163 C 
ENDROOT
BRANCH   1   3
ATOM      2  CG1 VAL A   1       9.978   1.241  22.116  0.00  0.00    +0.009 C 
ATOM      3  CB  VAL A   1       9.999   0.232  23.272  0.00  0.00    +0.010 C 
ATOM      4  CG2 VAL A   1      10.930   0.738  24.378  0.00  0.00    +0.009 C 
ENDBRANCH   1   3
BRANCH   1   5
ATOM      5  N   VAL A   1       9.986  -1.494  21.411  0.00  0.00    -0.318 NA
ATOM      6  H1  VAL A   1      10.467  -2.352  21.126  0.00  0.00    +0.119 HD
ATOM      7  H2  VAL A   1       8.994  -1.756  21.398  0.00  0.00    +0.119 HD
ENDBRANCH   1   5
BRANCH   1   8
ATOM      8  C   VAL A   1       9.654  -2.230  23.730  0.00  0.00    +0.322 C 
ATOM      9  OXT VAL A   1      10.110  -3.312  24.063  0.00  0.00    -0.249 OA
BRANCH   8  10
ATOM     10  O   VAL A   1       8.443  -1.766  24.143  0.00  0.00    -0.480 OA
ATOM     11  H   VAL A   1       8.314  -0.899  23.685  0.00  0.00    +0.295 HD
ENDBRANCH   8  10
ENDBRANCH   1   8
TORSDOF 4
ENDMDL
MODEL 2
REMARK VINA RESULT:      -3.8      1.972      2.417
REMARK  Name = 
REMARK  6 active torsions:
REMARK  status: ('A' for Active; 'I' for Inactive)
REMARK    1  A    between atoms: CG1_1  and  CB_2
REMARK    2  A    between atoms: CB_2  and  CG2_3
REMARK    3  A    between atoms: CB_2  and  CA_4
REMARK    4  A    between atoms: CA_4  and  N_6
REMARK    5  A    between atoms: CA_4  and  C_7
REMARK    6  A    between atoms: C_7  and  O_8
REMARK                            x       y       z     vdW  Elec       q    Type
REMARK                         _______ _______ _______ _____ _____    ______ ____
ROOT
ATOM      1  CA  VAL A   1       9.879   0.770  22.012  0.00  0.00    +0.163 C 
ENDROOT
BRANCH   1   3
ATOM      2  CG1 VAL A   1      10.476   2.845  23.411  0.00  0.00    +0.009 C 
ATOM      3  CB  VAL A   1       9.996   1.387  23.424  0.00  0.00    +0.010 C 
ATOM      4  CG2 VAL A   1      10.903   0.557  24.337  0.00  0.00    +0.009 C 
ENDBRANCH   1   3
BRANCH   1   5
ATOM      5  N   VAL A   1       8.962   1.526  21.110  0.00  0.00    -0.318 NA
ATOM      6  H1  VAL A   1       8.380   2.138  21.687  0.00  0.00    +0.119 HD
ATOM      7  H2  VAL A   1       9.533   2.179  20.562  0.00  0.00    +0.119 HD
ENDBRANCH   1   5
BRANCH   1   8
ATOM      8  C   VAL A   1       9.370  -0.679  22.110  0.00  0.00    +0.322 C 
ATOM      9  OXT VAL A   1       8.300  -1.024  22.585  0.00  0.00    -0.249 OA
BRANCH   8  10
ATOM     10  O   VAL A   1      10.265  -1.548  21.568  0.00  0.00    -0.480 OA
ATOM     11  H   VAL A   1      10.042  -2.437  21.942  0.00  0.00    +0.295 HD
ENDBRANCH   8  10
ENDBRANCH   1   8
TORSDOF 4
ENDMDL
MODEL 3
REMARK VINA RESULT:      -3.6      1.903      2.297
REMARK  Name = 
REMARK  6 active torsions:
REMARK  status: ('A' for Active; 'I' for Inactive)
REMARK    1  A    between atoms: CG1_1  and  CB_2
REMARK    2  A    between atoms: CB_2  and  CG2_3
REMARK    3  A    between atoms: CB_2  and  CA_4
REMARK    4  A    between atoms: CA_4  and  N_6
REMARK    5  A    between atoms: CA_4  and  C_7
REMARK    6  A    between atoms: C_7  and  O_8
REMARK                            x       y       z     vdW  Elec       q    Type
REMARK                         _______ _______ _______ _____ _____    ______ ____
ROOT
ATOM      1  CA  VAL A   1       9.627  -0.307  23.398  0.00  0.00    +0.163 C 
ENDROOT
BRANCH   1   3
ATOM      2  CG1 VAL A   1      10.118   1.857  22.096  0.00  0.00    +0.009 C 
ATOM      3  CB  VAL A   1       9.221   0.619  22.230  0.00  0.00    +0.010 C 
ATOM      4  CG2 VAL A   1       7.756   1.055  22.330  0.00  0.00    +0.009 C 
ENDBRANCH   1   3
BRANCH   1   5
ATOM      5  N   VAL A   1      10.712   0.258  24.253  0.00  0.00    -0.318 NA
ATOM      6  H1  VAL A   1      11.608  -0.085  23.898  0.00  0.00    +0.119 HD
ATOM      7  H2  VAL A   1      10.751   1.269  24.078  0.00  0.00    +0.119 HD
ENDBRANCH   1   5
BRANCH   1   8
ATOM      8  C   VAL A   1      10.105  -1.665  22.854  0.00  0.00    +0.322 C 
ATOM      9  OXT VAL A   1      10.320  -2.662  23.525  0.00  0.00    -0.249 OA
BRANCH   8  10
ATOM     10  O   VAL A   1      10.239  -1.629  21.500  0.00  0.00    -0.480 OA
ATOM     11  H   VAL A   1       9.939  -2.514  21.174  0.00  0.00    +0.295 HD
ENDBRANCH   8  10
ENDBRANCH   1   8
TORSDOF 4
ENDMDL
MODEL 4
REMARK VINA RESULT:      -3.6      3.956      5.079
REMARK  Name = 
REMARK  6 active torsions:
REMARK  status: ('A' for Active; 'I' for Inactive)
REMARK    1  A    between atoms: CG1_1  and  CB_2
REMARK    2  A    between atoms: CB_2  and  CG2_3
REMARK    3  A    between atoms: CB_2  and  CA_4
REMARK    4  A    between atoms: CA_4  and  N_6
REMARK    5  A    between atoms: CA_4  and  C_7
REMARK    6  A    between atoms: C_7  and  O_8
REMARK                            x       y       z     vdW  Elec       q    Type
REMARK                         _______ _______ _______ _____ _____    ______ ____
ROOT
ATOM      1  CA  VAL A   1       8.978  -4.512  25.499  0.00  0.00    +0.163 C 
ENDROOT
BRANCH   1   3
ATOM      2  CG1 VAL A   1       7.783  -5.222  23.334  0.00  0.00    +0.009 C 
ATOM      3  CB  VAL A   1       8.127  -4.070  24.287  0.00  0.00    +0.010 C 
ATOM      4  CG2 VAL A   1       8.796  -2.937  23.502  0.00  0.00    +0.009 C 
ENDBRANCH   1   3
BRANCH   1   5
ATOM      5  N   VAL A   1       9.806  -5.724  25.230  0.00  0.00    -0.318 NA
ATOM      6  H1  VAL A   1      10.792  -5.454  25.287  0.00  0.00    +0.119 HD
ATOM      7  H2  VAL A   1       9.684  -6.366  26.022  0.00  0.00    +0.119 HD
ENDBRANCH   1   5
BRANCH   1   8
ATOM      8  C   VAL A   1       8.067  -4.810  26.703  0.00  0.00    +0.322 C 
ATOM      9  OXT VAL A   1       7.363  -3.996  27.279  0.00  0.00    -0.249 OA
BRANCH   8  10
ATOM     10  O   VAL A   1       8.122  -6.127  27.042  0.00  0.00    -0.480 OA
ATOM     11  H   VAL A   1       8.124  -6.627  26.188  0.00  0.00    +0.295 HD
ENDBRANCH   8  10
ENDBRANCH   1   8
TORSDOF 4
ENDMDL
MODEL 5
REMARK VINA RESULT:      -3.4      4.911      6.054
REMARK  Name = 
REMARK  6 active torsions:
REMARK  status: ('A' for Active; 'I' for Inactive)
REMARK    1  A    between atoms: CG1_1  and  CB_2
REMARK    2  A    between atoms: CB_2  and  CG2_3
REMARK    3  A    between atoms: CB_2  and  CA_4
REMARK    4  A    between atoms: CA_4  and  N_6
REMARK    5  A    between atoms: CA_4  and  C_7
REMARK    6  A    between atoms: C_7  and  O_8
REMARK                            x       y       z     vdW  Elec       q    Type
REMARK                         _______ _______ _______ _____ _____    ______ ____
ROOT
ATOM      1  CA  VAL A   1       8.104  -5.533  25.758  0.00  0.00    +0.163 C 
ENDROOT
BRANCH   1   3
ATOM      2  CG1 VAL A   1       5.553  -5.863  25.704  0.00  0.00    +0.009 C 
ATOM      3  CB  VAL A   1       6.759  -5.104  25.133  0.00  0.00    +0.010 C 
ATOM      4  CG2 VAL A   1       6.771  -5.235  23.607  0.00  0.00    +0.009 C 
ENDBRANCH   1   3
BRANCH   1   5
ATOM      5  N   VAL A   1       8.066  -5.614  27.248  0.00  0.00    -0.318 NA
ATOM      6  H1  VAL A   1       7.844  -6.578  27.509  0.00  0.00    +0.119 HD
ATOM      7  H2  VAL A   1       9.025  -5.483  27.592  0.00  0.00    +0.119 HD
ENDBRANCH   1   5
BRANCH   1   8
ATOM      8  C   VAL A   1       9.212  -4.542  25.360  0.00  0.00    +0.322 C 
ATOM      9  OXT VAL A   1       9.106  -3.326  25.352  0.00  0.00    -0.249 OA
BRANCH   8  10
ATOM     10  O   VAL A   1      10.359  -5.197  25.034  0.00  0.00    -0.480 OA
ATOM     11  H   VAL A   1      11.005  -4.497  24.766  0.00  0.00    +0.295 HD
ENDBRANCH   8  10
ENDBRANCH   1   8
TORSDOF 4
ENDMDL
MODEL 6
REMARK VINA RESULT:      -3.4      4.814      5.587
REMARK  Name = 
REMARK  6 active torsions:
REMARK  status: ('A' for Active; 'I' for Inactive)
REMARK    1  A    between atoms: CG1_1  and  CB_2
REMARK    2  A    between atoms: CB_2  and  CG2_3
REMARK    3  A    between atoms: CB_2  and  CA_4
REMARK    4  A    between atoms: CA_4  and  N_6
REMARK    5  A    between atoms: CA_4  and  C_7
REMARK    6  A    between atoms: C_7  and  O_8
REMARK                            x       y       z     vdW  Elec       q    Type
REMARK                         _______ _______ _______ _____ _____    ______ ____
ROOT
ATOM      1  CA  VAL A   1       7.602  -5.236  26.036  0.00  0.00    +0.163 C 
ENDROOT
BRANCH   1   3
ATOM      2  CG1 VAL A   1       8.252  -2.769  26.375  0.00  0.00    +0.009 C 
ATOM      3  CB  VAL A   1       7.124  -3.768  26.079  0.00  0.00    +0.010 C 
ATOM      4  CG2 VAL A   1       5.984  -3.566  27.082  0.00  0.00    +0.009 C 
ENDBRANCH   1   3
BRANCH   1   5
ATOM      5  N   VAL A   1       8.022  -5.761  27.368  0.00  0.00    -0.318 NA
ATOM      6  H1  VAL A   1       7.254  -5.608  28.027  0.00  0.00    +0.119 HD
ATOM      7  H2  VAL A   1       8.080  -6.783  27.295  0.00  0.00    +0.119 HD
ENDBRANCH   1   5
BRANCH   1   8
ATOM      8  C   VAL A   1       8.790  -5.376  25.068  0.00  0.00    +0.322 C 
ATOM      9  OXT VAL A   1       8.761  -5.144  23.870  0.00  0.00    -0.249 OA
BRANCH   8  10
ATOM     10  O   VAL A   1       9.912  -5.775  25.728  0.00  0.00    -0.480 OA
ATOM     11  H   VAL A   1       9.994  -5.177  26.511  0.00  0.00    +0.295 HD
ENDBRANCH   8  10
ENDBRANCH   1   8
TORSDOF 4
ENDMDL
MODEL 7
REMARK VINA RESULT:      -3.4      2.478      3.432
REMARK  Name = 
REMARK  6 active torsions:
REMARK  status: ('A' for Active; 'I' for Inactive)
REMARK    1  A    between atoms: CG1_1  and  CB_2
REMARK    2  A    between atoms: CB_2  and  CG2_3
REMARK    3  A    between atoms: CB_2  and  CA_4
REMARK    4  A    between atoms: CA_4  and  N_6
REMARK    5  A    between atoms: CA_4  and  C_7
REMARK    6  A    between atoms: C_7  and  O_8
REMARK                            x       y       z     vdW  Elec       q    Type
REMARK                         _______ _______ _______ _____ _____    ______ ____
ROOT
ATOM      1  CA  VAL A   1       9.201  -0.059  22.423  0.00  0.00    +0.163 C 
ENDROOT
BRANCH   1   3
ATOM      2  CG1 VAL A   1       9.940  -2.220  23.606  0.00  0.00    +0.009 C 
ATOM      3  CB  VAL A   1       9.220  -0.870  23.736  0.00  0.00    +0.010 C 
ATOM      4  CG2 VAL A   1       7.810  -1.093  24.291  0.00  0.00    +0.009 C 
ENDBRANCH   1   3
BRANCH   1   5
ATOM      5  N   VAL A   1       9.786  -0.794  21.263  0.00  0.00    -0.318 NA
ATOM      6  H1  VAL A   1       9.038  -1.332  20.818  0.00  0.00    +0.119 HD
ATOM      7  H2  VAL A   1      10.043  -0.100  20.552  0.00  0.00    +0.119 HD
ENDBRANCH   1   5
BRANCH   1   8
ATOM      8  C   VAL A   1       9.984   1.254  22.602  0.00  0.00    +0.322 C 
ATOM      9  OXT VAL A   1      10.595   1.585  23.606  0.00  0.00    -0.249 OA
BRANCH   8  10
ATOM     10  O   VAL A   1       9.933   2.011  21.472  0.00  0.00    -0.480 OA
ATOM     11  H   VAL A   1      10.202   2.923  21.743  0.00  0.00    +0.295 HD
ENDBRANCH   8  10
ENDBRANCH   1   8
TORSDOF 4
ENDMDL
MODEL 8
REMARK VINA RESULT:      -3.3      3.433      4.170
REMARK  Name = 
REMARK  6 active torsions:
REMARK  status: ('A' for Active; 'I' for Inactive)
REMARK    1  A    between atoms: CG1_1  and  CB_2
REMARK    2  A    between atoms: CB_2  and  CG2_3
REMARK    3  A    between atoms: CB_2  and  CA_4
REMARK    4  A    between atoms: CA_4  and  N_6
REMARK    5  A    between atoms: CA_4  and  C_7
REMARK    6  A    between atoms: C_7  and  O_8
REMARK                            x       y       z     vdW  Elec       q    Type
REMARK                         _______ _______ _______ _____ _____    ______ ____
ROOT
ATOM      1  CA  VAL A   1       8.549  -4.627  24.421  0.00  0.00    +0.163 C 
ENDROOT
BRANCH   1   3
ATOM      2  CG1 VAL A   1       7.752  -2.881  22.708  0.00  0.00    +0.009 C 
ATOM      3  CB  VAL A   1       8.528  -3.139  24.007  0.00  0.00    +0.010 C 
ATOM      4  CG2 VAL A   1       9.941  -2.560  23.884  0.00  0.00    +0.009 C 
ENDBRANCH   1   3
BRANCH   1   5
ATOM      5  N   VAL A   1       7.189  -5.233  24.520  0.00  0.00    -0.318 NA
ATOM      6  H1  VAL A   1       6.556  -4.693  23.925  0.00  0.00    +0.119 HD
ATOM      7  H2  VAL A   1       7.225  -6.153  24.065  0.00  0.00    +0.119 HD
ENDBRANCH   1   5
BRANCH   1   8
ATOM      8  C   VAL A   1       9.245  -4.785  25.785  0.00  0.00    +0.322 C 
ATOM      9  OXT VAL A   1       8.864  -4.295  26.836  0.00  0.00    -0.249 OA
BRANCH   8  10
ATOM     10  O   VAL A   1      10.347  -5.576  25.682  0.00  0.00    -0.480 OA
ATOM     11  H   VAL A   1      10.642  -5.754  26.609  0.00  0.00    +0.295 HD
ENDBRANCH   8  10
ENDBRANCH   1   8
TORSDOF 4
ENDMDL
MODEL 9
REMARK VINA RESULT:      -3.3      1.884      2.112
REMARK  Name = 
REMARK  6 active torsions:
REMARK  status: ('A' for Active; 'I' for Inactive)
REMARK    1  A    between atoms: CG1_1  and  CB_2
REMARK    2  A    between atoms: CB_2  and  CG2_3
REMARK    3  A    between atoms: CB_2  and  CA_4
REMARK    4  A    between atoms: CA_4  and  N_6
REMARK    5  A    between atoms: CA_4  and  C_7
REMARK    6  A    between atoms: C_7  and  O_8
REMARK                            x       y       z     vdW  Elec       q    Type
REMARK                         _______ _______ _______ _____ _____    ______ ____
ROOT
ATOM      1  CA  VAL A   1       9.081  -0.384  23.201  0.00  0.00    +0.163 C 
ENDROOT
BRANCH   1   3
ATOM      2  CG1 VAL A   1       8.607   1.368  25.024  0.00  0.00    +0.009 C 
ATOM      3  CB  VAL A   1       9.533   0.244  24.537  0.00  0.00    +0.010 C 
ATOM      4  CG2 VAL A   1      10.973   0.761  24.469  0.00  0.00    +0.009 C 
ENDBRANCH   1   3
BRANCH   1   5
ATOM      5  N   VAL A   1       7.637  -0.762  23.181  0.00  0.00    -0.318 NA
ATOM      6  H1  VAL A   1       7.089   0.066  23.430  0.00  0.00    +0.119 HD
ATOM      7  H2  VAL A   1       7.376  -0.942  22.205  0.00  0.00    +0.119 HD
ENDBRANCH   1   5
BRANCH   1   8
ATOM      8  C   VAL A   1       9.911  -1.646  22.904  0.00  0.00    +0.322 C 
ATOM      9  OXT VAL A   1      10.117  -2.560  23.687  0.00  0.00    -0.249 OA
BRANCH   8  10
ATOM     10  O   VAL A   1      10.377  -1.634  21.626  0.00  0.00    -0.480 OA
ATOM     11  H   VAL A   1      10.484  -2.583  21.367  0.00  0.00    +0.295 HD
ENDBRANCH   8  10
ENDBRANCH   1   8
TORSDOF 4
ENDMDL
