MODEL 1
REMARK VINA RESULT:      -5.6      0.000      0.000
REMARK  Name = 
REMARK  5 active torsions:
REMARK  status: ('A' for Active; 'I' for Inactive)
REMARK    1  A    between atoms: O_1  and  C_2
REMARK    2  A    between atoms: C_2  and  C_4
REMARK    3  A    between atoms: C_5  and  C_6
REMARK    4  A    between atoms: C_7  and  O_8
REMARK    5  A    between atoms: C_10  and  O_11
REMARK                            x       y       z     vdW  Elec       q    Type
REMARK                         _______ _______ _______ _____ _____    ______ ____
ROOT
ATOM      1  C   UNL     1       9.874  -1.306  23.545  0.00  0.00    +0.017 A 
ATOM      2  C   UNL     1       9.695  -1.326  22.155  0.00  0.00    +0.015 A 
ATOM      3  C   UNL     1       9.621  -0.131  21.437  0.00  0.00    +0.046 A 
ATOM      4  C   UNL     1       9.721   1.083  22.107  0.00  0.00    +0.120 A 
ATOM      5  C   UNL     1       9.917   1.126  23.483  0.00  0.00    +0.091 A 
ATOM      6  C   UNL     1       9.997  -0.069  24.195  0.00  0.00    +0.127 A 
ENDROOT
BRANCH   1   8
ATOM      7  C   UNL     1       8.869  -3.461  24.063  0.00  0.00    +0.092 C 
ATOM      8  C   UNL     1       9.855  -2.576  24.274  0.00  0.00    +0.018 C 
BRANCH   7   9
ATOM      9  C   UNL     1       8.863  -4.733  24.809  0.00  0.00    +0.330 C 
ATOM     10  O   UNL     1       7.865  -5.245  25.285  0.00  0.00    -0.246 OA
BRANCH   9  11
ATOM     11  O   UNL     1      10.092  -5.277  24.895  0.00  0.00    -0.478 OA
ATOM     12  H   UNL     1      10.181  -6.181  24.547  0.00  0.00    +0.295 HD
ENDBRANCH   9  11
ENDBRANCH   7   9
ENDBRANCH   1   8
BRANCH   4  13
ATOM     13  O   UNL     1       9.612   2.224  21.369  0.00  0.00    -0.507 OA
ATOM     14  H   UNL     1       8.894   2.109  20.724  0.00  0.00    +0.292 HD
ENDBRANCH   4  13
BRANCH   6  15
ATOM     15  O   UNL     1      10.188   0.040  25.546  0.00  0.00    -0.506 OA
ATOM     16  H   UNL     1      10.199   0.983  25.784  0.00  0.00    +0.292 HD
ENDBRANCH   6  15
TORSDOF 5
ENDMDL
MODEL 2
REMARK VINA RESULT:      -5.6      1.381      2.026
REMARK  Name = 
REMARK  5 active torsions:
REMARK  status: ('A' for Active; 'I' for Inactive)
REMARK    1  A    between atoms: O_1  and  C_2
REMARK    2  A    between atoms: C_2  and  C_4
REMARK    3  A    between atoms: C_5  and  C_6
REMARK    4  A    between atoms: C_7  and  O_8
REMARK    5  A    between atoms: C_10  and  O_11
REMARK                            x       y       z     vdW  Elec       q    Type
REMARK                         _______ _______ _______ _____ _____    ______ ____
ROOT
ATOM      1  C   UNL     1      10.043  -0.953  23.491  0.00  0.00    +0.017 A 
ATOM      2  C   UNL     1      10.354  -0.078  24.541  0.00  0.00    +0.015 A 
ATOM      3  C   UNL     1      10.455   1.295  24.308  0.00  0.00    +0.046 A 
ATOM      4  C   UNL     1      10.250   1.794  23.026  0.00  0.00    +0.120 A 
ATOM      5  C   UNL     1       9.923   0.946  21.974  0.00  0.00    +0.091 A 
ATOM      6  C   UNL     1       9.816  -0.423  22.212  0.00  0.00    +0.127 A 
ENDROOT
BRANCH   1   8
ATOM      7  C   UNL     1       9.049  -2.943  24.477  0.00  0.00    +0.092 C 
ATOM      8  C   UNL     1      10.037  -2.393  23.755  0.00  0.00    +0.018 C 
BRANCH   7   9
ATOM      9  C   UNL     1       9.059  -4.394  24.738  0.00  0.00    +0.330 C 
ATOM     10  O   UNL     1       8.058  -5.076  24.864  0.00  0.00    -0.246 OA
BRANCH   9  11
ATOM     11  O   UNL     1      10.310  -4.887  24.811  0.00  0.00    -0.478 OA
ATOM     12  H   UNL     1      10.527  -5.375  25.625  0.00  0.00    +0.295 HD
ENDBRANCH   9  11
ENDBRANCH   7   9
ENDBRANCH   1   8
BRANCH   4  13
ATOM     13  O   UNL     1      10.389   3.137  22.840  0.00  0.00    -0.507 OA
ATOM     14  H   UNL     1      11.312   3.322  22.597  0.00  0.00    +0.292 HD
ENDBRANCH   4  13
BRANCH   6  15
ATOM     15  O   UNL     1       9.495  -1.204  21.135  0.00  0.00    -0.506 OA
ATOM     16  H   UNL     1      10.076  -0.967  20.393  0.00  0.00    +0.292 HD
ENDBRANCH   6  15
TORSDOF 5
ENDMDL
MODEL 3
REMARK VINA RESULT:      -5.5      2.873      6.685
REMARK  Name = 
REMARK  5 active torsions:
REMARK  status: ('A' for Active; 'I' for Inactive)
REMARK    1  A    between atoms: O_1  and  C_2
REMARK    2  A    between atoms: C_2  and  C_4
REMARK    3  A    between atoms: C_5  and  C_6
REMARK    4  A    between atoms: C_7  and  O_8
REMARK    5  A    between atoms: C_10  and  O_11
REMARK                            x       y       z     vdW  Elec       q    Type
REMARK                         _______ _______ _______ _____ _____    ______ ____
ROOT
ATOM      1  C   UNL     1      10.360   1.930  23.396  0.00  0.00    +0.017 A 
ATOM      2  C   UNL     1      10.842   1.071  24.394  0.00  0.00    +0.015 A 
ATOM      3  C   UNL     1      10.664  -0.310  24.280  0.00  0.00    +0.046 A 
ATOM      4  C   UNL     1      10.002  -0.832  23.175  0.00  0.00    +0.120 A 
ATOM      5  C   UNL     1       9.532   0.001  22.165  0.00  0.00    +0.091 A 
ATOM      6  C   UNL     1       9.717   1.377  22.278  0.00  0.00    +0.127 A 
ENDROOT
BRANCH   1   8
ATOM      7  C   UNL     1      11.671   3.980  23.436  0.00  0.00    +0.092 C 
ATOM      8  C   UNL     1      10.484   3.375  23.595  0.00  0.00    +0.018 C 
BRANCH   7   9
ATOM      9  C   UNL     1      11.779   5.435  23.644  0.00  0.00    +0.330 C 
ATOM     10  O   UNL     1      10.837   6.206  23.610  0.00  0.00    -0.246 OA
BRANCH   9  11
ATOM     11  O   UNL     1      13.047   5.819  23.889  0.00  0.00    -0.478 OA
ATOM     12  H   UNL     1      13.712   5.526  23.242  0.00  0.00    +0.295 HD
ENDBRANCH   9  11
ENDBRANCH   7   9
ENDBRANCH   1   8
BRANCH   4  13
ATOM     13  O   UNL     1       9.825  -2.182  23.122  0.00  0.00    -0.507 OA
ATOM     14  H   UNL     1       9.614  -2.431  22.206  0.00  0.00    +0.292 HD
ENDBRANCH   4  13
BRANCH   6  15
ATOM     15  O   UNL     1       9.230   2.142  21.253  0.00  0.00    -0.506 OA
ATOM     16  H   UNL     1       8.378   2.524  21.527  0.00  0.00    +0.292 HD
ENDBRANCH   6  15
TORSDOF 5
ENDMDL
MODEL 4
REMARK VINA RESULT:      -4.9      2.345      3.410
REMARK  Name = 
REMARK  5 active torsions:
REMARK  status: ('A' for Active; 'I' for Inactive)
REMARK    1  A    between atoms: O_1  and  C_2
REMARK    2  A    between atoms: C_2  and  C_4
REMARK    3  A    between atoms: C_5  and  C_6
REMARK    4  A    between atoms: C_7  and  O_8
REMARK    5  A    between atoms: C_10  and  O_11
REMARK                            x       y       z     vdW  Elec       q    Type
REMARK                         _______ _______ _______ _____ _____    ______ ____
ROOT
ATOM      1  C   UNL     1       8.549  -3.637  23.946  0.00  0.00    +0.017 A 
ATOM      2  C   UNL     1       9.754  -2.957  24.172  0.00  0.00    +0.015 A 
ATOM      3  C   UNL     1      10.173  -1.956  23.294  0.00  0.00    +0.046 A 
ATOM      4  C   UNL     1       9.392  -1.636  22.189  0.00  0.00    +0.120 A 
ATOM      5  C   UNL     1       8.184  -2.285  21.956  0.00  0.00    +0.091 A 
ATOM      6  C   UNL     1       7.766  -3.279  22.838  0.00  0.00    +0.127 A 
ENDROOT
BRANCH   1   8
ATOM      7  C   UNL     1       7.249  -4.572  25.778  0.00  0.00    +0.092 C 
ATOM      8  C   UNL     1       8.189  -4.742  24.836  0.00  0.00    +0.018 C 
BRANCH   7   9
ATOM      9  C   UNL     1       6.901  -5.694  26.669  0.00  0.00    +0.330 C 
ATOM     10  O   UNL     1       5.900  -6.379  26.553  0.00  0.00    -0.246 OA
BRANCH   9  11
ATOM     11  O   UNL     1       7.827  -5.886  27.628  0.00  0.00    -0.478 OA
ATOM     12  H   UNL     1       8.434  -5.142  27.787  0.00  0.00    +0.295 HD
ENDBRANCH   9  11
ENDBRANCH   7   9
ENDBRANCH   1   8
BRANCH   4  13
ATOM     13  O   UNL     1       9.856  -0.673  21.343  0.00  0.00    -0.507 OA
ATOM     14  H   UNL     1      10.482  -1.082  20.721  0.00  0.00    +0.292 HD
ENDBRANCH   4  13
BRANCH   6  15
ATOM     15  O   UNL     1       6.571  -3.882  22.552  0.00  0.00    -0.506 OA
ATOM     16  H   UNL     1       6.494  -3.979  21.588  0.00  0.00    +0.292 HD
ENDBRANCH   6  15
TORSDOF 5
ENDMDL
MODEL 5
REMARK VINA RESULT:      -4.9      1.918      5.770
REMARK  Name = 
REMARK  5 active torsions:
REMARK  status: ('A' for Active; 'I' for Inactive)
REMARK    1  A    between atoms: O_1  and  C_2
REMARK    2  A    between atoms: C_2  and  C_4
REMARK    3  A    between atoms: C_5  and  C_6
REMARK    4  A    between atoms: C_7  and  O_8
REMARK    5  A    between atoms: C_10  and  O_11
REMARK                            x       y       z     vdW  Elec       q    Type
REMARK                         _______ _______ _______ _____ _____    ______ ____
ROOT
ATOM      1  C   UNL     1       9.810  -0.778  24.665  0.00  0.00    +0.017 A 
ATOM      2  C   UNL     1       9.166  -0.517  25.883  0.00  0.00    +0.015 A 
ATOM      3  C   UNL     1       8.467  -1.531  26.541  0.00  0.00    +0.046 A 
ATOM      4  C   UNL     1       8.407  -2.803  25.982  0.00  0.00    +0.120 A 
ATOM      5  C   UNL     1       9.055  -3.088  24.785  0.00  0.00    +0.091 A 
ATOM      6  C   UNL     1       9.757  -2.075  24.134  0.00  0.00    +0.127 A 
ENDROOT
BRANCH   1   8
ATOM      7  C   UNL     1       9.744   1.415  23.612  0.00  0.00    +0.092 C 
ATOM      8  C   UNL     1      10.455   0.332  23.960  0.00  0.00    +0.018 C 
BRANCH   7   9
ATOM      9  C   UNL     1      10.407   2.522  22.899  0.00  0.00    +0.330 C 
ATOM     10  O   UNL     1      10.980   3.448  23.447  0.00  0.00    -0.246 OA
BRANCH   9  11
ATOM     11  O   UNL     1      10.319   2.389  21.562  0.00  0.00    -0.478 OA
ATOM     12  H   UNL     1       9.846   1.600  21.244  0.00  0.00    +0.295 HD
ENDBRANCH   9  11
ENDBRANCH   7   9
ENDBRANCH   1   8
BRANCH   4  13
ATOM     13  O   UNL     1       7.688  -3.753  26.644  0.00  0.00    -0.507 OA
ATOM     14  H   UNL     1       7.446  -4.452  26.014  0.00  0.00    +0.292 HD
ENDBRANCH   4  13
BRANCH   6  15
ATOM     15  O   UNL     1      10.370  -2.418  22.959  0.00  0.00    -0.506 OA
ATOM     16  H   UNL     1      11.297  -2.128  22.995  0.00  0.00    +0.292 HD
ENDBRANCH   6  15
TORSDOF 5
ENDMDL
MODEL 6
REMARK VINA RESULT:      -4.9      2.710      2.966
REMARK  Name = 
REMARK  5 active torsions:
REMARK  status: ('A' for Active; 'I' for Inactive)
REMARK    1  A    between atoms: O_1  and  C_2
REMARK    2  A    between atoms: C_2  and  C_4
REMARK    3  A    between atoms: C_5  and  C_6
REMARK    4  A    between atoms: C_7  and  O_8
REMARK    5  A    between atoms: C_10  and  O_11
REMARK                            x       y       z     vdW  Elec       q    Type
REMARK                         _______ _______ _______ _____ _____    ______ ____
ROOT
ATOM      1  C   UNL     1       7.799  -1.398  22.627  0.00  0.00    +0.017 A 
ATOM      2  C   UNL     1       9.013  -1.489  21.932  0.00  0.00    +0.015 A 
ATOM      3  C   UNL     1       9.691  -0.331  21.545  0.00  0.00    +0.046 A 
ATOM      4  C   UNL     1       9.154   0.916  21.845  0.00  0.00    +0.120 A 
ATOM      5  C   UNL     1       7.961   1.029  22.550  0.00  0.00    +0.091 A 
ATOM      6  C   UNL     1       7.291  -0.129  22.941  0.00  0.00    +0.127 A 
ENDROOT
BRANCH   1   8
ATOM      7  C   UNL     1       6.474  -3.326  21.957  0.00  0.00    +0.092 C 
ATOM      8  C   UNL     1       7.073  -2.631  22.936  0.00  0.00    +0.018 C 
BRANCH   7   9
ATOM      9  C   UNL     1       5.743  -4.564  22.285  0.00  0.00    +0.330 C 
ATOM     10  O   UNL     1       4.536  -4.629  22.438  0.00  0.00    -0.246 OA
BRANCH   9  11
ATOM     11  O   UNL     1       6.565  -5.626  22.387  0.00  0.00    -0.478 OA
ATOM     12  H   UNL     1       7.459  -5.507  22.021  0.00  0.00    +0.295 HD
ENDBRANCH   9  11
ENDBRANCH   7   9
ENDBRANCH   1   8
BRANCH   4  13
ATOM     13  O   UNL     1       9.835   2.018  21.420  0.00  0.00    -0.507 OA
ATOM     14  H   UNL     1       9.463   2.800  21.861  0.00  0.00    +0.292 HD
ENDBRANCH   4  13
BRANCH   6  15
ATOM     15  O   UNL     1       6.120   0.049  23.628  0.00  0.00    -0.506 OA
ATOM     16  H   UNL     1       5.456   0.418  23.022  0.00  0.00    +0.292 HD
ENDBRANCH   6  15
TORSDOF 5
ENDMDL
MODEL 7
REMARK VINA RESULT:      -4.9      2.196      2.678
REMARK  Name = 
REMARK  5 active torsions:
REMARK  status: ('A' for Active; 'I' for Inactive)
REMARK    1  A    between atoms: O_1  and  C_2
REMARK    2  A    between atoms: C_2  and  C_4
REMARK    3  A    between atoms: C_5  and  C_6
REMARK    4  A    between atoms: C_7  and  O_8
REMARK    5  A    between atoms: C_10  and  O_11
REMARK                            x       y       z     vdW  Elec       q    Type
REMARK                         _______ _______ _______ _____ _____    ______ ____
ROOT
ATOM      1  C   UNL     1       9.320  -0.675  22.519  0.00  0.00    +0.017 A 
ATOM      2  C   UNL     1       9.399   0.352  21.568  0.00  0.00    +0.015 A 
ATOM      3  C   UNL     1       9.923   1.598  21.919  0.00  0.00    +0.046 A 
ATOM      4  C   UNL     1      10.364   1.819  23.219  0.00  0.00    +0.120 A 
ATOM      5  C   UNL     1      10.312   0.809  24.173  0.00  0.00    +0.091 A 
ATOM      6  C   UNL     1       9.795  -0.435  23.817  0.00  0.00    +0.127 A 
ENDROOT
BRANCH   1   8
ATOM      7  C   UNL     1       7.404  -2.174  22.473  0.00  0.00    +0.092 C 
ATOM      8  C   UNL     1       8.681  -1.936  22.139  0.00  0.00    +0.018 C 
BRANCH   7   9
ATOM      9  C   UNL     1       6.776  -3.451  22.087  0.00  0.00    +0.330 C 
ATOM     10  O   UNL     1       7.309  -4.540  22.199  0.00  0.00    -0.246 OA
BRANCH   9  11
ATOM     11  O   UNL     1       5.532  -3.278  21.602  0.00  0.00    -0.478 OA
ATOM     12  H   UNL     1       5.245  -3.919  20.928  0.00  0.00    +0.295 HD
ENDBRANCH   9  11
ENDBRANCH   7   9
ENDBRANCH   1   8
BRANCH   4  13
ATOM     13  O   UNL     1      10.840   3.060  23.524  0.00  0.00    -0.507 OA
ATOM     14  H   UNL     1      10.868   3.152  24.491  0.00  0.00    +0.292 HD
ENDBRANCH   4  13
BRANCH   6  15
ATOM     15  O   UNL     1       9.768  -1.386  24.801  0.00  0.00    -0.506 OA
ATOM     16  H   UNL     1       9.211  -1.064  25.530  0.00  0.00    +0.292 HD
ENDBRANCH   6  15
TORSDOF 5
ENDMDL
MODEL 8
REMARK VINA RESULT:      -4.8      2.782      3.666
REMARK  Name = 
REMARK  5 active torsions:
REMARK  status: ('A' for Active; 'I' for Inactive)
REMARK    1  A    between atoms: O_1  and  C_2
REMARK    2  A    between atoms: C_2  and  C_4
REMARK    3  A    between atoms: C_5  and  C_6
REMARK    4  A    between atoms: C_7  and  O_8
REMARK    5  A    between atoms: C_10  and  O_11
REMARK                            x       y       z     vdW  Elec       q    Type
REMARK                         _______ _______ _______ _____ _____    ______ ____
ROOT
ATOM      1  C   UNL     1       8.498  -1.892  23.299  0.00  0.00    +0.017 A 
ATOM      2  C   UNL     1       8.291  -1.520  24.635  0.00  0.00    +0.015 A 
ATOM      3  C   UNL     1       9.165  -0.628  25.260  0.00  0.00    +0.046 A 
ATOM      4  C   UNL     1      10.246  -0.112  24.555  0.00  0.00    +0.120 A 
ATOM      5  C   UNL     1      10.459  -0.453  23.224  0.00  0.00    +0.091 A 
ATOM      6  C   UNL     1       9.581  -1.338  22.601  0.00  0.00    +0.127 A 
ENDROOT
BRANCH   1   8
ATOM      7  C   UNL     1       6.290  -2.694  22.663  0.00  0.00    +0.092 C 
ATOM      8  C   UNL     1       7.615  -2.899  22.706  0.00  0.00    +0.018 C 
BRANCH   7   9
ATOM      9  C   UNL     1       5.415  -3.720  22.066  0.00  0.00    +0.330 C 
ATOM     10  O   UNL     1       4.504  -4.274  22.656  0.00  0.00    -0.246 OA
BRANCH   9  11
ATOM     11  O   UNL     1       5.729  -3.969  20.781  0.00  0.00    -0.478 OA
ATOM     12  H   UNL     1       6.674  -3.906  20.555  0.00  0.00    +0.295 HD
ENDBRANCH   9  11
ENDBRANCH   7   9
ENDBRANCH   1   8
BRANCH   4  13
ATOM     13  O   UNL     1      11.089   0.731  25.216  0.00  0.00    -0.507 OA
ATOM     14  H   UNL     1      11.393   0.291  26.027  0.00  0.00    +0.292 HD
ENDBRANCH   4  13
BRANCH   6  15
ATOM     15  O   UNL     1       9.847  -1.637  21.291  0.00  0.00    -0.506 OA
ATOM     16  H   UNL     1      10.155  -2.557  21.238  0.00  0.00    +0.292 HD
ENDBRANCH   6  15
TORSDOF 5
ENDMDL
MODEL 9
REMARK VINA RESULT:      -4.7      2.858      6.135
REMARK  Name = 
REMARK  5 active torsions:
REMARK  status: ('A' for Active; 'I' for Inactive)
REMARK    1  A    between atoms: O_1  and  C_2
REMARK    2  A    between atoms: C_2  and  C_4
REMARK    3  A    between atoms: C_5  and  C_6
REMARK    4  A    between atoms: C_7  and  O_8
REMARK    5  A    between atoms: C_10  and  O_11
REMARK                            x       y       z     vdW  Elec       q    Type
REMARK                         _______ _______ _______ _____ _____    ______ ____
ROOT
ATOM      1  C   UNL     1       7.344  -4.470  23.703  0.00  0.00    +0.017 A 
ATOM      2  C   UNL     1       7.033  -5.181  22.536  0.00  0.00    +0.015 A 
ATOM      3  C   UNL     1       6.005  -6.126  22.539  0.00  0.00    +0.046 A 
ATOM      4  C   UNL     1       5.291  -6.364  23.708  0.00  0.00    +0.120 A 
ATOM      5  C   UNL     1       5.570  -5.657  24.872  0.00  0.00    +0.091 A 
ATOM      6  C   UNL     1       6.592  -4.710  24.863  0.00  0.00    +0.127 A 
ENDROOT
BRANCH   1   8
ATOM      7  C   UNL     1       8.526  -2.540  22.810  0.00  0.00    +0.092 C 
ATOM      8  C   UNL     1       8.487  -3.556  23.685  0.00  0.00    +0.018 C 
BRANCH   7   9
ATOM      9  C   UNL     1       9.686  -1.630  22.802  0.00  0.00    +0.330 C 
ATOM     10  O   UNL     1      10.062  -0.987  23.765  0.00  0.00    -0.246 OA
BRANCH   9  11
ATOM     11  O   UNL     1      10.297  -1.598  21.602  0.00  0.00    -0.478 OA
ATOM     12  H   UNL     1      11.209  -1.259  21.598  0.00  0.00    +0.295 HD
ENDBRANCH   9  11
ENDBRANCH   7   9
ENDBRANCH   1   8
BRANCH   4  13
ATOM     13  O   UNL     1       4.317  -7.317  23.672  0.00  0.00    -0.507 OA
ATOM     14  H   UNL     1       3.908  -7.309  22.790  0.00  0.00    +0.292 HD
ENDBRANCH   4  13
BRANCH   6  15
ATOM     15  O   UNL     1       6.820  -4.050  26.041  0.00  0.00    -0.506 OA
ATOM     16  H   UNL     1       7.353  -4.620  26.620  0.00  0.00    +0.292 HD
ENDBRANCH   6  15
TORSDOF 5
ENDMDL
