MODEL 1
REMARK VINA RESULT:      -6.3      0.000      0.000
REMARK  Name = 
REMARK  6 active torsions:
REMARK  status: ('A' for Active; 'I' for Inactive)
REMARK    1  A    between atoms: O_1  and  C_2
REMARK    2  A    between atoms: C_2  and  C_4
REMARK    3  A    between atoms: C_4  and  C_5
REMARK    4  A    between atoms: C_9  and  O_10
REMARK    5  A    between atoms: O_10  and  C_11
REMARK    6  A    between atoms: C_14  and  O_15
REMARK                            x       y       z     vdW  Elec       q    Type
REMARK                         _______ _______ _______ _____ _____    ______ ____
ROOT
ATOM      1  C   UNL     1       5.850  -4.384  26.161  0.00  0.00    -0.035 A 
ATOM      2  C   UNL     1       6.582  -3.220  26.418  0.00  0.00    +0.022 A 
ATOM      3  C   UNL     1       7.428  -2.662  25.443  0.00  0.00    +0.057 A 
ATOM      4  I   UNL     1       8.811  -1.256  26.221  0.00  0.00    -0.040 I 
ATOM      5  C   UNL     1       7.444  -3.177  24.135  0.00  0.00    +0.155 A 
ATOM      6  C   UNL     1       6.733  -4.372  23.901  0.00  0.00    +0.057 A 
ATOM      7  I   UNL     1       6.889  -5.418  22.073  0.00  0.00    -0.040 I 
ATOM      8  C   UNL     1       5.958  -4.977  24.901  0.00  0.00    +0.022 A 
ENDROOT
BRANCH   1   9
ATOM      9  C   UNL     1       5.079  -5.056  27.272  0.00  0.00    +0.155 C 
BRANCH   9  10
ATOM     10  C   UNL     1       5.837  -6.191  27.928  0.00  0.00    +0.309 C 
ATOM     11  O   UNL     1       6.934  -6.112  28.458  0.00  0.00    -0.251 OA
BRANCH  10  12
ATOM     12  O   UNL     1       5.161  -7.366  27.894  0.00  0.00    -0.480 OA
ATOM     13  H   UNL     1       4.732  -7.609  28.735  0.00  0.00    +0.295 HD
ENDBRANCH  10  12
ENDBRANCH   9  10
ENDBRANCH   1   9
BRANCH   5  14
ATOM     14  O   UNL     1       8.197  -2.725  23.076  0.00  0.00    -0.454 OA
BRANCH  14  15
ATOM     15  C   UNL     1       8.151  -1.426  22.635  0.00  0.00    +0.130 A 
ATOM     16  C   UNL     1       7.182  -0.477  22.963  0.00  0.00    +0.064 A 
ATOM     17  C   UNL     1       7.389   0.863  22.608  0.00  0.00    +0.058 A 
ATOM     18  I   UNL     1       6.054   2.297  23.348  0.00  0.00    -0.040 I 
ATOM     19  C   UNL     1       8.511   1.228  21.856  0.00  0.00    +0.130 A 
ATOM     20  C   UNL     1       9.399   0.254  21.409  0.00  0.00    +0.050 A 
ATOM     21  C   UNL     1       9.215  -1.070  21.800  0.00  0.00    +0.050 A 
BRANCH  19  22
ATOM     22  O   UNL     1       8.764   2.540  21.569  0.00  0.00    -0.506 OA
ATOM     23  H   UNL     1       7.979   2.927  21.147  0.00  0.00    +0.292 HD
ENDBRANCH  19  22
ENDBRANCH  14  15
ENDBRANCH   5  14
TORSDOF 6
ENDMDL
MODEL 2
REMARK VINA RESULT:      -6.0      2.133      7.151
REMARK  Name = 
REMARK  6 active torsions:
REMARK  status: ('A' for Active; 'I' for Inactive)
REMARK    1  A    between atoms: O_1  and  C_2
REMARK    2  A    between atoms: C_2  and  C_4
REMARK    3  A    between atoms: C_4  and  C_5
REMARK    4  A    between atoms: C_9  and  O_10
REMARK    5  A    between atoms: O_10  and  C_11
REMARK    6  A    between atoms: C_14  and  O_15
REMARK                            x       y       z     vdW  Elec       q    Type
REMARK                         _______ _______ _______ _____ _____    ______ ____
ROOT
ATOM      1  C   UNL     1       8.825  -1.143  22.549  0.00  0.00    -0.035 A 
ATOM      2  C   UNL     1       8.247  -0.563  23.684  0.00  0.00    +0.022 A 
ATOM      3  C   UNL     1       7.192  -1.194  24.366  0.00  0.00    +0.057 A 
ATOM      4  I   UNL     1       6.143   0.092  25.686  0.00  0.00    -0.040 I 
ATOM      5  C   UNL     1       6.793  -2.494  24.013  0.00  0.00    +0.155 A 
ATOM      6  C   UNL     1       7.355  -3.050  22.846  0.00  0.00    +0.057 A 
ATOM      7  I   UNL     1       6.654  -4.868  22.030  0.00  0.00    -0.040 I 
ATOM      8  C   UNL     1       8.347  -2.381  22.114  0.00  0.00    +0.022 A 
ENDROOT
BRANCH   1   9
ATOM      9  C   UNL     1       9.841  -0.374  21.738  0.00  0.00    +0.155 C 
BRANCH   9  10
ATOM     10  C   UNL     1       9.602   1.121  21.739  0.00  0.00    +0.309 C 
ATOM     11  O   UNL     1      10.228   1.950  22.381  0.00  0.00    -0.251 OA
BRANCH  10  12
ATOM     12  O   UNL     1       8.592   1.496  20.915  0.00  0.00    -0.480 OA
ATOM     13  H   UNL     1       7.741   1.055  21.093  0.00  0.00    +0.295 HD
ENDBRANCH  10  12
ENDBRANCH   9  10
ENDBRANCH   1   9
BRANCH   5  14
ATOM     14  O   UNL     1       5.799  -3.243  24.600  0.00  0.00    -0.454 OA
BRANCH  14  15
ATOM     15  C   UNL     1       5.981  -3.923  25.779  0.00  0.00    +0.130 A 
ATOM     16  C   UNL     1       5.002  -4.189  26.736  0.00  0.00    +0.064 A 
ATOM     17  C   UNL     1       5.289  -5.077  27.781  0.00  0.00    +0.058 A 
ATOM     18  I   UNL     1       3.722  -5.662  29.040  0.00  0.00    -0.040 I 
ATOM     19  C   UNL     1       6.573  -5.620  27.912  0.00  0.00    +0.130 A 
ATOM     20  C   UNL     1       7.585  -5.238  27.036  0.00  0.00    +0.050 A 
ATOM     21  C   UNL     1       7.285  -4.390  25.972  0.00  0.00    +0.050 A 
BRANCH  19  22
ATOM     22  O   UNL     1       6.846  -6.545  28.879  0.00  0.00    -0.506 OA
ATOM     23  H   UNL     1       6.942  -7.418  28.463  0.00  0.00    +0.292 HD
ENDBRANCH  19  22
ENDBRANCH  14  15
ENDBRANCH   5  14
TORSDOF 6
ENDMDL
MODEL 3
REMARK VINA RESULT:      -5.9      1.434      2.643
REMARK  Name = 
REMARK  6 active torsions:
REMARK  status: ('A' for Active; 'I' for Inactive)
REMARK    1  A    between atoms: O_1  and  C_2
REMARK    2  A    between atoms: C_2  and  C_4
REMARK    3  A    between atoms: C_4  and  C_5
REMARK    4  A    between atoms: C_9  and  O_10
REMARK    5  A    between atoms: O_10  and  C_11
REMARK    6  A    between atoms: C_14  and  O_15
REMARK                            x       y       z     vdW  Elec       q    Type
REMARK                         _______ _______ _______ _____ _____    ______ ____
ROOT
ATOM      1  C   UNL     1       7.515  -4.218  26.069  0.00  0.00    -0.035 A 
ATOM      2  C   UNL     1       7.411  -4.499  24.702  0.00  0.00    +0.022 A 
ATOM      3  C   UNL     1       6.925  -3.540  23.796  0.00  0.00    +0.057 A 
ATOM      4  I   UNL     1       6.358  -4.351  21.921  0.00  0.00    -0.040 I 
ATOM      5  C   UNL     1       6.672  -2.225  24.221  0.00  0.00    +0.155 A 
ATOM      6  C   UNL     1       6.741  -1.966  25.606  0.00  0.00    +0.057 A 
ATOM      7  I   UNL     1       6.117  -0.122  26.426  0.00  0.00    -0.040 I 
ATOM      8  C   UNL     1       7.144  -2.950  26.520  0.00  0.00    +0.022 A 
ENDROOT
BRANCH   1   9
ATOM      9  C   UNL     1       7.882  -5.313  27.043  0.00  0.00    +0.155 C 
BRANCH   9  10
ATOM     10  C   UNL     1       6.705  -5.816  27.851  0.00  0.00    +0.309 C 
ATOM     11  O   UNL     1       6.472  -5.557  29.021  0.00  0.00    -0.251 OA
BRANCH  10  12
ATOM     12  O   UNL     1       5.872  -6.610  27.134  0.00  0.00    -0.480 OA
ATOM     13  H   UNL     1       4.928  -6.506  27.352  0.00  0.00    +0.295 HD
ENDBRANCH  10  12
ENDBRANCH   9  10
ENDBRANCH   1   9
BRANCH   5  14
ATOM     14  O   UNL     1       6.218  -1.179  23.451  0.00  0.00    -0.454 OA
BRANCH  14  15
ATOM     15  C   UNL     1       7.060  -0.251  22.891  0.00  0.00    +0.130 A 
ATOM     16  C   UNL     1       6.836   1.124  22.809  0.00  0.00    +0.064 A 
ATOM     17  C   UNL     1       7.880   1.965  22.404  0.00  0.00    +0.058 A 
ATOM     18  I   UNL     1       7.596   4.034  22.552  0.00  0.00    -0.040 I 
ATOM     19  C   UNL     1       9.106   1.423  22.000  0.00  0.00    +0.130 A 
ATOM     20  C   UNL     1       9.275   0.042  21.946  0.00  0.00    +0.050 A 
ATOM     21  C   UNL     1       8.250  -0.790  22.392  0.00  0.00    +0.050 A 
BRANCH  19  22
ATOM     22  O   UNL     1      10.157   2.234  21.676  0.00  0.00    -0.506 OA
ATOM     23  H   UNL     1      10.518   2.622  22.490  0.00  0.00    +0.292 HD
ENDBRANCH  19  22
ENDBRANCH  14  15
ENDBRANCH   5  14
TORSDOF 6
ENDMDL
MODEL 4
REMARK VINA RESULT:      -5.9      3.456      4.154
REMARK  Name = 
REMARK  6 active torsions:
REMARK  status: ('A' for Active; 'I' for Inactive)
REMARK    1  A    between atoms: O_1  and  C_2
REMARK    2  A    between atoms: C_2  and  C_4
REMARK    3  A    between atoms: C_4  and  C_5
REMARK    4  A    between atoms: C_9  and  O_10
REMARK    5  A    between atoms: O_10  and  C_11
REMARK    6  A    between atoms: C_14  and  O_15
REMARK                            x       y       z     vdW  Elec       q    Type
REMARK                         _______ _______ _______ _____ _____    ______ ____
ROOT
ATOM      1  C   UNL     1       6.045  -3.201  23.061  0.00  0.00    -0.035 A 
ATOM      2  C   UNL     1       5.464  -2.433  24.076  0.00  0.00    +0.022 A 
ATOM      3  C   UNL     1       6.122  -1.308  24.605  0.00  0.00    +0.057 A 
ATOM      4  I   UNL     1       5.323  -0.647  26.454  0.00  0.00    -0.040 I 
ATOM      5  C   UNL     1       7.312  -0.841  24.021  0.00  0.00    +0.155 A 
ATOM      6  C   UNL     1       7.905  -1.645  23.027  0.00  0.00    +0.057 A 
ATOM      7  I   UNL     1       9.828  -1.225  22.258  0.00  0.00    -0.040 I 
ATOM      8  C   UNL     1       7.290  -2.816  22.560  0.00  0.00    +0.022 A 
ENDROOT
BRANCH   1   9
ATOM      9  C   UNL     1       5.399  -4.495  22.624  0.00  0.00    +0.155 C 
BRANCH   9  10
ATOM     10  C   UNL     1       6.288  -5.340  21.737  0.00  0.00    +0.309 C 
ATOM     11  O   UNL     1       7.197  -6.065  22.109  0.00  0.00    -0.251 OA
BRANCH  10  12
ATOM     12  O   UNL     1       5.972  -5.237  20.422  0.00  0.00    -0.480 OA
ATOM     13  H   UNL     1       6.495  -4.578  19.931  0.00  0.00    +0.295 HD
ENDBRANCH  10  12
ENDBRANCH   9  10
ENDBRANCH   1   9
BRANCH   5  14
ATOM     14  O   UNL     1       8.051   0.252  24.411  0.00  0.00    -0.454 OA
BRANCH  14  15
ATOM     15  C   UNL     1       7.836   1.510  23.907  0.00  0.00    +0.130 A 
ATOM     16  C   UNL     1       8.454   2.686  24.335  0.00  0.00    +0.064 A 
ATOM     17  C   UNL     1       8.293   3.857  23.582  0.00  0.00    +0.058 A 
ATOM     18  I   UNL     1       9.444   5.529  24.096  0.00  0.00    -0.040 I 
ATOM     19  C   UNL     1       7.451   3.866  22.464  0.00  0.00    +0.130 A 
ATOM     20  C   UNL     1       6.725   2.727  22.127  0.00  0.00    +0.050 A 
ATOM     21  C   UNL     1       6.921   1.553  22.850  0.00  0.00    +0.050 A 
BRANCH  19  22
ATOM     22  O   UNL     1       7.344   4.978  21.677  0.00  0.00    -0.506 OA
ATOM     23  H   UNL     1       8.196   5.446  21.675  0.00  0.00    +0.292 HD
ENDBRANCH  19  22
ENDBRANCH  14  15
ENDBRANCH   5  14
TORSDOF 6
ENDMDL
MODEL 5
REMARK VINA RESULT:      -5.8      2.494      2.847
REMARK  Name = 
REMARK  6 active torsions:
REMARK  status: ('A' for Active; 'I' for Inactive)
REMARK    1  A    between atoms: O_1  and  C_2
REMARK    2  A    between atoms: C_2  and  C_4
REMARK    3  A    between atoms: C_4  and  C_5
REMARK    4  A    between atoms: C_9  and  O_10
REMARK    5  A    between atoms: O_10  and  C_11
REMARK    6  A    between atoms: C_14  and  O_15
REMARK                            x       y       z     vdW  Elec       q    Type
REMARK                         _______ _______ _______ _____ _____    ______ ____
ROOT
ATOM      1  C   UNL     1       5.090  -4.274  24.955  0.00  0.00    -0.035 A 
ATOM      2  C   UNL     1       4.814  -2.913  25.133  0.00  0.00    +0.022 A 
ATOM      3  C   UNL     1       5.850  -1.976  25.295  0.00  0.00    +0.057 A 
ATOM      4  I   UNL     1       5.199  -0.115  26.075  0.00  0.00    -0.040 I 
ATOM      5  C   UNL     1       7.191  -2.363  25.131  0.00  0.00    +0.155 A 
ATOM      6  C   UNL     1       7.456  -3.740  24.992  0.00  0.00    +0.057 A 
ATOM      7  I   UNL     1       9.426  -4.502  25.020  0.00  0.00    -0.040 I 
ATOM      8  C   UNL     1       6.423  -4.686  24.918  0.00  0.00    +0.022 A 
ENDROOT
BRANCH   1   9
ATOM      9  C   UNL     1       3.965  -5.282  24.949  0.00  0.00    +0.155 C 
BRANCH   9  10
ATOM     10  C   UNL     1       3.964  -6.172  23.725  0.00  0.00    +0.309 C 
ATOM     11  O   UNL     1       3.768  -5.815  22.574  0.00  0.00    -0.251 OA
BRANCH  10  12
ATOM     12  O   UNL     1       4.229  -7.470  24.016  0.00  0.00    -0.480 OA
ATOM     13  H   UNL     1       4.923  -7.600  24.688  0.00  0.00    +0.295 HD
ENDBRANCH  10  12
ENDBRANCH   9  10
ENDBRANCH   1   9
BRANCH   5  14
ATOM     14  O   UNL     1       8.303  -1.559  25.236  0.00  0.00    -0.454 OA
BRANCH  14  15
ATOM     15  C   UNL     1       8.593  -0.573  24.326  0.00  0.00    +0.130 A 
ATOM     16  C   UNL     1       8.459   0.801  24.527  0.00  0.00    +0.064 A 
ATOM     17  C   UNL     1       8.998   1.687  23.585  0.00  0.00    +0.058 A 
ATOM     18  I   UNL     1       9.019   3.729  24.048  0.00  0.00    -0.040 I 
ATOM     19  C   UNL     1       9.585   1.198  22.412  0.00  0.00    +0.130 A 
ATOM     20  C   UNL     1       9.587  -0.169  22.150  0.00  0.00    +0.050 A 
ATOM     21  C   UNL     1       9.090  -1.050  23.109  0.00  0.00    +0.050 A 
BRANCH  19  22
ATOM     22  O   UNL     1      10.182   2.046  21.522  0.00  0.00    -0.506 OA
ATOM     23  H   UNL     1      10.069   1.691  20.625  0.00  0.00    +0.292 HD
ENDBRANCH  19  22
ENDBRANCH  14  15
ENDBRANCH   5  14
TORSDOF 6
ENDMDL
MODEL 6
REMARK VINA RESULT:      -5.8      2.230      7.361
REMARK  Name = 
REMARK  6 active torsions:
REMARK  status: ('A' for Active; 'I' for Inactive)
REMARK    1  A    between atoms: O_1  and  C_2
REMARK    2  A    between atoms: C_2  and  C_4
REMARK    3  A    between atoms: C_4  and  C_5
REMARK    4  A    between atoms: C_9  and  O_10
REMARK    5  A    between atoms: O_10  and  C_11
REMARK    6  A    between atoms: C_14  and  O_15
REMARK                            x       y       z     vdW  Elec       q    Type
REMARK                         _______ _______ _______ _____ _____    ______ ____
ROOT
ATOM      1  C   UNL     1       9.569  -0.763  23.989  0.00  0.00    -0.035 A 
ATOM      2  C   UNL     1       9.602  -2.160  24.068  0.00  0.00    +0.022 A 
ATOM      3  C   UNL     1       8.864  -2.851  25.046  0.00  0.00    +0.057 A 
ATOM      4  I   UNL     1       9.481  -4.862  25.313  0.00  0.00    -0.040 I 
ATOM      5  C   UNL     1       7.958  -2.163  25.872  0.00  0.00    +0.155 A 
ATOM      6  C   UNL     1       7.965  -0.755  25.809  0.00  0.00    +0.057 A 
ATOM      7  I   UNL     1       6.873   0.425  27.179  0.00  0.00    -0.040 I 
ATOM      8  C   UNL     1       8.768  -0.061  24.891  0.00  0.00    +0.022 A 
ENDROOT
BRANCH   1   9
ATOM      9  C   UNL     1      10.494  -0.035  23.042  0.00  0.00    +0.155 C 
BRANCH   9  10
ATOM     10  C   UNL     1       9.778   0.578  21.858  0.00  0.00    +0.309 C 
ATOM     11  O   UNL     1       9.021  -0.001  21.094  0.00  0.00    -0.251 OA
BRANCH  10  12
ATOM     12  O   UNL     1      10.041   1.900  21.709  0.00  0.00    -0.480 OA
ATOM     13  H   UNL     1       9.254   2.474  21.734  0.00  0.00    +0.295 HD
ENDBRANCH  10  12
ENDBRANCH   9  10
ENDBRANCH   1   9
BRANCH   5  14
ATOM     14  O   UNL     1       7.157  -2.703  26.850  0.00  0.00    -0.454 OA
BRANCH  14  15
ATOM     15  C   UNL     1       6.303  -3.752  26.615  0.00  0.00    +0.130 A 
ATOM     16  C   UNL     1       5.487  -3.916  25.495  0.00  0.00    +0.064 A 
ATOM     17  C   UNL     1       4.835  -5.140  25.296  0.00  0.00    +0.058 A 
ATOM     18  I   UNL     1       3.841  -5.446  23.478  0.00  0.00    -0.040 I 
ATOM     19  C   UNL     1       4.931  -6.154  26.256  0.00  0.00    +0.130 A 
ATOM     20  C   UNL     1       5.630  -5.932  27.439  0.00  0.00    +0.050 A 
ATOM     21  C   UNL     1       6.313  -4.731  27.614  0.00  0.00    +0.050 A 
BRANCH  19  22
ATOM     22  O   UNL     1       4.364  -7.378  26.039  0.00  0.00    -0.506 OA
ATOM     23  H   UNL     1       5.021  -8.068  26.231  0.00  0.00    +0.292 HD
ENDBRANCH  19  22
ENDBRANCH  14  15
ENDBRANCH   5  14
TORSDOF 6
ENDMDL
MODEL 7
REMARK VINA RESULT:      -5.8      4.376      9.077
REMARK  Name = 
REMARK  6 active torsions:
REMARK  status: ('A' for Active; 'I' for Inactive)
REMARK    1  A    between atoms: O_1  and  C_2
REMARK    2  A    between atoms: C_2  and  C_4
REMARK    3  A    between atoms: C_4  and  C_5
REMARK    4  A    between atoms: C_9  and  O_10
REMARK    5  A    between atoms: O_10  and  C_11
REMARK    6  A    between atoms: C_14  and  O_15
REMARK                            x       y       z     vdW  Elec       q    Type
REMARK                         _______ _______ _______ _____ _____    ______ ____
ROOT
ATOM      1  C   UNL     1      10.905   4.851  23.648  0.00  0.00    -0.035 A 
ATOM      2  C   UNL     1      11.059   3.462  23.586  0.00  0.00    +0.022 A 
ATOM      3  C   UNL     1       9.948   2.602  23.651  0.00  0.00    +0.057 A 
ATOM      4  I   UNL     1      10.454   0.589  24.079  0.00  0.00    -0.040 I 
ATOM      5  C   UNL     1       8.643   3.124  23.629  0.00  0.00    +0.155 A 
ATOM      6  C   UNL     1       8.503   4.523  23.732  0.00  0.00    +0.057 A 
ATOM      7  I   UNL     1       6.616   5.435  23.996  0.00  0.00    -0.040 I 
ATOM      8  C   UNL     1       9.615   5.376  23.754  0.00  0.00    +0.022 A 
ENDROOT
BRANCH   1   9
ATOM      9  C   UNL     1      12.118   5.746  23.742  0.00  0.00    +0.155 C 
BRANCH   9  10
ATOM     10  C   UNL     1      13.187   5.416  22.722  0.00  0.00    +0.309 C 
ATOM     11  O   UNL     1      13.104   5.574  21.514  0.00  0.00    -0.251 OA
BRANCH  10  12
ATOM     12  O   UNL     1      14.316   4.916  23.283  0.00  0.00    -0.480 OA
ATOM     13  H   UNL     1      15.112   4.992  22.725  0.00  0.00    +0.295 HD
ENDBRANCH  10  12
ENDBRANCH   9  10
ENDBRANCH   1   9
BRANCH   5  14
ATOM     14  O   UNL     1       7.466   2.412  23.665  0.00  0.00    -0.454 OA
BRANCH  14  15
ATOM     15  C   UNL     1       7.075   1.681  24.758  0.00  0.00    +0.130 A 
ATOM     16  C   UNL     1       7.267   2.030  26.096  0.00  0.00    +0.064 A 
ATOM     17  C   UNL     1       6.623   1.289  27.096  0.00  0.00    +0.058 A 
ATOM     18  I   UNL     1       6.713   2.000  29.063  0.00  0.00    -0.040 I 
ATOM     19  C   UNL     1       5.868   0.160  26.761  0.00  0.00    +0.130 A 
ATOM     20  C   UNL     1       5.798  -0.266  25.438  0.00  0.00    +0.050 A 
ATOM     21  C   UNL     1       6.403   0.496  24.441  0.00  0.00    +0.050 A 
BRANCH  19  22
ATOM     22  O   UNL     1       5.172  -0.526  27.717  0.00  0.00    -0.506 OA
ATOM     23  H   UNL     1       4.270  -0.687  27.395  0.00  0.00    +0.292 HD
ENDBRANCH  19  22
ENDBRANCH  14  15
ENDBRANCH   5  14
TORSDOF 6
ENDMDL
MODEL 8
REMARK VINA RESULT:      -5.7      3.218      4.120
REMARK  Name = 
REMARK  6 active torsions:
REMARK  status: ('A' for Active; 'I' for Inactive)
REMARK    1  A    between atoms: O_1  and  C_2
REMARK    2  A    between atoms: C_2  and  C_4
REMARK    3  A    between atoms: C_4  and  C_5
REMARK    4  A    between atoms: C_9  and  O_10
REMARK    5  A    between atoms: O_10  and  C_11
REMARK    6  A    between atoms: C_14  and  O_15
REMARK                            x       y       z     vdW  Elec       q    Type
REMARK                         _______ _______ _______ _____ _____    ______ ____
ROOT
ATOM      1  C   UNL     1       8.330  -2.871  24.817  0.00  0.00    -0.035 A 
ATOM      2  C   UNL     1       9.351  -1.944  24.577  0.00  0.00    +0.022 A 
ATOM      3  C   UNL     1       9.180  -0.581  24.874  0.00  0.00    +0.057 A 
ATOM      4  I   UNL     1      10.610   0.678  23.945  0.00  0.00    -0.040 I 
ATOM      5  C   UNL     1       8.034  -0.140  25.559  0.00  0.00    +0.155 A 
ATOM      6  C   UNL     1       6.999  -1.076  25.758  0.00  0.00    +0.057 A 
ATOM      7  I   UNL     1       5.111  -0.501  26.513  0.00  0.00    -0.040 I 
ATOM      8  C   UNL     1       7.136  -2.420  25.382  0.00  0.00    +0.022 A 
ENDROOT
BRANCH   1   9
ATOM      9  C   UNL     1       8.473  -4.298  24.340  0.00  0.00    +0.155 C 
BRANCH   9  10
ATOM     10  C   UNL     1       8.896  -5.256  25.432  0.00  0.00    +0.309 C 
ATOM     11  O   UNL     1       8.176  -5.718  26.303  0.00  0.00    -0.251 OA
BRANCH  10  12
ATOM     12  O   UNL     1      10.207  -5.596  25.359  0.00  0.00    -0.480 OA
ATOM     13  H   UNL     1      10.382  -6.431  24.889  0.00  0.00    +0.295 HD
ENDBRANCH  10  12
ENDBRANCH   9  10
ENDBRANCH   1   9
BRANCH   5  14
ATOM     14  O   UNL     1       7.740   1.150  25.935  0.00  0.00    -0.454 OA
BRANCH  14  15
ATOM     15  C   UNL     1       7.608   2.174  25.031  0.00  0.00    +0.130 A 
ATOM     16  C   UNL     1       8.246   3.414  25.089  0.00  0.00    +0.064 A 
ATOM     17  C   UNL     1       8.178   4.272  23.983  0.00  0.00    +0.058 A 
ATOM     18  I   UNL     1       9.365   5.997  23.997  0.00  0.00    -0.040 I 
ATOM     19  C   UNL     1       7.405   3.925  22.869  0.00  0.00    +0.130 A 
ATOM     20  C   UNL     1       6.655   2.753  22.877  0.00  0.00    +0.050 A 
ATOM     21  C   UNL     1       6.759   1.882  23.959  0.00  0.00    +0.050 A 
BRANCH  19  22
ATOM     22  O   UNL     1       7.391   4.715  21.755  0.00  0.00    -0.506 OA
ATOM     23  H   UNL     1       6.699   4.397  21.151  0.00  0.00    +0.292 HD
ENDBRANCH  19  22
ENDBRANCH  14  15
ENDBRANCH   5  14
TORSDOF 6
ENDMDL
MODEL 9
REMARK VINA RESULT:      -5.7      2.290      3.267
REMARK  Name = 
REMARK  6 active torsions:
REMARK  status: ('A' for Active; 'I' for Inactive)
REMARK    1  A    between atoms: O_1  and  C_2
REMARK    2  A    between atoms: C_2  and  C_4
REMARK    3  A    between atoms: C_4  and  C_5
REMARK    4  A    between atoms: C_9  and  O_10
REMARK    5  A    between atoms: O_10  and  C_11
REMARK    6  A    between atoms: C_14  and  O_15
REMARK                            x       y       z     vdW  Elec       q    Type
REMARK                         _______ _______ _______ _____ _____    ______ ____
ROOT
ATOM      1  C   UNL     1       4.993  -5.491  26.296  0.00  0.00    -0.035 A 
ATOM      2  C   UNL     1       5.763  -5.457  25.128  0.00  0.00    +0.022 A 
ATOM      3  C   UNL     1       6.050  -4.243  24.480  0.00  0.00    +0.057 A 
ATOM      4  I   UNL     1       6.747  -4.483  22.493  0.00  0.00    -0.040 I 
ATOM      5  C   UNL     1       5.695  -3.019  25.073  0.00  0.00    +0.155 A 
ATOM      6  C   UNL     1       4.885  -3.069  26.227  0.00  0.00    +0.057 A 
ATOM      7  I   UNL     1       4.038  -1.326  27.067  0.00  0.00    -0.040 I 
ATOM      8  C   UNL     1       4.527  -4.286  26.824  0.00  0.00    +0.022 A 
ENDROOT
BRANCH   1   9
ATOM      9  C   UNL     1       4.560  -6.815  26.881  0.00  0.00    +0.155 C 
BRANCH   9  10
ATOM     10  C   UNL     1       5.120  -7.071  28.264  0.00  0.00    +0.309 C 
ATOM     11  O   UNL     1       6.272  -6.881  28.621  0.00  0.00    -0.251 OA
BRANCH  10  12
ATOM     12  O   UNL     1       4.189  -7.538  29.132  0.00  0.00    -0.480 OA
ATOM     13  H   UNL     1       4.505  -7.637  30.049  0.00  0.00    +0.295 HD
ENDBRANCH  10  12
ENDBRANCH   9  10
ENDBRANCH   1   9
BRANCH   5  14
ATOM     14  O   UNL     1       5.927  -1.759  24.573  0.00  0.00    -0.454 OA
BRANCH  14  15
ATOM     15  C   UNL     1       7.177  -1.192  24.542  0.00  0.00    +0.130 A 
ATOM     16  C   UNL     1       7.748  -0.513  23.465  0.00  0.00    +0.064 A 
ATOM     17  C   UNL     1       8.943   0.194  23.657  0.00  0.00    +0.058 A 
ATOM     18  I   UNL     1       9.626   1.419  22.103  0.00  0.00    -0.040 I 
ATOM     19  C   UNL     1       9.601   0.145  24.892  0.00  0.00    +0.130 A 
ATOM     20  C   UNL     1       9.100  -0.652  25.918  0.00  0.00    +0.050 A 
ATOM     21  C   UNL     1       7.890  -1.318  25.739  0.00  0.00    +0.050 A 
BRANCH  19  22
ATOM     22  O   UNL     1      10.724   0.889  25.116  0.00  0.00    -0.506 OA
ATOM     23  H   UNL     1      11.064   0.687  26.004  0.00  0.00    +0.292 HD
ENDBRANCH  19  22
ENDBRANCH  14  15
ENDBRANCH   5  14
TORSDOF 6
ENDMDL
