MODEL 1
REMARK VINA RESULT:      -7.2      0.000      0.000
REMARK  Name = 
REMARK  13 active torsions:
REMARK  status: ('A' for Active; 'I' for Inactive)
REMARK    1  A    between atoms: C_4  and  C_6
REMARK    2  A    between atoms: C_6  and  O_8
REMARK    3  A    between atoms: O_8  and  O_9
REMARK    4  A    between atoms: O_9  and  C_10
REMARK    5  A    between atoms: C_11  and  C_12
REMARK    6  A    between atoms: C_18  and  C_19
REMARK    7  A    between atoms: C_19  and  S_20
REMARK    8  A    between atoms: S_20  and  C_21
REMARK    9  A    between atoms: C_21  and  C_22
REMARK   10  A    between atoms: C_37  and  C_38
REMARK   11  A    between atoms: C_38  and  S_39
REMARK   12  A    between atoms: S_39  and  C_40
REMARK   13  A    between atoms: C_40  and  C_41
REMARK                            x       y       z     vdW  Elec       q    Type
REMARK                         _______ _______ _______ _____ _____    ______ ____
ROOT
ATOM      1  C   UNL     1       6.938  -0.273  27.465  0.00  0.00    +0.223 C 
ATOM      2  N   UNL     1       7.587  -0.632  26.189  0.00  0.00    -0.311 N 
ATOM      3  C   UNL     1       7.093  -0.118  24.996  0.00  0.00    +0.077 A 
ATOM      4  C   UNL     1       7.200   1.221  24.806  0.00  0.00    +0.077 A 
ATOM      5  C   UNL     1       8.007   1.564  23.759  0.00  0.00    +0.015 A 
ATOM      6  C   UNL     1       8.610   0.706  22.815  0.00  0.00    -0.008 A 
ATOM      7  C   UNL     1       8.091  -0.615  22.824  0.00  0.00    +0.052 A 
ATOM      8  C   UNL     1       8.916  -1.428  21.971  0.00  0.00    +0.245 C 
ATOM      9  O   UNL     1       8.929  -2.617  21.696  0.00  0.00    -0.270 OA
ATOM     10  N   UNL     1       9.872  -0.528  21.493  0.00  0.00    -0.307 N 
ATOM     11  H   UNL     1      10.601  -0.880  20.883  0.00  0.00    +0.149 HD
ATOM     12  C   UNL     1       9.759   0.852  21.938  0.00  0.00    +0.141 C 
ATOM     13  C   UNL     1       8.383   2.854  24.169  0.00  0.00    +0.008 A 
ATOM     14  C   UNL     1       9.316   3.800  23.699  0.00  0.00    +0.015 A 
ATOM     15  C   UNL     1       9.455   5.049  24.320  0.00  0.00    -0.037 A 
ATOM     16  C   UNL     1       8.693   5.347  25.453  0.00  0.00    +0.006 A 
ATOM     17  C   UNL     1       7.755   4.445  25.970  0.00  0.00    +0.027 A 
ATOM     18  C   UNL     1       7.601   3.183  25.365  0.00  0.00    +0.053 A 
ATOM     19  N   UNL     1       6.824   2.072  25.754  0.00  0.00    -0.308 N 
ATOM     20  C   UNL     1       5.920   1.765  26.877  0.00  0.00    +0.160 C 
ATOM     21  C   UNL     1       4.479   2.141  26.537  0.00  0.00    +0.067 C 
ATOM     22  C   UNL     1       6.667   2.151  28.144  0.00  0.00    +0.158 C 
ATOM     23  C   UNL     1       7.050  -0.861  23.800  0.00  0.00    +0.022 A 
ATOM     24  C   UNL     1       7.052  -2.117  24.434  0.00  0.00    +0.009 A 
ATOM     25  C   UNL     1       6.216  -3.242  24.504  0.00  0.00    +0.015 A 
ATOM     26  C   UNL     1       6.813  -4.347  25.113  0.00  0.00    -0.037 A 
ATOM     27  C   UNL     1       8.176  -4.242  25.428  0.00  0.00    +0.006 A 
ATOM     28  C   UNL     1       8.710  -2.992  25.796  0.00  0.00    +0.027 A 
ATOM     29  C   UNL     1       7.800  -1.945  25.670  0.00  0.00    +0.052 A 
ATOM     30  O   UNL     1       5.701   0.312  27.064  0.00  0.00    -0.330 OA
ATOM     31  C   UNL     1       7.348   0.805  28.528  0.00  0.00    +0.074 C 
ENDROOT
BRANCH  22  32
ATOM     32  C   UNL     1       5.735   3.011  28.988  0.00  0.00    +0.351 C 
ATOM     33  O   UNL     1       4.831   2.511  29.665  0.00  0.00    -0.247 OA
BRANCH  32  34
ATOM     34  O   UNL     1       5.907   4.355  28.864  0.00  0.00    -0.297 OA
BRANCH  34  35
ATOM     35  O   UNL     1       7.258   4.644  29.386  0.00  0.00    -0.187 OA
ATOM     36  C   UNL     1       7.156   5.551  30.482  0.00  0.00    +0.253 C 
ENDBRANCH  34  35
ENDBRANCH  32  34
ENDBRANCH  22  32
BRANCH  15  37
ATOM     37  C   UNL     1      10.341   6.090  23.683  0.00  0.00    +0.104 C 
BRANCH  37  38
ATOM     38  S   UNL     1      12.038   6.064  24.369  0.00  0.00    -0.156 S 
BRANCH  38  39
ATOM     39  C   UNL     1      12.835   4.950  23.163  0.00  0.00    +0.066 C 
ATOM     40  C   UNL     1      13.376   5.747  21.991  0.00  0.00    +0.015 C 
ENDBRANCH  38  39
ENDBRANCH  37  38
ENDBRANCH  15  37
BRANCH  26  41
ATOM     41  C   UNL     1       6.017  -5.499  25.669  0.00  0.00    +0.104 C 
BRANCH  41  42
ATOM     42  S   UNL     1       6.023  -5.734  27.452  0.00  0.00    -0.156 S 
BRANCH  42  43
ATOM     43  C   UNL     1       5.313  -4.144  27.950  0.00  0.00    +0.066 C 
ATOM     44  C   UNL     1       3.895  -4.060  27.420  0.00  0.00    +0.015 C 
ENDBRANCH  42  43
ENDBRANCH  41  42
ENDBRANCH  26  41
TORSDOF 9
ENDMDL
MODEL 2
REMARK VINA RESULT:      -7.1      1.192      1.977
REMARK  Name = 
REMARK  13 active torsions:
REMARK  status: ('A' for Active; 'I' for Inactive)
REMARK    1  A    between atoms: C_4  and  C_6
REMARK    2  A    between atoms: C_6  and  O_8
REMARK    3  A    between atoms: O_8  and  O_9
REMARK    4  A    between atoms: O_9  and  C_10
REMARK    5  A    between atoms: C_11  and  C_12
REMARK    6  A    between atoms: C_18  and  C_19
REMARK    7  A    between atoms: C_19  and  S_20
REMARK    8  A    between atoms: S_20  and  C_21
REMARK    9  A    between atoms: C_21  and  C_22
REMARK   10  A    between atoms: C_37  and  C_38
REMARK   11  A    between atoms: C_38  and  S_39
REMARK   12  A    between atoms: S_39  and  C_40
REMARK   13  A    between atoms: C_40  and  C_41
REMARK                            x       y       z     vdW  Elec       q    Type
REMARK                         _______ _______ _______ _____ _____    ______ ____
ROOT
ATOM      1  C   UNL     1       6.692  -0.128  27.226  0.00  0.00    +0.223 C 
ATOM      2  N   UNL     1       7.422  -0.421  25.978  0.00  0.00    -0.311 N 
ATOM      3  C   UNL     1       7.013   0.165  24.787  0.00  0.00    +0.077 A 
ATOM      4  C   UNL     1       7.140   1.512  24.681  0.00  0.00    +0.077 A 
ATOM      5  C   UNL     1       8.017   1.905  23.710  0.00  0.00    +0.015 A 
ATOM      6  C   UNL     1       8.676   1.096  22.761  0.00  0.00    -0.008 A 
ATOM      7  C   UNL     1       8.149  -0.218  22.660  0.00  0.00    +0.052 A 
ATOM      8  C   UNL     1       9.024  -0.990  21.818  0.00  0.00    +0.245 C 
ATOM      9  O   UNL     1       9.048  -2.161  21.477  0.00  0.00    -0.270 OA
ATOM     10  N   UNL     1      10.016  -0.074  21.457  0.00  0.00    -0.307 N 
ATOM     11  H   UNL     1      10.782  -0.398  20.877  0.00  0.00    +0.149 HD
ATOM     12  C   UNL     1       9.881   1.280  21.971  0.00  0.00    +0.141 C 
ATOM     13  C   UNL     1       8.373   3.165  24.217  0.00  0.00    +0.008 A 
ATOM     14  C   UNL     1       9.341   4.128  23.865  0.00  0.00    +0.015 A 
ATOM     15  C   UNL     1       9.446   5.338  24.564  0.00  0.00    -0.037 A 
ATOM     16  C   UNL     1       8.612   5.579  25.660  0.00  0.00    +0.006 A 
ATOM     17  C   UNL     1       7.636   4.659  26.061  0.00  0.00    +0.027 A 
ATOM     18  C   UNL     1       7.515   3.435  25.377  0.00  0.00    +0.053 A 
ATOM     19  N   UNL     1       6.707   2.311  25.649  0.00  0.00    -0.308 N 
ATOM     20  C   UNL     1       5.728   1.950  26.691  0.00  0.00    +0.160 C 
ATOM     21  C   UNL     1       4.315   2.359  26.278  0.00  0.00    +0.067 C 
ATOM     22  C   UNL     1       6.392   2.256  28.024  0.00  0.00    +0.158 C 
ATOM     23  C   UNL     1       7.044  -0.509  23.550  0.00  0.00    +0.022 A 
ATOM     24  C   UNL     1       6.997  -1.798  24.109  0.00  0.00    +0.009 A 
ATOM     25  C   UNL     1       6.151  -2.917  24.060  0.00  0.00    +0.015 A 
ATOM     26  C   UNL     1       6.699  -4.061  24.642  0.00  0.00    -0.037 A 
ATOM     27  C   UNL     1       8.038  -3.987  25.052  0.00  0.00    +0.006 A 
ATOM     28  C   UNL     1       8.555  -2.766  25.526  0.00  0.00    +0.027 A 
ATOM     29  C   UNL     1       7.662  -1.705  25.400  0.00  0.00    +0.052 A 
ATOM     30  O   UNL     1       5.488   0.490  26.779  0.00  0.00    -0.330 OA
ATOM     31  C   UNL     1       7.038   0.883  28.375  0.00  0.00    +0.074 C 
ENDROOT
BRANCH  22  32
ATOM     32  C   UNL     1       5.411   3.076  28.852  0.00  0.00    +0.351 C 
ATOM     33  O   UNL     1       5.273   4.290  28.675  0.00  0.00    -0.247 OA
BRANCH  32  34
ATOM     34  O   UNL     1       4.781   2.400  29.851  0.00  0.00    -0.297 OA
BRANCH  34  35
ATOM     35  O   UNL     1       3.335   2.508  29.571  0.00  0.00    -0.187 OA
ATOM     36  C   UNL     1       2.779   1.200  29.453  0.00  0.00    +0.253 C 
ENDBRANCH  34  35
ENDBRANCH  32  34
ENDBRANCH  22  32
BRANCH  15  37
ATOM     37  C   UNL     1      10.378   6.404  24.048  0.00  0.00    +0.104 C 
BRANCH  37  38
ATOM     38  S   UNL     1      12.123   6.065  24.486  0.00  0.00    -0.156 S 
BRANCH  38  39
ATOM     39  C   UNL     1      12.580   4.977  23.094  0.00  0.00    +0.066 C 
ATOM     40  C   UNL     1      13.408   5.742  22.080  0.00  0.00    +0.015 C 
ENDBRANCH  38  39
ENDBRANCH  37  38
ENDBRANCH  15  37
BRANCH  26  41
ATOM     41  C   UNL     1       5.860  -5.234  25.078  0.00  0.00    +0.104 C 
BRANCH  41  42
ATOM     42  S   UNL     1       5.023  -6.182  23.799  0.00  0.00    -0.156 S 
BRANCH  42  43
ATOM     43  C   UNL     1       6.396  -6.356  22.631  0.00  0.00    +0.066 C 
ATOM     44  C   UNL     1       6.025  -5.652  21.341  0.00  0.00    +0.015 C 
ENDBRANCH  42  43
ENDBRANCH  41  42
ENDBRANCH  26  41
TORSDOF 9
ENDMDL
MODEL 3
REMARK VINA RESULT:      -6.5      1.773      7.363
REMARK  Name = 
REMARK  13 active torsions:
REMARK  status: ('A' for Active; 'I' for Inactive)
REMARK    1  A    between atoms: C_4  and  C_6
REMARK    2  A    between atoms: C_6  and  O_8
REMARK    3  A    between atoms: O_8  and  O_9
REMARK    4  A    between atoms: O_9  and  C_10
REMARK    5  A    between atoms: C_11  and  C_12
REMARK    6  A    between atoms: C_18  and  C_19
REMARK    7  A    between atoms: C_19  and  S_20
REMARK    8  A    between atoms: S_20  and  C_21
REMARK    9  A    between atoms: C_21  and  C_22
REMARK   10  A    between atoms: C_37  and  C_38
REMARK   11  A    between atoms: C_38  and  S_39
REMARK   12  A    between atoms: S_39  and  C_40
REMARK   13  A    between atoms: C_40  and  C_41
REMARK                            x       y       z     vdW  Elec       q    Type
REMARK                         _______ _______ _______ _____ _____    ______ ____
ROOT
ATOM      1  C   UNL     1       6.411   2.088  25.741  0.00  0.00    +0.223 C 
ATOM      2  N   UNL     1       7.097   0.961  25.080  0.00  0.00    -0.311 N 
ATOM      3  C   UNL     1       7.767   0.017  25.848  0.00  0.00    +0.077 A 
ATOM      4  C   UNL     1       7.016  -0.768  26.662  0.00  0.00    +0.077 A 
ATOM      5  C   UNL     1       7.056  -2.093  26.335  0.00  0.00    +0.015 A 
ATOM      6  C   UNL     1       7.863  -2.720  25.363  0.00  0.00    -0.008 A 
ATOM      7  C   UNL     1       8.919  -1.905  24.879  0.00  0.00    +0.052 A 
ATOM      8  C   UNL     1       9.534  -2.578  23.766  0.00  0.00    +0.245 C 
ATOM      9  O   UNL     1      10.421  -2.277  22.985  0.00  0.00    -0.270 OA
ATOM     10  N   UNL     1       8.807  -3.768  23.666  0.00  0.00    -0.307 N 
ATOM     11  H   UNL     1       9.037  -4.411  22.918  0.00  0.00    +0.149 HD
ATOM     12  C   UNL     1       7.747  -3.976  24.641  0.00  0.00    +0.141 C 
ATOM     13  C   UNL     1       5.830  -2.504  26.884  0.00  0.00    +0.008 A 
ATOM     14  C   UNL     1       5.081  -3.697  26.833  0.00  0.00    +0.015 A 
ATOM     15  C   UNL     1       3.868  -3.820  27.523  0.00  0.00    -0.037 A 
ATOM     16  C   UNL     1       3.363  -2.729  28.235  0.00  0.00    +0.006 A 
ATOM     17  C   UNL     1       4.058  -1.516  28.318  0.00  0.00    +0.027 A 
ATOM     18  C   UNL     1       5.277  -1.367  27.629  0.00  0.00    +0.053 A 
ATOM     19  N   UNL     1       6.098  -0.233  27.458  0.00  0.00    -0.308 N 
ATOM     20  C   UNL     1       6.038   1.178  27.878  0.00  0.00    +0.160 C 
ATOM     21  C   UNL     1       6.734   1.378  29.223  0.00  0.00    +0.067 C 
ATOM     22  C   UNL     1       4.648   1.674  27.511  0.00  0.00    +0.158 C 
ATOM     23  C   UNL     1       8.981  -0.575  25.448  0.00  0.00    +0.022 A 
ATOM     24  C   UNL     1       9.352   0.472  24.587  0.00  0.00    +0.009 A 
ATOM     25  C   UNL     1      10.409   1.388  24.467  0.00  0.00    +0.015 A 
ATOM     26  C   UNL     1      10.410   2.090  23.260  0.00  0.00    -0.037 A 
ATOM     27  C   UNL     1       9.474   1.693  22.293  0.00  0.00    +0.006 A 
ATOM     28  C   UNL     1       8.220   1.198  22.699  0.00  0.00    +0.027 A 
ATOM     29  C   UNL     1       8.112   1.038  24.079  0.00  0.00    +0.052 A 
ATOM     30  O   UNL     1       6.917   2.059  27.074  0.00  0.00    -0.330 OA
ATOM     31  C   UNL     1       4.892   2.268  26.093  0.00  0.00    +0.074 C 
ENDROOT
BRANCH  22  32
ATOM     32  C   UNL     1       4.065   2.367  28.736  0.00  0.00    +0.351 C 
ATOM     33  O   UNL     1       3.622   1.723  29.692  0.00  0.00    -0.247 OA
BRANCH  32  34
ATOM     34  O   UNL     1       3.980   3.722  28.656  0.00  0.00    -0.297 OA
BRANCH  34  35
ATOM     35  O   UNL     1       4.912   4.251  29.672  0.00  0.00    -0.187 OA
ATOM     36  C   UNL     1       5.941   4.997  29.024  0.00  0.00    +0.253 C 
ENDBRANCH  34  35
ENDBRANCH  32  34
ENDBRANCH  22  32
BRANCH  15  37
ATOM     37  C   UNL     1       3.189  -5.165  27.578  0.00  0.00    +0.104 C 
BRANCH  37  38
ATOM     38  S   UNL     1       4.363  -6.542  27.299  0.00  0.00    -0.156 S 
BRANCH  38  39
ATOM     39  C   UNL     1       3.716  -7.176  25.715  0.00  0.00    +0.066 C 
ATOM     40  C   UNL     1       4.635  -6.777  24.575  0.00  0.00    +0.015 C 
ENDBRANCH  38  39
ENDBRANCH  37  38
ENDBRANCH  15  37
BRANCH  26  41
ATOM     41  C   UNL     1      11.161   3.381  23.069  0.00  0.00    +0.104 C 
BRANCH  41  42
ATOM     42  S   UNL     1      10.480   4.863  23.825  0.00  0.00    -0.156 S 
BRANCH  42  43
ATOM     43  C   UNL     1      11.993   5.853  23.923  0.00  0.00    +0.066 C 
ATOM     44  C   UNL     1      13.060   5.190  23.074  0.00  0.00    +0.015 C 
ENDBRANCH  42  43
ENDBRANCH  41  42
ENDBRANCH  26  41
TORSDOF 9
ENDMDL
MODEL 4
REMARK VINA RESULT:      -6.4      1.982      7.030
REMARK  Name = 
REMARK  13 active torsions:
REMARK  status: ('A' for Active; 'I' for Inactive)
REMARK    1  A    between atoms: C_4  and  C_6
REMARK    2  A    between atoms: C_6  and  O_8
REMARK    3  A    between atoms: O_8  and  O_9
REMARK    4  A    between atoms: O_9  and  C_10
REMARK    5  A    between atoms: C_11  and  C_12
REMARK    6  A    between atoms: C_18  and  C_19
REMARK    7  A    between atoms: C_19  and  S_20
REMARK    8  A    between atoms: S_20  and  C_21
REMARK    9  A    between atoms: C_21  and  C_22
REMARK   10  A    between atoms: C_37  and  C_38
REMARK   11  A    between atoms: C_38  and  S_39
REMARK   12  A    between atoms: S_39  and  C_40
REMARK   13  A    between atoms: C_40  and  C_41
REMARK                            x       y       z     vdW  Elec       q    Type
REMARK                         _______ _______ _______ _____ _____    ______ ____
ROOT
ATOM      1  C   UNL     1       5.559   2.433  25.999  0.00  0.00    +0.223 C 
ATOM      2  N   UNL     1       6.466   2.034  24.906  0.00  0.00    -0.311 N 
ATOM      3  C   UNL     1       7.630   1.333  25.197  0.00  0.00    +0.077 A 
ATOM      4  C   UNL     1       7.493   0.079  25.695  0.00  0.00    +0.077 A 
ATOM      5  C   UNL     1       7.994  -0.894  24.878  0.00  0.00    +0.015 A 
ATOM      6  C   UNL     1       8.725  -0.728  23.684  0.00  0.00    -0.008 A 
ATOM      7  C   UNL     1       9.199   0.595  23.478  0.00  0.00    +0.052 A 
ATOM      8  C   UNL     1       9.746   0.676  22.150  0.00  0.00    +0.245 C 
ATOM      9  O   UNL     1      10.211   1.587  21.485  0.00  0.00    -0.270 OA
ATOM     10  N   UNL     1       9.574  -0.618  21.651  0.00  0.00    -0.307 N 
ATOM     11  H   UNL     1       9.860  -0.807  20.697  0.00  0.00    +0.149 HD
ATOM     12  C   UNL     1       8.967  -1.594  22.543  0.00  0.00    +0.141 C 
ATOM     13  C   UNL     1       7.221  -1.983  25.313  0.00  0.00    +0.008 A 
ATOM     14  C   UNL     1       7.044  -3.305  24.858  0.00  0.00    +0.015 A 
ATOM     15  C   UNL     1       6.197  -4.195  25.532  0.00  0.00    -0.037 A 
ATOM     16  C   UNL     1       5.476  -3.755  26.646  0.00  0.00    +0.006 A 
ATOM     17  C   UNL     1       5.606  -2.452  27.141  0.00  0.00    +0.027 A 
ATOM     18  C   UNL     1       6.448  -1.539  26.478  0.00  0.00    +0.053 A 
ATOM     19  N   UNL     1       6.659  -0.162  26.701  0.00  0.00    -0.308 N 
ATOM     20  C   UNL     1       6.126   0.843  27.638  0.00  0.00    +0.160 C 
ATOM     21  C   UNL     1       6.982   0.920  28.901  0.00  0.00    +0.067 C 
ATOM     22  C   UNL     1       4.612   0.708  27.593  0.00  0.00    +0.158 C 
ATOM     23  C   UNL     1       8.843   1.544  24.513  0.00  0.00    +0.022 A 
ATOM     24  C   UNL     1       8.528   2.851  24.099  0.00  0.00    +0.009 A 
ATOM     25  C   UNL     1       9.049   4.143  24.268  0.00  0.00    +0.015 A 
ATOM     26  C   UNL     1       8.467   5.096  23.430  0.00  0.00    -0.037 A 
ATOM     27  C   UNL     1       7.574   4.626  22.455  0.00  0.00    +0.006 A 
ATOM     28  C   UNL     1       6.776   3.499  22.728  0.00  0.00    +0.027 A 
ATOM     29  C   UNL     1       7.082   2.888  23.942  0.00  0.00    +0.052 A 
ATOM     30  O   UNL     1       6.339   2.235  27.176  0.00  0.00    -0.330 OA
ATOM     31  C   UNL     1       4.237   1.754  26.502  0.00  0.00    +0.074 C 
ENDROOT
BRANCH  22  32
ATOM     32  C   UNL     1       4.112   0.623  29.030  0.00  0.00    +0.351 C 
ATOM     33  O   UNL     1       4.235  -0.409  29.696  0.00  0.00    -0.247 OA
BRANCH  32  34
ATOM     34  O   UNL     1       3.444   1.718  29.482  0.00  0.00    -0.297 OA
BRANCH  34  35
ATOM     35  O   UNL     1       4.358   2.396  30.424  0.00  0.00    -0.187 OA
ATOM     36  C   UNL     1       4.660   3.700  29.930  0.00  0.00    +0.253 C 
ENDBRANCH  34  35
ENDBRANCH  32  34
ENDBRANCH  22  32
BRANCH  15  37
ATOM     37  C   UNL     1       6.168  -5.642  25.110  0.00  0.00    +0.104 C 
BRANCH  37  38
ATOM     38  S   UNL     1       5.133  -5.907  23.624  0.00  0.00    -0.156 S 
BRANCH  38  39
ATOM     39  C   UNL     1       6.443  -6.033  22.360  0.00  0.00    +0.066 C 
ATOM     40  C   UNL     1       6.443  -4.797  21.479  0.00  0.00    +0.015 C 
ENDBRANCH  38  39
ENDBRANCH  37  38
ENDBRANCH  15  37
BRANCH  26  41
ATOM     41  C   UNL     1       8.548   6.576  23.701  0.00  0.00    +0.104 C 
BRANCH  41  42
ATOM     42  S   UNL     1       8.806   7.100  25.401  0.00  0.00    -0.156 S 
BRANCH  42  43
ATOM     43  C   UNL     1       7.138   6.811  26.044  0.00  0.00    +0.066 C 
ATOM     44  C   UNL     1       7.195   5.669  27.039  0.00  0.00    +0.015 C 
ENDBRANCH  42  43
ENDBRANCH  41  42
ENDBRANCH  26  41
TORSDOF 9
ENDMDL
MODEL 5
REMARK VINA RESULT:      -6.4      2.371      8.918
REMARK  Name = 
REMARK  13 active torsions:
REMARK  status: ('A' for Active; 'I' for Inactive)
REMARK    1  A    between atoms: C_4  and  C_6
REMARK    2  A    between atoms: C_6  and  O_8
REMARK    3  A    between atoms: O_8  and  O_9
REMARK    4  A    between atoms: O_9  and  C_10
REMARK    5  A    between atoms: C_11  and  C_12
REMARK    6  A    between atoms: C_18  and  C_19
REMARK    7  A    between atoms: C_19  and  S_20
REMARK    8  A    between atoms: S_20  and  C_21
REMARK    9  A    between atoms: C_21  and  C_22
REMARK   10  A    between atoms: C_37  and  C_38
REMARK   11  A    between atoms: C_38  and  S_39
REMARK   12  A    between atoms: S_39  and  C_40
REMARK   13  A    between atoms: C_40  and  C_41
REMARK                            x       y       z     vdW  Elec       q    Type
REMARK                         _______ _______ _______ _____ _____    ______ ____
ROOT
ATOM      1  C   UNL     1       8.492   1.177  24.960  0.00  0.00    +0.223 C 
ATOM      2  N   UNL     1       7.325   1.634  25.740  0.00  0.00    -0.311 N 
ATOM      3  C   UNL     1       6.052   1.201  25.392  0.00  0.00    +0.077 A 
ATOM      4  C   UNL     1       5.781  -0.120  25.545  0.00  0.00    +0.077 A 
ATOM      5  C   UNL     1       4.810  -0.378  26.470  0.00  0.00    +0.015 A 
ATOM      6  C   UNL     1       4.002   0.552  27.157  0.00  0.00    -0.008 A 
ATOM      7  C   UNL     1       4.045   1.863  26.615  0.00  0.00    +0.052 A 
ATOM      8  C   UNL     1       3.348   2.745  27.513  0.00  0.00    +0.245 C 
ATOM      9  O   UNL     1       3.160   3.950  27.533  0.00  0.00    -0.270 OA
ATOM     10  N   UNL     1       2.919   1.892  28.534  0.00  0.00    -0.307 N 
ATOM     11  H   UNL     1       2.421   2.295  29.319  0.00  0.00    +0.149 HD
ATOM     12  C   UNL     1       3.250   0.483  28.398  0.00  0.00    +0.141 C 
ATOM     13  C   UNL     1       5.168  -1.689  26.823  0.00  0.00    +0.008 A 
ATOM     14  C   UNL     1       4.741  -2.589  27.820  0.00  0.00    +0.015 A 
ATOM     15  C   UNL     1       5.284  -3.877  27.913  0.00  0.00    -0.037 A 
ATOM     16  C   UNL     1       6.301  -4.264  27.036  0.00  0.00    +0.006 A 
ATOM     17  C   UNL     1       6.771  -3.413  26.029  0.00  0.00    +0.027 A 
ATOM     18  C   UNL     1       6.243  -2.112  25.919  0.00  0.00    +0.053 A 
ATOM     19  N   UNL     1       6.620  -1.040  25.083  0.00  0.00    -0.308 N 
ATOM     20  C   UNL     1       7.653  -0.826  24.054  0.00  0.00    +0.160 C 
ATOM     21  C   UNL     1       7.128  -1.192  22.667  0.00  0.00    +0.067 C 
ATOM     22  C   UNL     1       8.966  -1.293  24.663  0.00  0.00    +0.158 C 
ATOM     23  C   UNL     1       4.913   2.027  25.467  0.00  0.00    +0.022 A 
ATOM     24  C   UNL     1       5.630   3.234  25.375  0.00  0.00    +0.009 A 
ATOM     25  C   UNL     1       5.684   4.342  24.515  0.00  0.00    +0.015 A 
ATOM     26  C   UNL     1       6.431   5.407  25.019  0.00  0.00    -0.037 A 
ATOM     27  C   UNL     1       6.889   5.295  26.340  0.00  0.00    +0.006 A 
ATOM     28  C   UNL     1       7.227   4.029  26.854  0.00  0.00    +0.027 A 
ATOM     29  C   UNL     1       6.927   2.983  25.984  0.00  0.00    +0.052 A 
ATOM     30  O   UNL     1       7.915   0.608  23.787  0.00  0.00    -0.330 OA
ATOM     31  C   UNL     1       9.517   0.030  25.271  0.00  0.00    +0.074 C 
ENDROOT
BRANCH  22  32
ATOM     32  C   UNL     1       9.638  -2.222  23.659  0.00  0.00    +0.351 C 
ATOM     33  O   UNL     1      10.417  -1.792  22.804  0.00  0.00    -0.247 OA
BRANCH  32  34
ATOM     34  O   UNL     1       9.245  -3.523  23.714  0.00  0.00    -0.297 OA
BRANCH  34  35
ATOM     35  O   UNL     1      10.199  -4.201  24.616  0.00  0.00    -0.187 OA
ATOM     36  C   UNL     1       9.548  -5.303  25.247  0.00  0.00    +0.253 C 
ENDBRANCH  34  35
ENDBRANCH  32  34
ENDBRANCH  22  32
BRANCH  15  37
ATOM     37  C   UNL     1       4.680  -4.860  28.884  0.00  0.00    +0.104 C 
BRANCH  37  38
ATOM     38  S   UNL     1       4.898  -6.593  28.337  0.00  0.00    -0.156 S 
BRANCH  38  39
ATOM     39  C   UNL     1       3.542  -6.700  27.120  0.00  0.00    +0.066 C 
ATOM     40  C   UNL     1       4.099  -6.971  25.736  0.00  0.00    +0.015 C 
ENDBRANCH  38  39
ENDBRANCH  37  38
ENDBRANCH  15  37
BRANCH  26  41
ATOM     41  C   UNL     1       6.974   6.507  24.144  0.00  0.00    +0.104 C 
BRANCH  41  42
ATOM     42  S   UNL     1       7.990   6.030  22.739  0.00  0.00    -0.156 S 
BRANCH  42  43
ATOM     43  C   UNL     1       9.600   5.957  23.565  0.00  0.00    +0.066 C 
ATOM     44  C   UNL     1       9.889   4.516  23.936  0.00  0.00    +0.015 C 
ENDBRANCH  42  43
ENDBRANCH  41  42
ENDBRANCH  26  41
TORSDOF 9
ENDMDL
MODEL 6
REMARK VINA RESULT:      -6.4      2.248      7.503
REMARK  Name = 
REMARK  13 active torsions:
REMARK  status: ('A' for Active; 'I' for Inactive)
REMARK    1  A    between atoms: C_4  and  C_6
REMARK    2  A    between atoms: C_6  and  O_8
REMARK    3  A    between atoms: O_8  and  O_9
REMARK    4  A    between atoms: O_9  and  C_10
REMARK    5  A    between atoms: C_11  and  C_12
REMARK    6  A    between atoms: C_18  and  C_19
REMARK    7  A    between atoms: C_19  and  S_20
REMARK    8  A    between atoms: S_20  and  C_21
REMARK    9  A    between atoms: C_21  and  C_22
REMARK   10  A    between atoms: C_37  and  C_38
REMARK   11  A    between atoms: C_38  and  S_39
REMARK   12  A    between atoms: S_39  and  C_40
REMARK   13  A    between atoms: C_40  and  C_41
REMARK                            x       y       z     vdW  Elec       q    Type
REMARK                         _______ _______ _______ _____ _____    ______ ____
ROOT
ATOM      1  C   UNL     1       5.995   2.174  25.357  0.00  0.00    +0.223 C 
ATOM      2  N   UNL     1       6.607   1.135  24.506  0.00  0.00    -0.311 N 
ATOM      3  C   UNL     1       7.088  -0.034  25.084  0.00  0.00    +0.077 A 
ATOM      4  C   UNL     1       6.178  -0.868  25.647  0.00  0.00    +0.077 A 
ATOM      5  C   UNL     1       6.096  -2.085  25.033  0.00  0.00    +0.015 A 
ATOM      6  C   UNL     1       6.914  -2.589  24.001  0.00  0.00    -0.008 A 
ATOM      7  C   UNL     1       8.098  -1.837  23.785  0.00  0.00    +0.052 A 
ATOM      8  C   UNL     1       8.734  -2.330  22.593  0.00  0.00    +0.245 C 
ATOM      9  O   UNL     1       9.721  -1.988  21.961  0.00  0.00    -0.270 OA
ATOM     10  N   UNL     1       7.888  -3.363  22.179  0.00  0.00    -0.307 N 
ATOM     11  H   UNL     1       8.113  -3.854  21.322  0.00  0.00    +0.149 HD
ATOM     12  C   UNL     1       6.724  -3.633  23.008  0.00  0.00    +0.141 C 
ATOM     13  C   UNL     1       4.785  -2.437  25.392  0.00  0.00    +0.008 A 
ATOM     14  C   UNL     1       3.912  -3.481  25.023  0.00  0.00    +0.015 A 
ATOM     15  C   UNL     1       2.633  -3.588  25.584  0.00  0.00    -0.037 A 
ATOM     16  C   UNL     1       2.191  -2.618  26.489  0.00  0.00    +0.006 A 
ATOM     17  C   UNL     1       3.010  -1.555  26.890  0.00  0.00    +0.027 A 
ATOM     18  C   UNL     1       4.297  -1.425  26.336  0.00  0.00    +0.053 A 
ATOM     19  N   UNL     1       5.256  -0.401  26.481  0.00  0.00    -0.308 N 
ATOM     20  C   UNL     1       5.319   0.882  27.204  0.00  0.00    +0.160 C 
ATOM     21  C   UNL     1       5.903   0.694  28.603  0.00  0.00    +0.067 C 
ATOM     22  C   UNL     1       4.036   1.626  26.865  0.00  0.00    +0.158 C 
ATOM     23  C   UNL     1       8.258  -0.681  24.643  0.00  0.00    +0.022 A 
ATOM     24  C   UNL     1       8.828   0.468  24.067  0.00  0.00    +0.009 A 
ATOM     25  C   UNL     1       9.989   1.240  24.228  0.00  0.00    +0.015 A 
ATOM     26  C   UNL     1      10.185   2.178  23.214  0.00  0.00    -0.037 A 
ATOM     27  C   UNL     1       9.306   2.127  22.122  0.00  0.00    +0.006 A 
ATOM     28  C   UNL     1       7.971   1.728  22.321  0.00  0.00    +0.027 A 
ATOM     29  C   UNL     1       7.714   1.290  23.618  0.00  0.00    +0.052 A 
ATOM     30  O   UNL     1       6.365   1.791  26.680  0.00  0.00    -0.330 OA
ATOM     31  C   UNL     1       4.481   2.474  25.638  0.00  0.00    +0.074 C 
ENDROOT
BRANCH  22  32
ATOM     32  C   UNL     1       3.423   2.110  28.174  0.00  0.00    +0.351 C 
ATOM     33  O   UNL     1       2.637   1.407  28.817  0.00  0.00    -0.247 OA
BRANCH  32  34
ATOM     34  O   UNL     1       3.725   3.389  28.523  0.00  0.00    -0.297 OA
BRANCH  34  35
ATOM     35  O   UNL     1       2.580   4.214  28.084  0.00  0.00    -0.187 OA
ATOM     36  C   UNL     1       3.055   5.495  27.673  0.00  0.00    +0.253 C 
ENDBRANCH  34  35
ENDBRANCH  32  34
ENDBRANCH  22  32
BRANCH  15  37
ATOM     37  C   UNL     1       1.801  -4.810  25.288  0.00  0.00    +0.104 C 
BRANCH  37  38
ATOM     38  S   UNL     1       2.266  -5.591  23.698  0.00  0.00    -0.156 S 
BRANCH  38  39
ATOM     39  C   UNL     1       2.768  -7.237  24.304  0.00  0.00    +0.066 C 
ATOM     40  C   UNL     1       4.056  -7.133  25.099  0.00  0.00    +0.015 C 
ENDBRANCH  38  39
ENDBRANCH  37  38
ENDBRANCH  15  37
BRANCH  26  41
ATOM     41  C   UNL     1      11.094   3.369  23.370  0.00  0.00    +0.104 C 
BRANCH  41  42
ATOM     42  S   UNL     1      10.343   4.942  23.811  0.00  0.00    -0.156 S 
BRANCH  42  43
ATOM     43  C   UNL     1      11.841   5.955  23.906  0.00  0.00    +0.066 C 
ATOM     44  C   UNL     1      12.960   5.232  23.183  0.00  0.00    +0.015 C 
ENDBRANCH  42  43
ENDBRANCH  41  42
ENDBRANCH  26  41
TORSDOF 9
ENDMDL
MODEL 7
REMARK VINA RESULT:      -6.1      3.135      5.935
REMARK  Name = 
REMARK  13 active torsions:
REMARK  status: ('A' for Active; 'I' for Inactive)
REMARK    1  A    between atoms: C_4  and  C_6
REMARK    2  A    between atoms: C_6  and  O_8
REMARK    3  A    between atoms: O_8  and  O_9
REMARK    4  A    between atoms: O_9  and  C_10
REMARK    5  A    between atoms: C_11  and  C_12
REMARK    6  A    between atoms: C_18  and  C_19
REMARK    7  A    between atoms: C_19  and  S_20
REMARK    8  A    between atoms: S_20  and  C_21
REMARK    9  A    between atoms: C_21  and  C_22
REMARK   10  A    between atoms: C_37  and  C_38
REMARK   11  A    between atoms: C_38  and  S_39
REMARK   12  A    between atoms: S_39  and  C_40
REMARK   13  A    between atoms: C_40  and  C_41
REMARK                            x       y       z     vdW  Elec       q    Type
REMARK                         _______ _______ _______ _____ _____    ______ ____
ROOT
ATOM      1  C   UNL     1       5.934  -2.604  24.320  0.00  0.00    +0.223 C 
ATOM      2  N   UNL     1       4.900  -1.981  25.169  0.00  0.00    -0.311 N 
ATOM      3  C   UNL     1       5.249  -0.953  26.036  0.00  0.00    +0.077 A 
ATOM      4  C   UNL     1       5.660   0.215  25.481  0.00  0.00    +0.077 A 
ATOM      5  C   UNL     1       4.835   1.270  25.747  0.00  0.00    +0.015 A 
ATOM      6  C   UNL     1       3.718   1.298  26.609  0.00  0.00    -0.008 A 
ATOM      7  C   UNL     1       3.631   0.176  27.474  0.00  0.00    +0.052 A 
ATOM      8  C   UNL     1       2.361   0.226  28.149  0.00  0.00    +0.245 C 
ATOM      9  O   UNL     1       1.791  -0.520  28.928  0.00  0.00    -0.270 OA
ATOM     10  N   UNL     1       1.775   1.392  27.648  0.00  0.00    -0.307 N 
ATOM     11  H   UNL     1       0.840   1.630  27.957  0.00  0.00    +0.149 HD
ATOM     12  C   UNL     1       2.554   2.163  26.692  0.00  0.00    +0.141 C 
ATOM     13  C   UNL     1       5.138   2.085  24.645  0.00  0.00    +0.008 A 
ATOM     14  C   UNL     1       4.594   3.278  24.126  0.00  0.00    +0.015 A 
ATOM     15  C   UNL     1       5.141   3.888  22.989  0.00  0.00    -0.037 A 
ATOM     16  C   UNL     1       6.213   3.283  22.327  0.00  0.00    +0.006 A 
ATOM     17  C   UNL     1       6.792   2.096  22.791  0.00  0.00    +0.027 A 
ATOM     18  C   UNL     1       6.257   1.462  23.928  0.00  0.00    +0.053 A 
ATOM     19  N   UNL     1       6.576   0.221  24.519  0.00  0.00    -0.308 N 
ATOM     20  C   UNL     1       7.520  -0.870  24.221  0.00  0.00    +0.160 C 
ATOM     21  C   UNL     1       8.854  -0.648  24.931  0.00  0.00    +0.067 C 
ATOM     22  C   UNL     1       7.338  -1.202  22.748  0.00  0.00    +0.158 C 
ATOM     23  C   UNL     1       4.684  -0.806  27.318  0.00  0.00    +0.022 A 
ATOM     24  C   UNL     1       4.321  -2.158  27.450  0.00  0.00    +0.009 A 
ATOM     25  C   UNL     1       4.608  -3.227  28.314  0.00  0.00    +0.015 A 
ATOM     26  C   UNL     1       3.780  -4.335  28.129  0.00  0.00    -0.037 A 
ATOM     27  C   UNL     1       2.707  -4.187  27.238  0.00  0.00    +0.006 A 
ATOM     28  C   UNL     1       2.845  -3.347  26.116  0.00  0.00    +0.027 A 
ATOM     29  C   UNL     1       4.043  -2.636  26.104  0.00  0.00    +0.052 A 
ATOM     30  O   UNL     1       7.159  -2.145  24.884  0.00  0.00    -0.330 OA
ATOM     31  C   UNL     1       6.282  -2.343  22.812  0.00  0.00    +0.074 C 
ENDROOT
BRANCH  22  32
ATOM     32  C   UNL     1       8.720  -1.230  22.106  0.00  0.00    +0.351 C 
ATOM     33  O   UNL     1       9.493  -2.176  22.280  0.00  0.00    -0.247 OA
BRANCH  32  34
ATOM     34  O   UNL     1       9.068  -0.109  21.419  0.00  0.00    -0.297 OA
BRANCH  34  35
ATOM     35  O   UNL     1      10.289   0.408  22.070  0.00  0.00    -0.187 OA
ATOM     36  C   UNL     1      10.189   1.826  22.199  0.00  0.00    +0.253 C 
ENDBRANCH  34  35
ENDBRANCH  32  34
ENDBRANCH  22  32
BRANCH  15  37
ATOM     37  C   UNL     1       4.636   5.246  22.572  0.00  0.00    +0.104 C 
BRANCH  37  38
ATOM     38  S   UNL     1       5.550   6.604  23.392  0.00  0.00    -0.156 S 
BRANCH  38  39
ATOM     39  C   UNL     1       6.891   6.844  22.178  0.00  0.00    +0.066 C 
ATOM     40  C   UNL     1       8.225   6.458  22.788  0.00  0.00    +0.015 C 
ENDBRANCH  38  39
ENDBRANCH  37  38
ENDBRANCH  15  37
BRANCH  26  41
ATOM     41  C   UNL     1       4.141  -5.712  28.622  0.00  0.00    +0.104 C 
BRANCH  41  42
ATOM     42  S   UNL     1       5.865  -6.212  28.513  0.00  0.00    -0.156 S 
BRANCH  42  43
ATOM     43  C   UNL     1       6.141  -5.895  26.751  0.00  0.00    +0.066 C 
ATOM     44  C   UNL     1       7.463  -5.171  26.591  0.00  0.00    +0.015 C 
ENDBRANCH  42  43
ENDBRANCH  41  42
ENDBRANCH  26  41
TORSDOF 9
ENDMDL
MODEL 8
REMARK VINA RESULT:      -6.0      2.955      5.974
REMARK  Name = 
REMARK  13 active torsions:
REMARK  status: ('A' for Active; 'I' for Inactive)
REMARK    1  A    between atoms: C_4  and  C_6
REMARK    2  A    between atoms: C_6  and  O_8
REMARK    3  A    between atoms: O_8  and  O_9
REMARK    4  A    between atoms: O_9  and  C_10
REMARK    5  A    between atoms: C_11  and  C_12
REMARK    6  A    between atoms: C_18  and  C_19
REMARK    7  A    between atoms: C_19  and  S_20
REMARK    8  A    between atoms: S_20  and  C_21
REMARK    9  A    between atoms: C_21  and  C_22
REMARK   10  A    between atoms: C_37  and  C_38
REMARK   11  A    between atoms: C_38  and  S_39
REMARK   12  A    between atoms: S_39  and  C_40
REMARK   13  A    between atoms: C_40  and  C_41
REMARK                            x       y       z     vdW  Elec       q    Type
REMARK                         _______ _______ _______ _____ _____    ______ ____
ROOT
ATOM      1  C   UNL     1       5.978  -2.799  23.988  0.00  0.00    +0.223 C 
ATOM      2  N   UNL     1       5.111  -2.398  25.112  0.00  0.00    -0.311 N 
ATOM      3  C   UNL     1       5.674  -2.112  26.349  0.00  0.00    +0.077 A 
ATOM      4  C   UNL     1       6.477  -1.021  26.429  0.00  0.00    +0.077 A 
ATOM      5  C   UNL     1       5.995  -0.044  27.253  0.00  0.00    +0.015 A 
ATOM      6  C   UNL     1       4.865  -0.103  28.094  0.00  0.00    -0.008 A 
ATOM      7  C   UNL     1       4.353  -1.414  28.280  0.00  0.00    +0.052 A 
ATOM      8  C   UNL     1       3.101  -1.313  28.983  0.00  0.00    +0.245 C 
ATOM      9  O   UNL     1       2.258  -2.127  29.321  0.00  0.00    -0.270 OA
ATOM     10  N   UNL     1       2.954   0.062  29.185  0.00  0.00    -0.307 N 
ATOM     11  H   UNL     1       2.113   0.393  29.642  0.00  0.00    +0.149 HD
ATOM     12  C   UNL     1       4.021   0.919  28.691  0.00  0.00    +0.141 C 
ATOM     13  C   UNL     1       6.640   1.071  26.693  0.00  0.00    +0.008 A 
ATOM     14  C   UNL     1       6.543   2.463  26.889  0.00  0.00    +0.015 A 
ATOM     15  C   UNL     1       7.358   3.353  26.177  0.00  0.00    -0.037 A 
ATOM     16  C   UNL     1       8.249   2.860  25.220  0.00  0.00    +0.006 A 
ATOM     17  C   UNL     1       8.387   1.489  24.976  0.00  0.00    +0.027 A 
ATOM     18  C   UNL     1       7.575   0.576  25.676  0.00  0.00    +0.053 A 
ATOM     19  N   UNL     1       7.438  -0.821  25.534  0.00  0.00    -0.308 N 
ATOM     20  C   UNL     1       8.024  -1.849  24.655  0.00  0.00    +0.160 C 
ATOM     21  C   UNL     1       9.287  -2.443  25.276  0.00  0.00    +0.067 C 
ATOM     22  C   UNL     1       7.891  -1.321  23.235  0.00  0.00    +0.158 C 
ATOM     23  C   UNL     1       5.062  -2.458  27.570  0.00  0.00    +0.022 A 
ATOM     24  C   UNL     1       4.289  -3.501  27.029  0.00  0.00    +0.009 A 
ATOM     25  C   UNL     1       4.148  -4.886  27.212  0.00  0.00    +0.015 A 
ATOM     26  C   UNL     1       3.040  -5.428  26.558  0.00  0.00    -0.037 A 
ATOM     27  C   UNL     1       2.156  -4.525  25.948  0.00  0.00    +0.006 A 
ATOM     28  C   UNL     1       2.653  -3.329  25.397  0.00  0.00    +0.027 A 
ATOM     29  C   UNL     1       4.008  -3.126  25.652  0.00  0.00    +0.052 A 
ATOM     30  O   UNL     1       7.226  -3.096  24.611  0.00  0.00    -0.330 OA
ATOM     31  C   UNL     1       6.533  -1.943  22.796  0.00  0.00    +0.074 C 
ENDROOT
BRANCH  22  32
ATOM     32  C   UNL     1       9.252  -1.456  22.562  0.00  0.00    +0.351 C 
ATOM     33  O   UNL     1       9.613  -2.516  22.042  0.00  0.00    -0.247 OA
BRANCH  32  34
ATOM     34  O   UNL     1      10.064  -0.369  22.662  0.00  0.00    -0.297 OA
BRANCH  34  35
ATOM     35  O   UNL     1       9.555   0.613  21.683  0.00  0.00    -0.187 OA
ATOM     36  C   UNL     1      10.128   1.891  21.958  0.00  0.00    +0.253 C 
ENDBRANCH  34  35
ENDBRANCH  32  34
ENDBRANCH  22  32
BRANCH  15  37
ATOM     37  C   UNL     1       7.339   4.816  26.541  0.00  0.00    +0.104 C 
BRANCH  37  38
ATOM     38  S   UNL     1       8.583   5.776  25.602  0.00  0.00    -0.156 S 
BRANCH  38  39
ATOM     39  C   UNL     1       7.499   6.527  24.341  0.00  0.00    +0.066 C 
ATOM     40  C   UNL     1       7.643   5.792  23.021  0.00  0.00    +0.015 C 
ENDBRANCH  38  39
ENDBRANCH  37  38
ENDBRANCH  15  37
BRANCH  26  41
ATOM     41  C   UNL     1       2.910  -6.899  26.260  0.00  0.00    +0.104 C 
BRANCH  41  42
ATOM     42  S   UNL     1       2.917  -7.404  24.534  0.00  0.00    -0.156 S 
BRANCH  42  43
ATOM     43  C   UNL     1       4.542  -6.761  24.057  0.00  0.00    +0.066 C 
ATOM     44  C   UNL     1       4.354  -5.754  22.940  0.00  0.00    +0.015 C 
ENDBRANCH  42  43
ENDBRANCH  41  42
ENDBRANCH  26  41
TORSDOF 9
ENDMDL
MODEL 9
REMARK VINA RESULT:      -6.0      2.412      6.370
REMARK  Name = 
REMARK  13 active torsions:
REMARK  status: ('A' for Active; 'I' for Inactive)
REMARK    1  A    between atoms: C_4  and  C_6
REMARK    2  A    between atoms: C_6  and  O_8
REMARK    3  A    between atoms: O_8  and  O_9
REMARK    4  A    between atoms: O_9  and  C_10
REMARK    5  A    between atoms: C_11  and  C_12
REMARK    6  A    between atoms: C_18  and  C_19
REMARK    7  A    between atoms: C_19  and  S_20
REMARK    8  A    between atoms: S_20  and  C_21
REMARK    9  A    between atoms: C_21  and  C_22
REMARK   10  A    between atoms: C_37  and  C_38
REMARK   11  A    between atoms: C_38  and  S_39
REMARK   12  A    between atoms: S_39  and  C_40
REMARK   13  A    between atoms: C_40  and  C_41
REMARK                            x       y       z     vdW  Elec       q    Type
REMARK                         _______ _______ _______ _____ _____    ______ ____
ROOT
ATOM      1  C   UNL     1       5.054  -2.417  25.589  0.00  0.00    +0.223 C 
ATOM      2  N   UNL     1       4.923  -1.122  26.285  0.00  0.00    -0.311 N 
ATOM      3  C   UNL     1       5.948  -0.678  27.112  0.00  0.00    +0.077 A 
ATOM      4  C   UNL     1       7.132  -0.372  26.523  0.00  0.00    +0.077 A 
ATOM      5  C   UNL     1       7.475   0.945  26.632  0.00  0.00    +0.015 A 
ATOM      6  C   UNL     1       6.819   1.951  27.373  0.00  0.00    -0.008 A 
ATOM      7  C   UNL     1       5.865   1.454  28.299  0.00  0.00    +0.052 A 
ATOM      8  C   UNL     1       5.135   2.571  28.836  0.00  0.00    +0.245 C 
ATOM      9  O   UNL     1       4.191   2.671  29.602  0.00  0.00    -0.270 OA
ATOM     10  N   UNL     1       5.716   3.673  28.201  0.00  0.00    -0.307 N 
ATOM     11  H   UNL     1       5.342   4.593  28.396  0.00  0.00    +0.149 HD
ATOM     12  C   UNL     1       6.808   3.401  27.278  0.00  0.00    +0.141 C 
ATOM     13  C   UNL     1       8.316   1.059  25.514  0.00  0.00    +0.008 A 
ATOM     14  C   UNL     1       8.945   2.140  24.863  0.00  0.00    +0.015 A 
ATOM     15  C   UNL     1       9.769   1.934  23.749  0.00  0.00    -0.037 A 
ATOM     16  C   UNL     1       9.936   0.642  23.241  0.00  0.00    +0.006 A 
ATOM     17  C   UNL     1       9.334  -0.470  23.841  0.00  0.00    +0.027 A 
ATOM     18  C   UNL     1       8.497  -0.287  24.958  0.00  0.00    +0.053 A 
ATOM     19  N   UNL     1       7.695  -1.210  25.661  0.00  0.00    -0.308 N 
ATOM     20  C   UNL     1       7.395  -2.648  25.535  0.00  0.00    +0.160 C 
ATOM     21  C   UNL     1       8.370  -3.485  26.360  0.00  0.00    +0.067 C 
ATOM     22  C   UNL     1       7.031  -2.881  24.077  0.00  0.00    +0.158 C 
ATOM     23  C   UNL     1       5.716   0.014  28.317  0.00  0.00    +0.022 A 
ATOM     24  C   UNL     1       4.417  -0.493  28.503  0.00  0.00    +0.009 A 
ATOM     25  C   UNL     1       3.730  -1.253  29.461  0.00  0.00    +0.015 A 
ATOM     26  C   UNL     1       2.348  -1.284  29.269  0.00  0.00    -0.037 A 
ATOM     27  C   UNL     1       1.827  -0.453  28.266  0.00  0.00    +0.006 A 
ATOM     28  C   UNL     1       2.588  -0.196  27.110  0.00  0.00    +0.027 A 
ATOM     29  C   UNL     1       3.877  -0.722  27.171  0.00  0.00    +0.052 A 
ATOM     30  O   UNL     1       6.155  -3.044  26.243  0.00  0.00    -0.330 OA
ATOM     31  C   UNL     1       5.482  -2.720  24.111  0.00  0.00    +0.074 C 
ENDROOT
BRANCH  22  32
ATOM     32  C   UNL     1       7.844  -4.071  23.581  0.00  0.00    +0.351 C 
ATOM     33  O   UNL     1       9.009  -3.940  23.193  0.00  0.00    -0.247 OA
BRANCH  32  34
ATOM     34  O   UNL     1       7.170  -5.250  23.508  0.00  0.00    -0.297 OA
BRANCH  34  35
ATOM     35  O   UNL     1       7.522  -5.842  22.201  0.00  0.00    -0.187 OA
ATOM     36  C   UNL     1       6.444  -5.642  21.288  0.00  0.00    +0.253 C 
ENDBRANCH  34  35
ENDBRANCH  32  34
ENDBRANCH  22  32
BRANCH  15  37
ATOM     37  C   UNL     1      10.552   3.095  23.191  0.00  0.00    +0.104 C 
BRANCH  37  38
ATOM     38  S   UNL     1       9.875   4.707  23.735  0.00  0.00    -0.156 S 
BRANCH  38  39
ATOM     39  C   UNL     1      11.390   5.720  23.641  0.00  0.00    +0.066 C 
ATOM     40  C   UNL     1      12.593   4.839  23.360  0.00  0.00    +0.015 C 
ENDBRANCH  38  39
ENDBRANCH  37  38
ENDBRANCH  15  37
BRANCH  26  41
ATOM     41  C   UNL     1       1.463  -2.334  29.888  0.00  0.00    +0.104 C 
BRANCH  41  42
ATOM     42  S   UNL     1       0.555  -3.419  28.778  0.00  0.00    -0.156 S 
BRANCH  42  43
ATOM     43  C   UNL     1       1.955  -4.179  27.917  0.00  0.00    +0.066 C 
ATOM     44  C   UNL     1       1.845  -3.861  26.439  0.00  0.00    +0.015 C 
ENDBRANCH  42  43
ENDBRANCH  41  42
ENDBRANCH  26  41
TORSDOF 9
ENDMDL
