MODEL 1
REMARK VINA RESULT:      -3.7      0.000      0.000
REMARK  Name = 
REMARK  34 active torsions:
REMARK  status: ('A' for Active; 'I' for Inactive)
REMARK    1  A    between atoms: C_1  and  C_2
REMARK    2  A    between atoms: C_2  and  C_3
REMARK    3  A    between atoms: C_5  and  C_7
REMARK    4  A    between atoms: C_11  and  C_12
REMARK    5  A    between atoms: C_12  and  C_13
REMARK    6  A    between atoms: C_15  and  C_16
REMARK    7  A    between atoms: C_20  and  C_22
REMARK    8  A    between atoms: C_23  and  C_25
REMARK    9  A    between atoms: C_25  and  C_26
REMARK   10  A    between atoms: C_26  and  C_27
REMARK   11  A    between atoms: C_27  and  O_29
REMARK   12  A    between atoms: O_29  and  C_30
REMARK   13  A    between atoms: C_30  and  C_31
REMARK   14  A    between atoms: C_32  and  C_33
REMARK   15  A    between atoms: C_32  and  C_34
REMARK   16  A    between atoms: C_34  and  C_35
REMARK   17  A    between atoms: C_35  and  C_36
REMARK   18  A    between atoms: C_36  and  C_37
REMARK   19  A    between atoms: C_37  and  C_39
REMARK   20  A    between atoms: C_37  and  C_40
REMARK   21  A    between atoms: C_40  and  C_41
REMARK   22  A    between atoms: C_41  and  C_42
REMARK   23  A    between atoms: C_42  and  C_43
REMARK   24  A    between atoms: C_43  and  C_45
REMARK   25  A    between atoms: C_43  and  C_46
REMARK   26  A    between atoms: C_46  and  C_47
REMARK   27  A    between atoms: C_47  and  C_48
REMARK   28  A    between atoms: C_48  and  C_49
REMARK   29  A    between atoms: C_49  and  C_50
REMARK   30  A    between atoms: C_49  and  C_51
REMARK   31  A    between atoms: C_59  and  C_60
REMARK   32  A    between atoms: C_64  and  C_66
REMARK   33  A    between atoms: C_66  and  O_68
REMARK   34  A    between atoms: O_68  and  C_69
REMARK                            x       y       z     vdW  Elec       q    Type
REMARK                         _______ _______ _______ _____ _____    ______ ____
ROOT
ATOM      1  C   UNL     1       5.374  -3.817  23.186  0.00  0.00    +0.000 C 
ATOM      2  C   UNL     1       4.371  -2.580  25.150  0.00  0.00    +0.000 C 
ATOM      3  C   UNL     1       3.877  -0.200  28.708  0.00  0.00    +0.000 C 
ATOM      4  C   UNL     1       4.576   1.246  28.836  0.00  0.00    +0.000 A 
ATOM      5  N   UNL     1       4.289   1.465  27.898  0.00  0.00    +0.000 N 
ATOM      6 MG   UNL     1       2.545  -1.545  27.587  0.00  0.00    +0.000 Mg
ATOM      7  N   UNL     1       2.503  -5.216  26.315  0.00  0.00    +0.000 N 
ATOM      8  C   UNL     1       1.705  -5.641  27.119  0.00  0.00    +0.000 A 
ATOM      9  C   UNL     1       1.291  -4.492  27.613  0.00  0.00    +0.000 C 
ATOM     10  C   UNL     1       2.112  -3.101  27.213  0.00  0.00    +0.000 C 
ATOM     11  C   UNL     1       3.501  -3.412  27.906  0.00  0.00    +0.000 C 
ATOM     12  C   UNL     1       4.560  -2.049  27.344  0.00  0.00    +0.000 C 
ATOM     13  C   UNL     1       3.746  -0.936  26.644  0.00  0.00    +0.000 C 
ATOM     14  C   UNL     1       5.305   0.717  26.596  0.00  0.00    +0.000 C 
ATOM     15  C   UNL     1       6.640   1.069  26.158  0.00  0.00    +0.000 C 
ATOM     16  C   UNL     1       6.923   2.748  26.949  0.00  0.00    +0.000 C 
ATOM     17  O   UNL     1       7.900   3.490  27.114  0.00  0.00    +0.000 OA
ATOM     18  C   UNL     1       5.980   2.656  28.028  0.00  0.00    +0.000 A 
ATOM     19  C   UNL     1       3.716  -3.341  29.384  0.00  0.00    +0.000 C 
ATOM     20  C   UNL     1       1.244  -7.105  27.364  0.00  0.00    +0.000 A 
ATOM     21  C   UNL     1       0.443  -7.539  28.396  0.00  0.00    +0.000 C 
ATOM     22  C   UNL     1       1.682  -7.814  26.468  0.00  0.00    +0.000 A 
ATOM     23  C   UNL     1       2.647  -6.462  25.628  0.00  0.00    +0.000 A 
ATOM     24  C   UNL     1       3.352  -6.449  24.255  0.00  0.00    +0.000 C 
ATOM     25  C   UNL     1       3.755  -5.007  24.225  0.00  0.00    +0.000 C 
ATOM     26  N   UNL     1       2.339  -1.520  27.034  0.00  0.00    +1.000 N 
ATOM     27  C   UNL     1       5.245   1.665  27.462  0.00  0.00    +0.000 A 
ATOM     28  C   UNL     1       5.268   2.720  29.091  0.00  0.00    +0.000 A 
ATOM     29  C   UNL     1       5.876   4.428  30.095  0.00  0.00    +0.000 C 
ATOM     30  N   UNL     1       3.502  -3.482  25.389  0.00  0.00    +1.000 N 
ATOM     31  C   UNL     1       4.783  -5.144  23.256  0.00  0.00    +0.000 C 
ATOM     32  C   UNL     1       5.768  -5.894  24.273  0.00  0.00    +0.000 C 
ENDROOT
BRANCH  22  33
ATOM     33  C   UNL     1       1.359  -9.888  26.005  0.00  0.00    +0.000 C 
ATOM     34  O   UNL     1       1.088 -10.698  26.903  0.00  0.00    +0.000 OA
ATOM     35  C   UNL     1       0.758 -10.791  24.638  0.00  0.00    +0.000 C 
ENDBRANCH  22  33
BRANCH   1  37
ATOM     36  C   UNL     1       6.318  -4.134  21.187  0.00  0.00    +0.000 C 
ATOM     37  C   UNL     1       4.946  -3.961  21.423  0.00  0.00    +0.000 C 
ENDBRANCH   1  37
BRANCH  15  38
ATOM     38  C   UNL     1       7.571   0.382  27.035  0.00  0.00    +0.000 C 
ATOM     39  O   UNL     1       7.663   0.392  28.284  0.00  0.00    +0.000 OA
BRANCH  38  40
ATOM     40  O   UNL     1       8.511   0.008  26.275  0.00  0.00    +0.000 OA
ATOM     41  C   UNL     1       9.607  -0.409  26.842  0.00  0.00    +0.000 C 
ENDBRANCH  38  40
ENDBRANCH  15  38
BRANCH  12  42
ATOM     42  C   UNL     1       5.890  -2.262  27.162  0.00  0.00    +0.000 C 
BRANCH  42  43
ATOM     43  C   UNL     1       6.226  -3.578  27.463  0.00  0.00    +0.000 C 
BRANCH  43  44
ATOM     44  C   UNL     1       7.369  -4.288  27.052  0.00  0.00    +0.000 C 
ATOM     45  O   UNL     1       7.628  -5.395  27.507  0.00  0.00    +0.000 OA
BRANCH  44  46
ATOM     46  O   UNL     1       8.254  -3.496  26.432  0.00  0.00    +0.000 OA
BRANCH  46  47
ATOM     47  C   UNL     1       8.775  -3.580  25.147  0.00  0.00    +0.000 C 
BRANCH  47  48
ATOM     48  C   UNL     1       8.344  -2.727  23.924  0.00  0.00    +0.000 C 
ATOM     49  C   UNL     1       9.060  -1.902  23.211  0.00  0.00    +0.000 C 
ATOM     50  C   UNL     1      10.511  -1.850  23.382  0.00  0.00    +0.000 C 
BRANCH  49  51
ATOM     51  C   UNL     1       8.329  -1.143  22.145  0.00  0.00    +0.000 C 
BRANCH  51  52
ATOM     52  C   UNL     1       7.201  -0.636  22.723  0.00  0.00    +0.000 C 
BRANCH  52  53
ATOM     53  C   UNL     1       6.828   1.093  22.599  0.00  0.00    +0.000 C 
BRANCH  53  54
ATOM     54  C   UNL     1       8.322   2.910  23.333  0.00  0.00    +0.000 C 
ATOM     55  C   UNL     1       9.660   2.636  24.139  0.00  0.00    +0.000 C 
BRANCH  54  56
ATOM     56  C   UNL     1       7.990   4.483  23.255  0.00  0.00    +0.000 C 
BRANCH  56  57
ATOM     57  C   UNL     1       7.061   4.984  24.136  0.00  0.00    +0.000 C 
BRANCH  57  58
ATOM     58  C   UNL     1       5.604   5.096  23.509  0.00  0.00    +0.000 C 
BRANCH  58  59
ATOM     59  C   UNL     1       4.867   4.199  24.363  0.00  0.00    +0.000 C 
ATOM     60  C   UNL     1       4.007   3.335  23.480  0.00  0.00    +0.000 C 
BRANCH  59  61
ATOM     61  C   UNL     1       3.987   5.019  25.345  0.00  0.00    +0.000 C 
BRANCH  61  62
ATOM     62  C   UNL     1       2.576   4.758  25.020  0.00  0.00    +0.000 C 
BRANCH  62  63
ATOM     63  C   UNL     1       1.854   4.163  26.193  0.00  0.00    +0.000 C 
BRANCH  63  64
ATOM     64  C   UNL     1       1.562   2.697  25.906  0.00  0.00    +0.000 C 
ATOM     65  C   UNL     1       0.535   2.608  24.793  0.00  0.00    +0.000 C 
ATOM     66  C   UNL     1       1.026   1.996  27.154  0.00  0.00    +0.000 C 
ENDBRANCH  63  64
ENDBRANCH  62  63
ENDBRANCH  61  62
ENDBRANCH  59  61
ENDBRANCH  58  59
ENDBRANCH  57  58
ENDBRANCH  56  57
ENDBRANCH  54  56
ENDBRANCH  53  54
ENDBRANCH  52  53
ENDBRANCH  51  52
ENDBRANCH  49  51
ENDBRANCH  47  48
ENDBRANCH  46  47
ENDBRANCH  44  46
ENDBRANCH  43  44
ENDBRANCH  42  43
ENDBRANCH  12  42
TORSDOF 22
ENDMDL
MODEL 2
REMARK VINA RESULT:      -2.9      2.149      7.291
REMARK  Name = 
REMARK  34 active torsions:
REMARK  status: ('A' for Active; 'I' for Inactive)
REMARK    1  A    between atoms: C_1  and  C_2
REMARK    2  A    between atoms: C_2  and  C_3
REMARK    3  A    between atoms: C_5  and  C_7
REMARK    4  A    between atoms: C_11  and  C_12
REMARK    5  A    between atoms: C_12  and  C_13
REMARK    6  A    between atoms: C_15  and  C_16
REMARK    7  A    between atoms: C_20  and  C_22
REMARK    8  A    between atoms: C_23  and  C_25
REMARK    9  A    between atoms: C_25  and  C_26
REMARK   10  A    between atoms: C_26  and  C_27
REMARK   11  A    between atoms: C_27  and  O_29
REMARK   12  A    between atoms: O_29  and  C_30
REMARK   13  A    between atoms: C_30  and  C_31
REMARK   14  A    between atoms: C_32  and  C_33
REMARK   15  A    between atoms: C_32  and  C_34
REMARK   16  A    between atoms: C_34  and  C_35
REMARK   17  A    between atoms: C_35  and  C_36
REMARK   18  A    between atoms: C_36  and  C_37
REMARK   19  A    between atoms: C_37  and  C_39
REMARK   20  A    between atoms: C_37  and  C_40
REMARK   21  A    between atoms: C_40  and  C_41
REMARK   22  A    between atoms: C_41  and  C_42
REMARK   23  A    between atoms: C_42  and  C_43
REMARK   24  A    between atoms: C_43  and  C_45
REMARK   25  A    between atoms: C_43  and  C_46
REMARK   26  A    between atoms: C_46  and  C_47
REMARK   27  A    between atoms: C_47  and  C_48
REMARK   28  A    between atoms: C_48  and  C_49
REMARK   29  A    between atoms: C_49  and  C_50
REMARK   30  A    between atoms: C_49  and  C_51
REMARK   31  A    between atoms: C_59  and  C_60
REMARK   32  A    between atoms: C_64  and  C_66
REMARK   33  A    between atoms: C_66  and  O_68
REMARK   34  A    between atoms: O_68  and  C_69
REMARK                            x       y       z     vdW  Elec       q    Type
REMARK                         _______ _______ _______ _____ _____    ______ ____
ROOT
ATOM      1  C   UNL     1       7.666  -0.840  25.705  0.00  0.00    +0.000 C 
ATOM      2  C   UNL     1       5.676  -1.747  26.975  0.00  0.00    +0.000 C 
ATOM      3  C   UNL     1       2.041  -3.815  28.012  0.00  0.00    +0.000 C 
ATOM      4  C   UNL     1       1.845  -5.372  27.646  0.00  0.00    +0.000 A 
ATOM      5  N   UNL     1       2.780  -5.562  27.965  0.00  0.00    +0.000 N 
ATOM      6 MG   UNL     1       3.238  -2.260  29.008  0.00  0.00    +0.000 Mg
ATOM      7  N   UNL     1       4.647   1.278  28.234  0.00  0.00    +0.000 N 
ATOM      8  C   UNL     1       3.876   1.898  28.929  0.00  0.00    +0.000 A 
ATOM      9  C   UNL     1       3.346   0.888  29.588  0.00  0.00    +0.000 C 
ATOM     10  C   UNL     1       3.678  -0.664  29.086  0.00  0.00    +0.000 C 
ATOM     11  C   UNL     1       2.970  -0.634  27.670  0.00  0.00    +0.000 C 
ATOM     12  C   UNL     1       3.461  -2.217  26.928  0.00  0.00    +0.000 C 
ATOM     13  C   UNL     1       4.133  -3.153  27.958  0.00  0.00    +0.000 C 
ATOM     14  C   UNL     1       4.090  -5.106  26.797  0.00  0.00    +0.000 C 
ATOM     15  C   UNL     1       4.488  -5.758  25.567  0.00  0.00    +0.000 C 
ATOM     16  C   UNL     1       3.630  -7.425  25.665  0.00  0.00    +0.000 C 
ATOM     17  O   UNL     1       3.418  -8.354  24.875  0.00  0.00    +0.000 OA
ATOM     18  C   UNL     1       2.572  -7.085  26.576  0.00  0.00    +0.000 A 
ATOM     19  C   UNL     1       1.488  -0.689  27.491  0.00  0.00    +0.000 C 
ATOM     20  C   UNL     1       3.695   3.436  29.061  0.00  0.00    +0.000 A 
ATOM     21  C   UNL     1       2.695   4.076  29.759  0.00  0.00    +0.000 C 
ATOM     22  C   UNL     1       4.608   3.996  28.471  0.00  0.00    +0.000 A 
ATOM     23  C   UNL     1       5.378   2.433  27.815  0.00  0.00    +0.000 A 
ATOM     24  C   UNL     1       6.736   2.211  27.116  0.00  0.00    +0.000 C 
ATOM     25  C   UNL     1       6.703   0.715  27.036  0.00  0.00    +0.000 C 
ATOM     26  N   UNL     1       3.793  -2.261  29.207  0.00  0.00    +1.000 N 
ATOM     27  C   UNL     1       3.190  -5.983  27.071  0.00  0.00    +0.000 A 
ATOM     28  C   UNL     1       1.522  -6.950  27.296  0.00  0.00    +0.000 A 
ATOM     29  C   UNL     1       0.443  -8.706  27.085  0.00  0.00    +0.000 C 
ATOM     30  N   UNL     1       5.488  -0.669  27.628  0.00  0.00    +1.000 N 
ATOM     31  C   UNL     1       7.658   0.586  25.994  0.00  0.00    +0.000 C 
ATOM     32  C   UNL     1       6.652   1.144  24.879  0.00  0.00    +0.000 C 
ENDROOT
BRANCH  22  33
ATOM     33  C   UNL     1       5.156   6.070  28.328  0.00  0.00    +0.000 C 
ATOM     34  O   UNL     1       4.409   6.949  28.780  0.00  0.00    +0.000 OA
ATOM     35  C   UNL     1       6.647   6.975  28.291  0.00  0.00    +0.000 C 
ENDBRANCH  22  33
BRANCH   1  37
ATOM     36  C   UNL     1       9.416  -2.044  26.394  0.00  0.00    +0.000 C 
ATOM     37  C   UNL     1       9.441  -0.679  26.074  0.00  0.00    +0.000 C 
ENDBRANCH   1  37
BRANCH  15  38
ATOM     38  C   UNL     1       3.621  -5.255  24.518  0.00  0.00    +0.000 C 
ATOM     39  O   UNL     1       2.398  -4.987  24.539  0.00  0.00    +0.000 OA
BRANCH  38  40
ATOM     40  O   UNL     1       4.269  -5.443  23.447  0.00  0.00    +0.000 OA
ATOM     41  C   UNL     1       5.379  -6.117  23.532  0.00  0.00    +0.000 C 
ENDBRANCH  38  40
ENDBRANCH  15  38
BRANCH  12  42
ATOM     42  C   UNL     1       3.625  -2.305  25.582  0.00  0.00    +0.000 C 
BRANCH  42  43
ATOM     43  C   UNL     1       4.973  -2.404  25.253  0.00  0.00    +0.000 C 
BRANCH  43  44
ATOM     44  C   UNL     1       5.534  -2.567  23.973  0.00  0.00    +0.000 C 
ATOM     45  O   UNL     1       4.850  -2.473  22.962  0.00  0.00    +0.000 OA
BRANCH  44  46
ATOM     46  O   UNL     1       6.735  -3.161  24.025  0.00  0.00    +0.000 OA
BRANCH  46  47
ATOM     47  C   UNL     1       7.780  -3.133  23.109  0.00  0.00    +0.000 C 
BRANCH  47  48
ATOM     48  C   UNL     1       8.203  -1.921  22.237  0.00  0.00    +0.000 C 
ATOM     49  C   UNL     1       9.349  -1.298  22.206  0.00  0.00    +0.000 C 
ATOM     50  C   UNL     1      10.509  -1.856  22.900  0.00  0.00    +0.000 C 
BRANCH  49  51
ATOM     51  C   UNL     1       9.421  -0.089  21.322  0.00  0.00    +0.000 C 
BRANCH  51  52
ATOM     52  C   UNL     1       8.994   0.972  22.067  0.00  0.00    +0.000 C 
BRANCH  52  53
ATOM     53  C   UNL     1      10.151   1.927  23.011  0.00  0.00    +0.000 C 
BRANCH  53  54
ATOM     54  C   UNL     1       9.754   4.222  23.817  0.00  0.00    +0.000 C 
ATOM     55  C   UNL     1      10.847   5.365  23.697  0.00  0.00    +0.000 C 
BRANCH  54  56
ATOM     56  C   UNL     1       8.491   4.701  24.692  0.00  0.00    +0.000 C 
BRANCH  56  57
ATOM     57  C   UNL     1       7.249   4.640  24.107  0.00  0.00    +0.000 C 
BRANCH  57  58
ATOM     58  C   UNL     1       6.085   5.161  25.059  0.00  0.00    +0.000 C 
BRANCH  58  59
ATOM     59  C   UNL     1       4.981   5.222  24.134  0.00  0.00    +0.000 C 
ATOM     60  C   UNL     1       3.713   5.269  24.944  0.00  0.00    +0.000 C 
BRANCH  59  61
ATOM     61  C   UNL     1       4.996   3.966  23.221  0.00  0.00    +0.000 C 
BRANCH  61  62
ATOM     62  C   UNL     1       3.646   3.380  23.228  0.00  0.00    +0.000 C 
BRANCH  62  63
ATOM     63  C   UNL     1       3.089   3.294  21.837  0.00  0.00    +0.000 C 
BRANCH  63  64
ATOM     64  C   UNL     1       1.621   2.900  21.913  0.00  0.00    +0.000 C 
ATOM     65  C   UNL     1       1.141   2.518  20.526  0.00  0.00    +0.000 C 
ATOM     66  C   UNL     1       0.776   4.057  22.446  0.00  0.00    +0.000 C 
ENDBRANCH  63  64
ENDBRANCH  62  63
ENDBRANCH  61  62
ENDBRANCH  59  61
ENDBRANCH  58  59
ENDBRANCH  57  58
ENDBRANCH  56  57
ENDBRANCH  54  56
ENDBRANCH  53  54
ENDBRANCH  52  53
ENDBRANCH  51  52
ENDBRANCH  49  51
ENDBRANCH  47  48
ENDBRANCH  46  47
ENDBRANCH  44  46
ENDBRANCH  43  44
ENDBRANCH  42  43
ENDBRANCH  12  42
TORSDOF 22
ENDMDL
MODEL 3
REMARK VINA RESULT:      -2.3      2.250      7.458
REMARK  Name = 
REMARK  34 active torsions:
REMARK  status: ('A' for Active; 'I' for Inactive)
REMARK    1  A    between atoms: C_1  and  C_2
REMARK    2  A    between atoms: C_2  and  C_3
REMARK    3  A    between atoms: C_5  and  C_7
REMARK    4  A    between atoms: C_11  and  C_12
REMARK    5  A    between atoms: C_12  and  C_13
REMARK    6  A    between atoms: C_15  and  C_16
REMARK    7  A    between atoms: C_20  and  C_22
REMARK    8  A    between atoms: C_23  and  C_25
REMARK    9  A    between atoms: C_25  and  C_26
REMARK   10  A    between atoms: C_26  and  C_27
REMARK   11  A    between atoms: C_27  and  O_29
REMARK   12  A    between atoms: O_29  and  C_30
REMARK   13  A    between atoms: C_30  and  C_31
REMARK   14  A    between atoms: C_32  and  C_33
REMARK   15  A    between atoms: C_32  and  C_34
REMARK   16  A    between atoms: C_34  and  C_35
REMARK   17  A    between atoms: C_35  and  C_36
REMARK   18  A    between atoms: C_36  and  C_37
REMARK   19  A    between atoms: C_37  and  C_39
REMARK   20  A    between atoms: C_37  and  C_40
REMARK   21  A    between atoms: C_40  and  C_41
REMARK   22  A    between atoms: C_41  and  C_42
REMARK   23  A    between atoms: C_42  and  C_43
REMARK   24  A    between atoms: C_43  and  C_45
REMARK   25  A    between atoms: C_43  and  C_46
REMARK   26  A    between atoms: C_46  and  C_47
REMARK   27  A    between atoms: C_47  and  C_48
REMARK   28  A    between atoms: C_48  and  C_49
REMARK   29  A    between atoms: C_49  and  C_50
REMARK   30  A    between atoms: C_49  and  C_51
REMARK   31  A    between atoms: C_59  and  C_60
REMARK   32  A    between atoms: C_64  and  C_66
REMARK   33  A    between atoms: C_66  and  O_68
REMARK   34  A    between atoms: O_68  and  C_69
REMARK                            x       y       z     vdW  Elec       q    Type
REMARK                         _______ _______ _______ _____ _____    ______ ____
ROOT
ATOM      1  C   UNL     1       7.296  -0.621  26.670  0.00  0.00    +0.000 C 
ATOM      2  C   UNL     1       5.237  -1.718  27.643  0.00  0.00    +0.000 C 
ATOM      3  C   UNL     1       1.639  -4.041  28.124  0.00  0.00    +0.000 C 
ATOM      4  C   UNL     1       1.576  -5.575  27.636  0.00  0.00    +0.000 A 
ATOM      5  N   UNL     1       2.480  -5.739  28.045  0.00  0.00    +0.000 N 
ATOM      6 MG   UNL     1       2.625  -2.502  29.349  0.00  0.00    +0.000 Mg
ATOM      7  N   UNL     1       3.899   1.150  28.975  0.00  0.00    +0.000 N 
ATOM      8  C   UNL     1       3.021   1.678  29.618  0.00  0.00    +0.000 A 
ATOM      9  C   UNL     1       2.483   0.597  30.144  0.00  0.00    +0.000 C 
ATOM     10  C   UNL     1       2.959  -0.895  29.582  0.00  0.00    +0.000 C 
ATOM     11  C   UNL     1       2.410  -0.799  28.100  0.00  0.00    +0.000 C 
ATOM     12  C   UNL     1       3.072  -2.297  27.315  0.00  0.00    +0.000 C 
ATOM     13  C   UNL     1       3.681  -3.270  28.351  0.00  0.00    +0.000 C 
ATOM     14  C   UNL     1       3.880  -5.133  27.065  0.00  0.00    +0.000 C 
ATOM     15  C   UNL     1       4.449  -5.673  25.848  0.00  0.00    +0.000 C 
ATOM     16  C   UNL     1       3.685  -7.384  25.737  0.00  0.00    +0.000 C 
ATOM     17  O   UNL     1       3.616  -8.264  24.869  0.00  0.00    +0.000 OA
ATOM     18  C   UNL     1       2.516  -7.167  26.544  0.00  0.00    +0.000 A 
ATOM     19  C   UNL     1       0.962  -0.918  27.751  0.00  0.00    +0.000 C 
ATOM     20  C   UNL     1       2.736   3.192  29.830  0.00  0.00    +0.000 A 
ATOM     21  C   UNL     1       1.630   3.727  30.451  0.00  0.00    +0.000 C 
ATOM     22  C   UNL     1       3.673   3.839  29.385  0.00  0.00    +0.000 A 
ATOM     23  C   UNL     1       4.602   2.369  28.718  0.00  0.00    +0.000 A 
ATOM     24  C   UNL     1       6.039   2.268  28.164  0.00  0.00    +0.000 C 
ATOM     25  C   UNL     1       6.104   0.783  27.983  0.00  0.00    +0.000 C 
ATOM     26  N   UNL     1       3.154  -2.489  29.609  0.00  0.00    +1.000 N 
ATOM     27  C   UNL     1       3.009  -6.072  27.177  0.00  0.00    +0.000 A 
ATOM     28  C   UNL     1       1.387  -7.137  27.147  0.00  0.00    +0.000 A 
ATOM     29  C   UNL     1       0.443  -8.927  26.700  0.00  0.00    +0.000 C 
ATOM     30  N   UNL     1       4.915  -0.702  28.341  0.00  0.00    +1.000 N 
ATOM     31  C   UNL     1       7.172   0.778  27.049  0.00  0.00    +0.000 C 
ATOM     32  C   UNL     1       6.262   1.363  25.867  0.00  0.00    +0.000 C 
ENDROOT
BRANCH  22  33
ATOM     33  C   UNL     1       4.110   5.942  29.442  0.00  0.00    +0.000 C 
ATOM     34  O   UNL     1       3.193   6.776  29.413  0.00  0.00    +0.000 OA
ATOM     35  C   UNL     1       5.364   6.947  30.124  0.00  0.00    +0.000 C 
ENDBRANCH  22  33
BRANCH   1  37
ATOM     36  C   UNL     1       9.390  -1.222  26.179  0.00  0.00    +0.000 C 
ATOM     37  C   UNL     1       9.008  -0.396  27.246  0.00  0.00    +0.000 C 
ENDBRANCH   1  37
BRANCH  15  38
ATOM     38  C   UNL     1       3.673  -5.140  24.743  0.00  0.00    +0.000 C 
ATOM     39  O   UNL     1       2.434  -5.018  24.610  0.00  0.00    +0.000 OA
BRANCH  38  40
ATOM     40  O   UNL     1       4.479  -5.115  23.767  0.00  0.00    +0.000 OA
ATOM     41  C   UNL     1       4.068  -5.620  22.640  0.00  0.00    +0.000 C 
ENDBRANCH  38  40
ENDBRANCH  15  38
BRANCH  12  42
ATOM     42  C   UNL     1       3.386  -2.279  25.994  0.00  0.00    +0.000 C 
BRANCH  42  43
ATOM     43  C   UNL     1       4.721  -1.934  25.807  0.00  0.00    +0.000 C 
BRANCH  43  44
ATOM     44  C   UNL     1       5.599  -2.406  24.815  0.00  0.00    +0.000 C 
ATOM     45  O   UNL     1       6.451  -3.249  25.069  0.00  0.00    +0.000 OA
BRANCH  44  46
ATOM     46  O   UNL     1       5.623  -1.604  23.742  0.00  0.00    +0.000 OA
BRANCH  46  47
ATOM     47  C   UNL     1       6.582  -1.482  22.744  0.00  0.00    +0.000 C 
BRANCH  47  48
ATOM     48  C   UNL     1       8.003  -0.879  22.907  0.00  0.00    +0.000 C 
ATOM     49  C   UNL     1       8.405   0.340  22.675  0.00  0.00    +0.000 C 
ATOM     50  C   UNL     1       7.430   1.398  22.413  0.00  0.00    +0.000 C 
BRANCH  49  51
ATOM     51  C   UNL     1       9.874   0.594  22.833  0.00  0.00    +0.000 C 
BRANCH  51  52
ATOM     52  C   UNL     1      10.079   1.917  22.563  0.00  0.00    +0.000 C 
BRANCH  52  53
ATOM     53  C   UNL     1      10.389   3.063  23.879  0.00  0.00    +0.000 C 
BRANCH  53  54
ATOM     54  C   UNL     1      10.083   5.503  23.721  0.00  0.00    +0.000 C 
ATOM     55  C   UNL     1      10.800   6.514  24.710  0.00  0.00    +0.000 C 
BRANCH  54  56
ATOM     56  C   UNL     1       9.011   6.252  22.783  0.00  0.00    +0.000 C 
BRANCH  56  57
ATOM     57  C   UNL     1       7.711   6.315  23.224  0.00  0.00    +0.000 C 
BRANCH  57  58
ATOM     58  C   UNL     1       6.730   5.365  22.407  0.00  0.00    +0.000 C 
BRANCH  58  59
ATOM     59  C   UNL     1       5.734   5.075  23.408  0.00  0.00    +0.000 C 
ATOM     60  C   UNL     1       4.804   4.038  22.836  0.00  0.00    +0.000 C 
BRANCH  59  61
ATOM     61  C   UNL     1       4.953   6.371  23.757  0.00  0.00    +0.000 C 
BRANCH  61  62
ATOM     62  C   UNL     1       4.881   6.479  25.224  0.00  0.00    +0.000 C 
BRANCH  62  63
ATOM     63  C   UNL     1       5.320   5.202  25.879  0.00  0.00    +0.000 C 
BRANCH  63  64
ATOM     64  C   UNL     1       6.483   5.498  26.815  0.00  0.00    +0.000 C 
ATOM     65  C   UNL     1       6.735   6.993  26.830  0.00  0.00    +0.000 C 
ATOM     66  C   UNL     1       7.747   4.770  26.356  0.00  0.00    +0.000 C 
ENDBRANCH  63  64
ENDBRANCH  62  63
ENDBRANCH  61  62
ENDBRANCH  59  61
ENDBRANCH  58  59
ENDBRANCH  57  58
ENDBRANCH  56  57
ENDBRANCH  54  56
ENDBRANCH  53  54
ENDBRANCH  52  53
ENDBRANCH  51  52
ENDBRANCH  49  51
ENDBRANCH  47  48
ENDBRANCH  46  47
ENDBRANCH  44  46
ENDBRANCH  43  44
ENDBRANCH  42  43
ENDBRANCH  12  42
TORSDOF 22
ENDMDL
MODEL 4
REMARK VINA RESULT:      -2.0      2.348      7.942
REMARK  Name = 
REMARK  34 active torsions:
REMARK  status: ('A' for Active; 'I' for Inactive)
REMARK    1  A    between atoms: C_1  and  C_2
REMARK    2  A    between atoms: C_2  and  C_3
REMARK    3  A    between atoms: C_5  and  C_7
REMARK    4  A    between atoms: C_11  and  C_12
REMARK    5  A    between atoms: C_12  and  C_13
REMARK    6  A    between atoms: C_15  and  C_16
REMARK    7  A    between atoms: C_20  and  C_22
REMARK    8  A    between atoms: C_23  and  C_25
REMARK    9  A    between atoms: C_25  and  C_26
REMARK   10  A    between atoms: C_26  and  C_27
REMARK   11  A    between atoms: C_27  and  O_29
REMARK   12  A    between atoms: O_29  and  C_30
REMARK   13  A    between atoms: C_30  and  C_31
REMARK   14  A    between atoms: C_32  and  C_33
REMARK   15  A    between atoms: C_32  and  C_34
REMARK   16  A    between atoms: C_34  and  C_35
REMARK   17  A    between atoms: C_35  and  C_36
REMARK   18  A    between atoms: C_36  and  C_37
REMARK   19  A    between atoms: C_37  and  C_39
REMARK   20  A    between atoms: C_37  and  C_40
REMARK   21  A    between atoms: C_40  and  C_41
REMARK   22  A    between atoms: C_41  and  C_42
REMARK   23  A    between atoms: C_42  and  C_43
REMARK   24  A    between atoms: C_43  and  C_45
REMARK   25  A    between atoms: C_43  and  C_46
REMARK   26  A    between atoms: C_46  and  C_47
REMARK   27  A    between atoms: C_47  and  C_48
REMARK   28  A    between atoms: C_48  and  C_49
REMARK   29  A    between atoms: C_49  and  C_50
REMARK   30  A    between atoms: C_49  and  C_51
REMARK   31  A    between atoms: C_59  and  C_60
REMARK   32  A    between atoms: C_64  and  C_66
REMARK   33  A    between atoms: C_66  and  O_68
REMARK   34  A    between atoms: O_68  and  C_69
REMARK                            x       y       z     vdW  Elec       q    Type
REMARK                         _______ _______ _______ _____ _____    ______ ____
ROOT
ATOM      1  C   UNL     1       7.453  -0.519  26.714  0.00  0.00    +0.000 C 
ATOM      2  C   UNL     1       5.353  -1.616  27.599  0.00  0.00    +0.000 C 
ATOM      3  C   UNL     1       1.712  -3.899  27.914  0.00  0.00    +0.000 C 
ATOM      4  C   UNL     1       1.642  -5.416  27.376  0.00  0.00    +0.000 A 
ATOM      5  N   UNL     1       2.532  -5.606  27.803  0.00  0.00    +0.000 N 
ATOM      6 MG   UNL     1       2.688  -2.414  29.211  0.00  0.00    +0.000 Mg
ATOM      7  N   UNL     1       4.022   1.229  28.986  0.00  0.00    +0.000 N 
ATOM      8  C   UNL     1       3.134   1.749  29.623  0.00  0.00    +0.000 A 
ATOM      9  C   UNL     1       2.568   0.661  30.101  0.00  0.00    +0.000 C 
ATOM     10  C   UNL     1       3.037  -0.820  29.504  0.00  0.00    +0.000 C 
ATOM     11  C   UNL     1       2.529  -0.670  28.012  0.00  0.00    +0.000 C 
ATOM     12  C   UNL     1       3.190  -2.152  27.198  0.00  0.00    +0.000 C 
ATOM     13  C   UNL     1       3.759  -3.165  28.217  0.00  0.00    +0.000 C 
ATOM     14  C   UNL     1       3.965  -4.991  26.879  0.00  0.00    +0.000 C 
ATOM     15  C   UNL     1       4.558  -5.500  25.660  0.00  0.00    +0.000 C 
ATOM     16  C   UNL     1       3.774  -7.196  25.476  0.00  0.00    +0.000 C 
ATOM     17  O   UNL     1       3.715  -8.047  24.578  0.00  0.00    +0.000 OA
ATOM     18  C   UNL     1       2.587  -6.987  26.259  0.00  0.00    +0.000 A 
ATOM     19  C   UNL     1       1.089  -0.756  27.622  0.00  0.00    +0.000 C 
ATOM     20  C   UNL     1       2.865   3.259  29.876  0.00  0.00    +0.000 A 
ATOM     21  C   UNL     1       1.751   3.791  30.485  0.00  0.00    +0.000 C 
ATOM     22  C   UNL     1       3.822   3.906  29.475  0.00  0.00    +0.000 A 
ATOM     23  C   UNL     1       4.747   2.444  28.786  0.00  0.00    +0.000 A 
ATOM     24  C   UNL     1       6.197   2.340  28.266  0.00  0.00    +0.000 C 
ATOM     25  C   UNL     1       6.246   0.860  28.040  0.00  0.00    +0.000 C 
ATOM     26  N   UNL     1       3.210  -2.417  29.486  0.00  0.00    +1.000 N 
ATOM     27  C   UNL     1       3.079  -5.920  26.938  0.00  0.00    +0.000 A 
ATOM     28  C   UNL     1       1.443  -6.960  26.833  0.00  0.00    +0.000 A 
ATOM     29  C   UNL     1       0.487  -8.720  26.307  0.00  0.00    +0.000 C 
ATOM     30  N   UNL     1       5.028  -0.617  28.320  0.00  0.00    +1.000 N 
ATOM     31  C   UNL     1       7.338   0.869  27.134  0.00  0.00    +0.000 C 
ATOM     32  C   UNL     1       6.468   1.504  25.948  0.00  0.00    +0.000 C 
ENDROOT
BRANCH  22  33
ATOM     33  C   UNL     1       4.287   6.001  29.610  0.00  0.00    +0.000 C 
ATOM     34  O   UNL     1       3.563   6.763  30.267  0.00  0.00    +0.000 OA
ATOM     35  C   UNL     1       5.736   6.971  29.572  0.00  0.00    +0.000 C 
ENDBRANCH  22  33
BRANCH   1  37
ATOM     36  C   UNL     1       9.572  -0.917  26.134  0.00  0.00    +0.000 C 
ATOM     37  C   UNL     1       9.152  -0.337  27.341  0.00  0.00    +0.000 C 
ENDBRANCH   1  37
BRANCH  15  38
ATOM     38  C   UNL     1       3.818  -4.922  24.552  0.00  0.00    +0.000 C 
ATOM     39  O   UNL     1       2.639  -4.505  24.498  0.00  0.00    +0.000 OA
BRANCH  38  40
ATOM     40  O   UNL     1       4.496  -5.217  23.525  0.00  0.00    +0.000 OA
ATOM     41  C   UNL     1       4.632  -4.296  22.615  0.00  0.00    +0.000 C 
ENDBRANCH  38  40
ENDBRANCH  15  38
BRANCH  12  42
ATOM     42  C   UNL     1       3.539  -2.098  25.886  0.00  0.00    +0.000 C 
BRANCH  42  43
ATOM     43  C   UNL     1       4.922  -2.050  25.743  0.00  0.00    +0.000 C 
BRANCH  43  44
ATOM     44  C   UNL     1       5.656  -1.534  24.659  0.00  0.00    +0.000 C 
ATOM     45  O   UNL     1       5.317  -0.500  24.097  0.00  0.00    +0.000 OA
BRANCH  44  46
ATOM     46  O   UNL     1       6.483  -2.448  24.134  0.00  0.00    +0.000 OA
BRANCH  46  47
ATOM     47  C   UNL     1       7.639  -2.273  23.383  0.00  0.00    +0.000 C 
BRANCH  47  48
ATOM     48  C   UNL     1       8.146  -0.936  22.777  0.00  0.00    +0.000 C 
ATOM     49  C   UNL     1       9.371  -0.567  22.524  0.00  0.00    +0.000 C 
ATOM     50  C   UNL     1      10.463  -1.537  22.602  0.00  0.00    +0.000 C 
BRANCH  49  51
ATOM     51  C   UNL     1       9.550   0.836  22.027  0.00  0.00    +0.000 C 
BRANCH  51  52
ATOM     52  C   UNL     1       8.668   1.616  22.718  0.00  0.00    +0.000 C 
BRANCH  52  53
ATOM     53  C   UNL     1       7.380   2.485  21.864  0.00  0.00    +0.000 C 
BRANCH  53  54
ATOM     54  C   UNL     1       5.482   3.615  22.956  0.00  0.00    +0.000 C 
ATOM     55  C   UNL     1       3.991   3.092  22.820  0.00  0.00    +0.000 C 
BRANCH  54  56
ATOM     56  C   UNL     1       5.543   5.043  23.696  0.00  0.00    +0.000 C 
BRANCH  56  57
ATOM     57  C   UNL     1       6.783   5.586  23.934  0.00  0.00    +0.000 C 
BRANCH  57  58
ATOM     58  C   UNL     1       7.577   4.842  25.095  0.00  0.00    +0.000 C 
BRANCH  58  59
ATOM     59  C   UNL     1       8.371   5.924  25.621  0.00  0.00    +0.000 C 
ATOM     60  C   UNL     1       7.443   7.078  25.891  0.00  0.00    +0.000 C 
BRANCH  59  61
ATOM     61  C   UNL     1       9.453   6.328  24.584  0.00  0.00    +0.000 C 
BRANCH  61  62
ATOM     62  C   UNL     1      10.748   5.805  25.049  0.00  0.00    +0.000 C 
BRANCH  62  63
ATOM     63  C   UNL     1      11.870   6.292  24.178  0.00  0.00    +0.000 C 
BRANCH  63  64
ATOM     64  C   UNL     1      11.962   5.405  22.945  0.00  0.00    +0.000 C 
ATOM     65  C   UNL     1      11.729   3.964  23.355  0.00  0.00    +0.000 C 
ATOM     66  C   UNL     1      13.335   5.534  22.285  0.00  0.00    +0.000 C 
ENDBRANCH  63  64
ENDBRANCH  62  63
ENDBRANCH  61  62
ENDBRANCH  59  61
ENDBRANCH  58  59
ENDBRANCH  57  58
ENDBRANCH  56  57
ENDBRANCH  54  56
ENDBRANCH  53  54
ENDBRANCH  52  53
ENDBRANCH  51  52
ENDBRANCH  49  51
ENDBRANCH  47  48
ENDBRANCH  46  47
ENDBRANCH  44  46
ENDBRANCH  43  44
ENDBRANCH  42  43
ENDBRANCH  12  42
TORSDOF 22
ENDMDL
MODEL 5
REMARK VINA RESULT:      -1.3      2.391      7.558
REMARK  Name = 
REMARK  34 active torsions:
REMARK  status: ('A' for Active; 'I' for Inactive)
REMARK    1  A    between atoms: C_1  and  C_2
REMARK    2  A    between atoms: C_2  and  C_3
REMARK    3  A    between atoms: C_5  and  C_7
REMARK    4  A    between atoms: C_11  and  C_12
REMARK    5  A    between atoms: C_12  and  C_13
REMARK    6  A    between atoms: C_15  and  C_16
REMARK    7  A    between atoms: C_20  and  C_22
REMARK    8  A    between atoms: C_23  and  C_25
REMARK    9  A    between atoms: C_25  and  C_26
REMARK   10  A    between atoms: C_26  and  C_27
REMARK   11  A    between atoms: C_27  and  O_29
REMARK   12  A    between atoms: O_29  and  C_30
REMARK   13  A    between atoms: C_30  and  C_31
REMARK   14  A    between atoms: C_32  and  C_33
REMARK   15  A    between atoms: C_32  and  C_34
REMARK   16  A    between atoms: C_34  and  C_35
REMARK   17  A    between atoms: C_35  and  C_36
REMARK   18  A    between atoms: C_36  and  C_37
REMARK   19  A    between atoms: C_37  and  C_39
REMARK   20  A    between atoms: C_37  and  C_40
REMARK   21  A    between atoms: C_40  and  C_41
REMARK   22  A    between atoms: C_41  and  C_42
REMARK   23  A    between atoms: C_42  and  C_43
REMARK   24  A    between atoms: C_43  and  C_45
REMARK   25  A    between atoms: C_43  and  C_46
REMARK   26  A    between atoms: C_46  and  C_47
REMARK   27  A    between atoms: C_47  and  C_48
REMARK   28  A    between atoms: C_48  and  C_49
REMARK   29  A    between atoms: C_49  and  C_50
REMARK   30  A    between atoms: C_49  and  C_51
REMARK   31  A    between atoms: C_59  and  C_60
REMARK   32  A    between atoms: C_64  and  C_66
REMARK   33  A    between atoms: C_66  and  O_68
REMARK   34  A    between atoms: O_68  and  C_69
REMARK                            x       y       z     vdW  Elec       q    Type
REMARK                         _______ _______ _______ _____ _____    ______ ____
ROOT
ATOM      1  C   UNL     1       6.171  -2.457  22.937  0.00  0.00    +0.000 C 
ATOM      2  C   UNL     1       6.264  -0.177  24.025  0.00  0.00    +0.000 C 
ATOM      3  C   UNL     1       7.664   3.462  25.861  0.00  0.00    +0.000 C 
ATOM      4  C   UNL     1       8.852   4.319  25.192  0.00  0.00    +0.000 A 
ATOM      5  N   UNL     1       8.424   4.204  24.289  0.00  0.00    +0.000 N 
ATOM      6 MG   UNL     1       5.680   2.531  25.659  0.00  0.00    +0.000 Mg
ATOM      7  N   UNL     1       3.949  -0.852  26.469  0.00  0.00    +0.000 N 
ATOM      8  C   UNL     1       3.300  -0.462  27.413  0.00  0.00    +0.000 A 
ATOM      9  C   UNL     1       3.488   0.833  27.262  0.00  0.00    +0.000 C 
ATOM     10  C   UNL     1       4.622   1.359  26.163  0.00  0.00    +0.000 C 
ATOM     11  C   UNL     1       5.931   0.794  26.852  0.00  0.00    +0.000 C 
ATOM     12  C   UNL     1       7.222   1.118  25.618  0.00  0.00    +0.000 C 
ATOM     13  C   UNL     1       6.718   2.039  24.483  0.00  0.00    +0.000 C 
ATOM     14  C   UNL     1       8.700   2.588  23.515  0.00  0.00    +0.000 C 
ATOM     15  C   UNL     1       9.898   2.060  22.897  0.00  0.00    +0.000 C 
ATOM     16  C   UNL     1      10.982   3.579  22.693  0.00  0.00    +0.000 C 
ATOM     17  O   UNL     1      12.169   3.782  22.406  0.00  0.00    +0.000 OA
ATOM     18  C   UNL     1      10.401   4.414  23.708  0.00  0.00    +0.000 A 
ATOM     19  C   UNL     1       6.548   1.404  28.068  0.00  0.00    +0.000 C 
ATOM     20  C   UNL     1       2.417  -1.277  28.400  0.00  0.00    +0.000 A 
ATOM     21  C   UNL     1       1.824  -0.792  29.544  0.00  0.00    +0.000 C 
ATOM     22  C   UNL     1       2.304  -2.420  27.980  0.00  0.00    +0.000 A 
ATOM     23  C   UNL     1       3.433  -2.184  26.518  0.00  0.00    +0.000 A 
ATOM     24  C   UNL     1       3.693  -3.102  25.305  0.00  0.00    +0.000 C 
ATOM     25  C   UNL     1       4.574  -2.183  24.516  0.00  0.00    +0.000 C 
ATOM     26  N   UNL     1       5.357   2.399  25.183  0.00  0.00    +1.000 N 
ATOM     27  C   UNL     1       9.230   3.731  23.769  0.00  0.00    +0.000 A 
ATOM     28  C   UNL     1      10.079   5.257  24.616  0.00  0.00    +0.000 A 
ATOM     29  C   UNL     1      11.520   6.745  24.565  0.00  0.00    +0.000 C 
ATOM     30  N   UNL     1       5.225  -0.374  24.736  0.00  0.00    +1.000 N 
ATOM     31  C   UNL     1       5.175  -3.184  23.710  0.00  0.00    +0.000 C 
ATOM     32  C   UNL     1       6.051  -3.762  24.921  0.00  0.00    +0.000 C 
ENDROOT
BRANCH  22  33
ATOM     33  C   UNL     1       1.128  -4.082  28.669  0.00  0.00    +0.000 C 
ATOM     34  O   UNL     1       0.850  -5.016  27.903  0.00  0.00    +0.000 OA
ATOM     35  C   UNL     1       0.881  -4.901  30.191  0.00  0.00    +0.000 C 
ENDBRANCH  22  33
BRANCH   1  37
ATOM     36  C   UNL     1       6.462  -3.780  21.162  0.00  0.00    +0.000 C 
ATOM     37  C   UNL     1       5.260  -3.154  21.524  0.00  0.00    +0.000 C 
ENDBRANCH   1  37
BRANCH  15  38
ATOM     38  C   UNL     1      10.711   1.494  23.958  0.00  0.00    +0.000 C 
ATOM     39  O   UNL     1      11.493   2.051  24.762  0.00  0.00    +0.000 OA
BRANCH  38  40
ATOM     40  O   UNL     1      10.738   0.252  23.715  0.00  0.00    +0.000 OA
ATOM     41  C   UNL     1      10.212  -0.147  22.593  0.00  0.00    +0.000 C 
ENDBRANCH  38  40
ENDBRANCH  15  38
BRANCH  12  42
ATOM     42  C   UNL     1       8.277   0.269  25.511  0.00  0.00    +0.000 C 
BRANCH  42  43
ATOM     43  C   UNL     1       8.196  -0.744  26.460  0.00  0.00    +0.000 C 
BRANCH  43  44
ATOM     44  C   UNL     1       8.582  -2.089  26.316  0.00  0.00    +0.000 C 
ATOM     45  O   UNL     1       9.095  -2.496  25.281  0.00  0.00    +0.000 OA
BRANCH  44  46
ATOM     46  O   UNL     1       8.016  -2.875  27.242  0.00  0.00    +0.000 OA
BRANCH  46  47
ATOM     47  C   UNL     1       6.673  -3.073  27.539  0.00  0.00    +0.000 C 
BRANCH  47  48
ATOM     48  C   UNL     1       6.023  -4.400  28.014  0.00  0.00    +0.000 C 
ATOM     49  C   UNL     1       6.416  -5.625  27.796  0.00  0.00    +0.000 C 
ATOM     50  C   UNL     1       7.729  -5.883  27.206  0.00  0.00    +0.000 C 
BRANCH  49  51
ATOM     51  C   UNL     1       5.515  -6.709  28.307  0.00  0.00    +0.000 C 
BRANCH  51  52
ATOM     52  C   UNL     1       4.459  -6.094  28.915  0.00  0.00    +0.000 C 
BRANCH  52  53
ATOM     53  C   UNL     1       3.459  -6.974  30.083  0.00  0.00    +0.000 C 
BRANCH  53  54
ATOM     54  C   UNL     1       1.510  -8.364  29.501  0.00  0.00    +0.000 C 
ATOM     55  C   UNL     1       1.066  -9.612  30.373  0.00  0.00    +0.000 C 
BRANCH  54  56
ATOM     56  C   UNL     1       0.671  -8.273  28.130  0.00  0.00    +0.000 C 
BRANCH  56  57
ATOM     57  C   UNL     1       0.759  -9.329  27.256  0.00  0.00    +0.000 C 
BRANCH  57  58
ATOM     58  C   UNL     1       1.136  -8.883  25.776  0.00  0.00    +0.000 C 
BRANCH  58  59
ATOM     59  C   UNL     1       1.052  -7.448  25.893  0.00  0.00    +0.000 C 
ATOM     60  C   UNL     1       0.447  -6.924  24.618  0.00  0.00    +0.000 C 
BRANCH  59  61
ATOM     61  C   UNL     1       2.473  -6.859  26.102  0.00  0.00    +0.000 C 
BRANCH  61  62
ATOM     62  C   UNL     1       3.432  -7.715  25.385  0.00  0.00    +0.000 C 
BRANCH  62  63
ATOM     63  C   UNL     1       4.599  -6.914  24.885  0.00  0.00    +0.000 C 
BRANCH  63  64
ATOM     64  C   UNL     1       4.590  -6.921  23.363  0.00  0.00    +0.000 C 
ATOM     65  C   UNL     1       5.962  -6.512  22.861  0.00  0.00    +0.000 C 
ATOM     66  C   UNL     1       3.538  -5.953  22.822  0.00  0.00    +0.000 C 
ENDBRANCH  63  64
ENDBRANCH  62  63
ENDBRANCH  61  62
ENDBRANCH  59  61
ENDBRANCH  58  59
ENDBRANCH  57  58
ENDBRANCH  56  57
ENDBRANCH  54  56
ENDBRANCH  53  54
ENDBRANCH  52  53
ENDBRANCH  51  52
ENDBRANCH  49  51
ENDBRANCH  47  48
ENDBRANCH  46  47
ENDBRANCH  44  46
ENDBRANCH  43  44
ENDBRANCH  42  43
ENDBRANCH  12  42
TORSDOF 22
ENDMDL
