MODEL 1
REMARK VINA RESULT:      -8.0      0.000      0.000
REMARK  Name = 
REMARK  4 active torsions:
REMARK  status: ('A' for Active; 'I' for Inactive)
REMARK    1  A    between atoms: C_2  and  C_6
REMARK    2  A    between atoms: C_11  and  C_13
REMARK    3  A    between atoms: C_17  and  C_20
REMARK    4  A    between atoms: C_18  and  O_19
REMARK                            x       y       z     vdW  Elec       q    Type
REMARK                         _______ _______ _______ _____ _____    ______ ____
ROOT
ATOM      1  C   UNL     1      11.230   4.316  23.486  0.00  0.00    +0.080 A 
ATOM      2  C   UNL     1       9.926   4.793  23.726  0.00  0.00    +0.058 A 
ATOM      3 CL   UNL     1       9.502   6.450  23.442  0.00  0.00    -0.083 Cl
ATOM      4  C   UNL     1       8.896   3.960  24.195  0.00  0.00    +0.047 A 
ATOM      5  C   UNL     1       9.204   2.615  24.421  0.00  0.00    +0.048 A 
ATOM      6  N   UNL     1       8.408   1.564  24.821  0.00  0.00    -0.354 N 
ATOM      7  H   UNL     1       7.412   1.608  25.007  0.00  0.00    +0.166 HD
ATOM      8  C   UNL     1       9.116   0.380  24.835  0.00  0.00    +0.051 A 
ATOM      9  C   UNL     1      10.424   0.719  24.528  0.00  0.00    +0.036 A 
ATOM     10  C   UNL     1      10.478   2.103  24.224  0.00  0.00    +0.001 A 
ATOM     11  C   UNL     1      11.495   2.957  23.755  0.00  0.00    +0.027 A 
ENDROOT
BRANCH   1  15
ATOM     12  N   UNL     1      12.643   5.079  21.667  0.00  0.00    -0.250 N 
ATOM     13  H   UNL     1      12.200   4.397  21.060  0.00  0.00    +0.288 HD
ATOM     14  H   UNL     1      13.351   5.668  21.248  0.00  0.00    +0.288 HD
ATOM     15  C   UNL     1      12.321   5.160  22.944  0.00  0.00    +0.268 C 
ATOM     16  N   UNL     1      12.953   6.026  23.707  0.00  0.00    -0.288 N 
ATOM     17  H   UNL     1      13.698   6.620  23.372  0.00  0.00    +0.301 HD
ATOM     18  H   UNL     1      12.728   6.085  24.697  0.00  0.00    +0.301 HD
ENDBRANCH   1  15
BRANCH   8  19
ATOM     19  C   UNL     1       8.485  -0.945  25.025  0.00  0.00    +0.040 A 
ATOM     20  C   UNL     1       7.906  -1.694  23.969  0.00  0.00    +0.134 A 
ATOM     21  C   UNL     1       7.529  -3.056  24.123  0.00  0.00    +0.024 A 
ATOM     22  C   UNL     1       7.622  -3.592  25.424  0.00  0.00    +0.012 A 
ATOM     23  C   UNL     1       8.089  -2.839  26.500  0.00  0.00    +0.001 A 
ATOM     24  C   UNL     1       8.537  -1.538  26.294  0.00  0.00    +0.013 A 
BRANCH  21  25
ATOM     25  C   UNL     1       7.144  -3.955  22.995  0.00  0.00    -0.014 A 
ATOM     26  C   UNL     1       7.535  -5.308  22.961  0.00  0.00    +0.008 A 
ATOM     27  C   UNL     1       7.119  -6.171  21.941  0.00  0.00    +0.001 A 
ATOM     28  C   UNL     1       6.267  -5.714  20.944  0.00  0.00    +0.000 A 
ATOM     29  C   UNL     1       5.847  -4.390  20.957  0.00  0.00    +0.001 A 
ATOM     30  C   UNL     1       6.293  -3.519  21.959  0.00  0.00    +0.008 A 
ENDBRANCH  21  25
BRANCH  20  31
ATOM     31  O   UNL     1       7.685  -1.046  22.769  0.00  0.00    -0.505 OA
ATOM     32  H   UNL     1       6.975  -1.542  22.316  0.00  0.00    +0.292 HD
ENDBRANCH  20  31
ENDBRANCH   8  19
TORSDOF 4
ENDMDL
MODEL 2
REMARK VINA RESULT:      -7.9      3.896      8.952
REMARK  Name = 
REMARK  4 active torsions:
REMARK  status: ('A' for Active; 'I' for Inactive)
REMARK    1  A    between atoms: C_2  and  C_6
REMARK    2  A    between atoms: C_11  and  C_13
REMARK    3  A    between atoms: C_17  and  C_20
REMARK    4  A    between atoms: C_18  and  O_19
REMARK                            x       y       z     vdW  Elec       q    Type
REMARK                         _______ _______ _______ _____ _____    ______ ____
ROOT
ATOM      1  C   UNL     1       8.260  -4.111  24.885  0.00  0.00    +0.080 A 
ATOM      2  C   UNL     1       7.091  -4.157  24.099  0.00  0.00    +0.058 A 
ATOM      3 CL   UNL     1       6.168  -5.615  23.933  0.00  0.00    -0.083 Cl
ATOM      4  C   UNL     1       6.601  -3.030  23.417  0.00  0.00    +0.047 A 
ATOM      5  C   UNL     1       7.316  -1.835  23.542  0.00  0.00    +0.048 A 
ATOM      6  N   UNL     1       7.060  -0.576  23.045  0.00  0.00    -0.354 N 
ATOM      7  H   UNL     1       6.253  -0.306  22.493  0.00  0.00    +0.166 HD
ATOM      8  C   UNL     1       7.997   0.335  23.488  0.00  0.00    +0.051 A 
ATOM      9  C   UNL     1       8.926  -0.401  24.207  0.00  0.00    +0.036 A 
ATOM     10  C   UNL     1       8.485  -1.746  24.283  0.00  0.00    +0.001 A 
ATOM     11  C   UNL     1       8.959  -2.888  24.957  0.00  0.00    +0.027 A 
ENDROOT
BRANCH   1  15
ATOM     12  N   UNL     1       8.155  -5.650  26.758  0.00  0.00    -0.250 N 
ATOM     13  H   UNL     1       7.374  -5.119  27.128  0.00  0.00    +0.288 HD
ATOM     14  H   UNL     1       8.446  -6.461  27.288  0.00  0.00    +0.288 HD
ATOM     15  C   UNL     1       8.772  -5.269  25.655  0.00  0.00    +0.268 C 
ATOM     16  N   UNL     1       9.811  -5.958  25.235  0.00  0.00    -0.288 N 
ATOM     17  H   UNL     1      10.185  -6.755  25.730  0.00  0.00    +0.301 HD
ATOM     18  H   UNL     1      10.306  -5.664  24.397  0.00  0.00    +0.301 HD
ENDBRANCH   1  15
BRANCH   8  19
ATOM     19  C   UNL     1       7.870   1.796  23.290  0.00  0.00    +0.040 A 
ATOM     20  C   UNL     1       8.685   2.749  23.953  0.00  0.00    +0.134 A 
ATOM     21  C   UNL     1       8.716   4.117  23.570  0.00  0.00    +0.024 A 
ATOM     22  C   UNL     1       7.786   4.518  22.590  0.00  0.00    +0.012 A 
ATOM     23  C   UNL     1       6.900   3.616  22.001  0.00  0.00    +0.001 A 
ATOM     24  C   UNL     1       6.962   2.267  22.332  0.00  0.00    +0.013 A 
BRANCH  21  25
ATOM     25  C   UNL     1       9.720   5.106  24.064  0.00  0.00    -0.014 A 
ATOM     26  C   UNL     1       9.421   6.004  25.108  0.00  0.00    +0.008 A 
ATOM     27  C   UNL     1      10.378   6.886  25.620  0.00  0.00    +0.001 A 
ATOM     28  C   UNL     1      11.678   6.869  25.128  0.00  0.00    +0.000 A 
ATOM     29  C   UNL     1      12.012   5.983  24.110  0.00  0.00    +0.001 A 
ATOM     30  C   UNL     1      11.041   5.127  23.575  0.00  0.00    +0.008 A 
ENDBRANCH  21  25
BRANCH  20  31
ATOM     31  O   UNL     1       9.443   2.311  25.022  0.00  0.00    -0.505 OA
ATOM     32  H   UNL     1      10.372   2.521  24.804  0.00  0.00    +0.292 HD
ENDBRANCH  20  31
ENDBRANCH   8  19
TORSDOF 4
ENDMDL
MODEL 3
REMARK VINA RESULT:      -7.9      3.862      9.134
REMARK  Name = 
REMARK  4 active torsions:
REMARK  status: ('A' for Active; 'I' for Inactive)
REMARK    1  A    between atoms: C_2  and  C_6
REMARK    2  A    between atoms: C_11  and  C_13
REMARK    3  A    between atoms: C_17  and  C_20
REMARK    4  A    between atoms: C_18  and  O_19
REMARK                            x       y       z     vdW  Elec       q    Type
REMARK                         _______ _______ _______ _____ _____    ______ ____
ROOT
ATOM      1  C   UNL     1       6.506  -4.481  24.441  0.00  0.00    +0.080 A 
ATOM      2  C   UNL     1       7.092  -4.560  23.161  0.00  0.00    +0.058 A 
ATOM      3 CL   UNL     1       7.216  -6.067  22.313  0.00  0.00    -0.083 Cl
ATOM      4  C   UNL     1       7.594  -3.428  22.494  0.00  0.00    +0.047 A 
ATOM      5  C   UNL     1       7.496  -2.195  23.146  0.00  0.00    +0.048 A 
ATOM      6  N   UNL     1       7.845  -0.929  22.734  0.00  0.00    -0.354 N 
ATOM      7  H   UNL     1       8.234  -0.682  21.830  0.00  0.00    +0.166 HD
ATOM      8  C   UNL     1       7.493   0.017  23.675  0.00  0.00    +0.051 A 
ATOM      9  C   UNL     1       6.996  -0.695  24.756  0.00  0.00    +0.036 A 
ATOM     10  C   UNL     1       6.952  -2.071  24.416  0.00  0.00    +0.001 A 
ATOM     11  C   UNL     1       6.456  -3.218  25.066  0.00  0.00    +0.027 A 
ENDROOT
BRANCH   1  15
ATOM     12  N   UNL     1       6.410  -6.021  26.313  0.00  0.00    -0.250 N 
ATOM     13  H   UNL     1       7.226  -5.565  26.707  0.00  0.00    +0.288 HD
ATOM     14  H   UNL     1       6.013  -6.783  26.846  0.00  0.00    +0.288 HD
ATOM     15  C   UNL     1       5.923  -5.647  25.145  0.00  0.00    +0.268 C 
ATOM     16  N   UNL     1       4.893  -6.295  24.646  0.00  0.00    -0.288 N 
ATOM     17  H   UNL     1       4.466  -7.091  25.099  0.00  0.00    +0.301 HD
ATOM     18  H   UNL     1       4.520  -6.029  23.738  0.00  0.00    +0.301 HD
ENDBRANCH   1  15
BRANCH   8  19
ATOM     19  C   UNL     1       7.554   1.475  23.428  0.00  0.00    +0.040 A 
ATOM     20  C   UNL     1       8.580   2.312  23.934  0.00  0.00    +0.134 A 
ATOM     21  C   UNL     1       8.757   3.649  23.488  0.00  0.00    +0.024 A 
ATOM     22  C   UNL     1       7.769   4.160  22.621  0.00  0.00    +0.012 A 
ATOM     23  C   UNL     1       6.691   3.386  22.196  0.00  0.00    +0.001 A 
ATOM     24  C   UNL     1       6.600   2.052  22.578  0.00  0.00    +0.013 A 
BRANCH  21  25
ATOM     25  C   UNL     1       9.951   4.490  23.801  0.00  0.00    -0.014 A 
ATOM     26  C   UNL     1      11.229   4.177  23.297  0.00  0.00    +0.008 A 
ATOM     27  C   UNL     1      12.336   4.998  23.531  0.00  0.00    +0.001 A 
ATOM     28  C   UNL     1      12.190   6.181  24.245  0.00  0.00    +0.000 A 
ATOM     29  C   UNL     1      10.940   6.530  24.741  0.00  0.00    +0.001 A 
ATOM     30  C   UNL     1       9.840   5.688  24.536  0.00  0.00    +0.008 A 
ENDBRANCH  21  25
BRANCH  20  31
ATOM     31  O   UNL     1       9.406   1.793  24.913  0.00  0.00    -0.505 OA
ATOM     32  H   UNL     1      10.003   1.163  24.463  0.00  0.00    +0.292 HD
ENDBRANCH  20  31
ENDBRANCH   8  19
TORSDOF 4
ENDMDL
MODEL 4
REMARK VINA RESULT:      -7.8      1.551      3.005
REMARK  Name = 
REMARK  4 active torsions:
REMARK  status: ('A' for Active; 'I' for Inactive)
REMARK    1  A    between atoms: C_2  and  C_6
REMARK    2  A    between atoms: C_11  and  C_13
REMARK    3  A    between atoms: C_17  and  C_20
REMARK    4  A    between atoms: C_18  and  O_19
REMARK                            x       y       z     vdW  Elec       q    Type
REMARK                         _______ _______ _______ _____ _____    ______ ____
ROOT
ATOM      1  C   UNL     1      11.250   4.515  23.445  0.00  0.00    +0.080 A 
ATOM      2  C   UNL     1       9.921   4.882  23.735  0.00  0.00    +0.058 A 
ATOM      3 CL   UNL     1       9.434   6.544  23.805  0.00  0.00    -0.083 Cl
ATOM      4  C   UNL     1       8.913   3.929  23.970  0.00  0.00    +0.047 A 
ATOM      5  C   UNL     1       9.271   2.579  23.906  0.00  0.00    +0.048 A 
ATOM      6  N   UNL     1       8.510   1.439  24.036  0.00  0.00    -0.354 N 
ATOM      7  H   UNL     1       7.508   1.406  24.189  0.00  0.00    +0.166 HD
ATOM      8  C   UNL     1       9.267   0.306  23.817  0.00  0.00    +0.051 A 
ATOM      9  C   UNL     1      10.568   0.751  23.642  0.00  0.00    +0.036 A 
ATOM     10  C   UNL     1      10.571   2.169  23.651  0.00  0.00    +0.001 A 
ATOM     11  C   UNL     1      11.565   3.140  23.420  0.00  0.00    +0.027 A 
ENDROOT
BRANCH   1  15
ATOM     12  N   UNL     1      12.818   6.243  24.110  0.00  0.00    -0.250 N 
ATOM     13  H   UNL     1      12.432   6.208  25.048  0.00  0.00    +0.288 HD
ATOM     14  H   UNL     1      13.578   6.892  23.956  0.00  0.00    +0.288 HD
ATOM     15  C   UNL     1      12.320   5.495  23.144  0.00  0.00    +0.268 C 
ATOM     16  N   UNL     1      12.818   5.605  21.931  0.00  0.00    -0.288 N 
ATOM     17  H   UNL     1      13.550   6.258  21.690  0.00  0.00    +0.301 HD
ATOM     18  H   UNL     1      12.430   5.048  21.173  0.00  0.00    +0.301 HD
ENDBRANCH   1  15
BRANCH   8  19
ATOM     19  C   UNL     1       8.687  -1.049  23.687  0.00  0.00    +0.040 A 
ATOM     20  C   UNL     1       8.368  -1.874  24.795  0.00  0.00    +0.134 A 
ATOM     21  C   UNL     1       7.594  -3.058  24.662  0.00  0.00    +0.024 A 
ATOM     22  C   UNL     1       7.277  -3.458  23.348  0.00  0.00    +0.012 A 
ATOM     23  C   UNL     1       7.673  -2.717  22.236  0.00  0.00    +0.001 A 
ATOM     24  C   UNL     1       8.349  -1.515  22.408  0.00  0.00    +0.013 A 
BRANCH  21  25
ATOM     25  C   UNL     1       7.029  -3.828  25.810  0.00  0.00    -0.014 A 
ATOM     26  C   UNL     1       7.683  -4.959  26.336  0.00  0.00    +0.008 A 
ATOM     27  C   UNL     1       7.193  -5.642  27.454  0.00  0.00    +0.001 A 
ATOM     28  C   UNL     1       6.051  -5.190  28.104  0.00  0.00    +0.000 A 
ATOM     29  C   UNL     1       5.390  -4.066  27.622  0.00  0.00    +0.001 A 
ATOM     30  C   UNL     1       5.863  -3.405  26.481  0.00  0.00    +0.008 A 
ENDBRANCH  21  25
BRANCH  20  31
ATOM     31  O   UNL     1       8.864  -1.506  26.031  0.00  0.00    -0.505 OA
ATOM     32  H   UNL     1       8.474  -0.633  26.234  0.00  0.00    +0.292 HD
ENDBRANCH  20  31
ENDBRANCH   8  19
TORSDOF 4
ENDMDL
MODEL 5
REMARK VINA RESULT:      -7.8      3.908      8.479
REMARK  Name = 
REMARK  4 active torsions:
REMARK  status: ('A' for Active; 'I' for Inactive)
REMARK    1  A    between atoms: C_2  and  C_6
REMARK    2  A    between atoms: C_11  and  C_13
REMARK    3  A    between atoms: C_17  and  C_20
REMARK    4  A    between atoms: C_18  and  O_19
REMARK                            x       y       z     vdW  Elec       q    Type
REMARK                         _______ _______ _______ _____ _____    ______ ____
ROOT
ATOM      1  C   UNL     1       8.671  -4.045  24.560  0.00  0.00    +0.080 A 
ATOM      2  C   UNL     1       7.960  -3.958  23.346  0.00  0.00    +0.058 A 
ATOM      3 CL   UNL     1       7.086  -5.313  22.710  0.00  0.00    -0.083 Cl
ATOM      4  C   UNL     1       7.905  -2.774  22.591  0.00  0.00    +0.047 A 
ATOM      5  C   UNL     1       8.589  -1.658  23.085  0.00  0.00    +0.048 A 
ATOM      6  N   UNL     1       8.676  -0.370  22.606  0.00  0.00    -0.354 N 
ATOM      7  H   UNL     1       8.212  -0.010  21.779  0.00  0.00    +0.166 HD
ATOM      8  C   UNL     1       9.397   0.434  23.465  0.00  0.00    +0.051 A 
ATOM      9  C   UNL     1       9.861  -0.405  24.466  0.00  0.00    +0.036 A 
ATOM     10  C   UNL     1       9.324  -1.702  24.261  0.00  0.00    +0.001 A 
ATOM     11  C   UNL     1       9.366  -2.899  25.001  0.00  0.00    +0.027 A 
ENDROOT
BRANCH   1  15
ATOM     12  N   UNL     1       7.644  -5.602  26.112  0.00  0.00    -0.250 N 
ATOM     13  H   UNL     1       6.827  -5.001  26.147  0.00  0.00    +0.288 HD
ATOM     14  H   UNL     1       7.610  -6.448  26.665  0.00  0.00    +0.288 HD
ATOM     15  C   UNL     1       8.704  -5.264  25.401  0.00  0.00    +0.268 C 
ATOM     16  N   UNL     1       9.761  -6.048  25.421  0.00  0.00    -0.288 N 
ATOM     17  H   UNL     1       9.817  -6.888  25.978  0.00  0.00    +0.301 HD
ATOM     18  H   UNL     1      10.591  -5.790  24.893  0.00  0.00    +0.301 HD
ENDBRANCH   1  15
BRANCH   8  19
ATOM     19  C   UNL     1       9.487   1.904  23.323  0.00  0.00    +0.040 A 
ATOM     20  C   UNL     1       8.401   2.719  22.913  0.00  0.00    +0.134 A 
ATOM     21  C   UNL     1       8.433   4.135  23.019  0.00  0.00    +0.024 A 
ATOM     22  C   UNL     1       9.658   4.709  23.416  0.00  0.00    +0.012 A 
ATOM     23  C   UNL     1      10.773   3.930  23.721  0.00  0.00    +0.001 A 
ATOM     24  C   UNL     1      10.677   2.543  23.697  0.00  0.00    +0.013 A 
BRANCH  21  25
ATOM     25  C   UNL     1       7.245   5.021  22.832  0.00  0.00    -0.014 A 
ATOM     26  C   UNL     1       6.061   4.835  23.572  0.00  0.00    +0.008 A 
ATOM     27  C   UNL     1       4.970   5.702  23.451  0.00  0.00    +0.001 A 
ATOM     28  C   UNL     1       5.047   6.807  22.611  0.00  0.00    +0.000 A 
ATOM     29  C   UNL     1       6.207   7.031  21.880  0.00  0.00    +0.001 A 
ATOM     30  C   UNL     1       7.284   6.140  21.976  0.00  0.00    +0.008 A 
ENDBRANCH  21  25
BRANCH  20  31
ATOM     31  O   UNL     1       7.297   2.089  22.370  0.00  0.00    -0.505 OA
ATOM     32  H   UNL     1       7.303   2.301  21.416  0.00  0.00    +0.292 HD
ENDBRANCH  20  31
ENDBRANCH   8  19
TORSDOF 4
ENDMDL
MODEL 6
REMARK VINA RESULT:      -7.7      4.556      9.171
REMARK  Name = 
REMARK  4 active torsions:
REMARK  status: ('A' for Active; 'I' for Inactive)
REMARK    1  A    between atoms: C_2  and  C_6
REMARK    2  A    between atoms: C_11  and  C_13
REMARK    3  A    between atoms: C_17  and  C_20
REMARK    4  A    between atoms: C_18  and  O_19
REMARK                            x       y       z     vdW  Elec       q    Type
REMARK                         _______ _______ _______ _____ _____    ______ ____
ROOT
ATOM      1  C   UNL     1       4.799  -5.388  25.966  0.00  0.00    +0.080 A 
ATOM      2  C   UNL     1       4.203  -4.255  26.554  0.00  0.00    +0.058 A 
ATOM      3 CL   UNL     1       3.106  -4.398  27.889  0.00  0.00    -0.083 Cl
ATOM      4  C   UNL     1       4.469  -2.949  26.106  0.00  0.00    +0.047 A 
ATOM      5  C   UNL     1       5.361  -2.799  25.040  0.00  0.00    +0.048 A 
ATOM      6  N   UNL     1       5.849  -1.667  24.427  0.00  0.00    -0.354 N 
ATOM      7  H   UNL     1       5.636  -0.710  24.685  0.00  0.00    +0.166 HD
ATOM      8  C   UNL     1       6.781  -1.986  23.460  0.00  0.00    +0.051 A 
ATOM      9  C   UNL     1       6.802  -3.371  23.399  0.00  0.00    +0.036 A 
ATOM     10  C   UNL     1       5.953  -3.885  24.412  0.00  0.00    +0.001 A 
ATOM     11  C   UNL     1       5.671  -5.185  24.876  0.00  0.00    +0.027 A 
ENDROOT
BRANCH   1  15
ATOM     12  N   UNL     1       5.209  -7.201  27.526  0.00  0.00    -0.250 N 
ATOM     13  H   UNL     1       5.901  -6.622  27.990  0.00  0.00    +0.288 HD
ATOM     14  H   UNL     1       5.053  -8.122  27.914  0.00  0.00    +0.288 HD
ATOM     15  C   UNL     1       4.577  -6.771  26.450  0.00  0.00    +0.268 C 
ATOM     16  N   UNL     1       3.722  -7.571  25.851  0.00  0.00    -0.288 N 
ATOM     17  H   UNL     1       3.541  -8.517  26.154  0.00  0.00    +0.301 HD
ATOM     18  H   UNL     1       3.242  -7.259  25.010  0.00  0.00    +0.301 HD
ENDBRANCH   1  15
BRANCH   8  19
ATOM     19  C   UNL     1       7.625  -0.980  22.778  0.00  0.00    +0.040 A 
ATOM     20  C   UNL     1       7.382   0.416  22.838  0.00  0.00    +0.134 A 
ATOM     21  C   UNL     1       8.333   1.371  22.387  0.00  0.00    +0.024 A 
ATOM     22  C   UNL     1       9.476   0.863  21.737  0.00  0.00    +0.012 A 
ATOM     23  C   UNL     1       9.683  -0.505  21.572  0.00  0.00    +0.001 A 
ATOM     24  C   UNL     1       8.778  -1.414  22.108  0.00  0.00    +0.013 A 
BRANCH  21  25
ATOM     25  C   UNL     1       8.237   2.839  22.643  0.00  0.00    -0.014 A 
ATOM     26  C   UNL     1       7.274   3.641  22.000  0.00  0.00    +0.008 A 
ATOM     27  C   UNL     1       7.137   5.003  22.287  0.00  0.00    +0.001 A 
ATOM     28  C   UNL     1       7.935   5.596  23.258  0.00  0.00    +0.000 A 
ATOM     29  C   UNL     1       8.883   4.830  23.926  0.00  0.00    +0.001 A 
ATOM     30  C   UNL     1       9.043   3.475  23.610  0.00  0.00    +0.008 A 
ENDBRANCH  21  25
BRANCH  20  31
ATOM     31  O   UNL     1       6.160   0.833  23.330  0.00  0.00    -0.505 OA
ATOM     32  H   UNL     1       6.092   1.786  23.122  0.00  0.00    +0.292 HD
ENDBRANCH  20  31
ENDBRANCH   8  19
TORSDOF 4
ENDMDL
MODEL 7
REMARK VINA RESULT:      -7.7      4.948      9.246
REMARK  Name = 
REMARK  4 active torsions:
REMARK  status: ('A' for Active; 'I' for Inactive)
REMARK    1  A    between atoms: C_2  and  C_6
REMARK    2  A    between atoms: C_11  and  C_13
REMARK    3  A    between atoms: C_17  and  C_20
REMARK    4  A    between atoms: C_18  and  O_19
REMARK                            x       y       z     vdW  Elec       q    Type
REMARK                         _______ _______ _______ _____ _____    ______ ____
ROOT
ATOM      1  C   UNL     1       5.260  -5.908  26.418  0.00  0.00    +0.080 A 
ATOM      2  C   UNL     1       4.749  -6.278  25.157  0.00  0.00    +0.058 A 
ATOM      3 CL   UNL     1       3.568  -7.536  24.992  0.00  0.00    -0.083 Cl
ATOM      4  C   UNL     1       5.153  -5.645  23.969  0.00  0.00    +0.047 A 
ATOM      5  C   UNL     1       6.095  -4.616  24.070  0.00  0.00    +0.048 A 
ATOM      6  N   UNL     1       6.634  -3.792  23.108  0.00  0.00    -0.354 N 
ATOM      7  H   UNL     1       6.401  -3.795  22.121  0.00  0.00    +0.166 HD
ATOM      8  C   UNL     1       7.474  -2.852  23.671  0.00  0.00    +0.051 A 
ATOM      9  C   UNL     1       7.538  -3.164  25.020  0.00  0.00    +0.036 A 
ATOM     10  C   UNL     1       6.646  -4.234  25.284  0.00  0.00    +0.001 A 
ATOM     11  C   UNL     1       6.228  -4.883  26.463  0.00  0.00    +0.027 A 
ENDROOT
BRANCH   1  15
ATOM     12  N   UNL     1       3.708  -6.101  28.273  0.00  0.00    -0.250 N 
ATOM     13  H   UNL     1       3.190  -5.313  27.899  0.00  0.00    +0.288 HD
ATOM     14  H   UNL     1       3.347  -6.522  29.118  0.00  0.00    +0.288 HD
ATOM     15  C   UNL     1       4.815  -6.522  27.691  0.00  0.00    +0.268 C 
ATOM     16  N   UNL     1       5.483  -7.517  28.235  0.00  0.00    -0.288 N 
ATOM     17  H   UNL     1       5.208  -7.963  29.098  0.00  0.00    +0.301 HD
ATOM     18  H   UNL     1       6.347  -7.839  27.807  0.00  0.00    +0.301 HD
ENDBRANCH   1  15
BRANCH   8  19
ATOM     19  C   UNL     1       8.037  -1.708  22.920  0.00  0.00    +0.040 A 
ATOM     20  C   UNL     1       7.559  -0.379  23.044  0.00  0.00    +0.134 A 
ATOM     21  C   UNL     1       8.263   0.733  22.509  0.00  0.00    +0.024 A 
ATOM     22  C   UNL     1       9.392   0.442  21.716  0.00  0.00    +0.012 A 
ATOM     23  C   UNL     1       9.818  -0.866  21.492  0.00  0.00    +0.001 A 
ATOM     24  C   UNL     1       9.160  -1.925  22.108  0.00  0.00    +0.013 A 
BRANCH  21  25
ATOM     25  C   UNL     1       7.940   2.159  22.813  0.00  0.00    -0.014 A 
ATOM     26  C   UNL     1       8.585   2.859  23.851  0.00  0.00    +0.008 A 
ATOM     27  C   UNL     1       8.335   4.214  24.095  0.00  0.00    +0.001 A 
ATOM     28  C   UNL     1       7.458   4.920  23.281  0.00  0.00    +0.000 A 
ATOM     29  C   UNL     1       6.818   4.265  22.235  0.00  0.00    +0.001 A 
ATOM     30  C   UNL     1       7.043   2.900  22.016  0.00  0.00    +0.008 A 
ENDBRANCH  21  25
BRANCH  20  31
ATOM     31  O   UNL     1       6.351  -0.190  23.688  0.00  0.00    -0.505 OA
ATOM     32  H   UNL     1       5.661  -0.508  23.073  0.00  0.00    +0.292 HD
ENDBRANCH  20  31
ENDBRANCH   8  19
TORSDOF 4
ENDMDL
MODEL 8
REMARK VINA RESULT:      -7.5      1.545      2.037
REMARK  Name = 
REMARK  4 active torsions:
REMARK  status: ('A' for Active; 'I' for Inactive)
REMARK    1  A    between atoms: C_2  and  C_6
REMARK    2  A    between atoms: C_11  and  C_13
REMARK    3  A    between atoms: C_17  and  C_20
REMARK    4  A    between atoms: C_18  and  O_19
REMARK                            x       y       z     vdW  Elec       q    Type
REMARK                         _______ _______ _______ _____ _____    ______ ____
ROOT
ATOM      1  C   UNL     1       9.828   4.794  24.142  0.00  0.00    +0.080 A 
ATOM      2  C   UNL     1      10.949   4.144  23.590  0.00  0.00    +0.058 A 
ATOM      3 CL   UNL     1      12.322   5.035  23.017  0.00  0.00    -0.083 Cl
ATOM      4  C   UNL     1      11.028   2.744  23.482  0.00  0.00    +0.047 A 
ATOM      5  C   UNL     1       9.943   1.996  23.948  0.00  0.00    +0.048 A 
ATOM      6  N   UNL     1       9.754   0.634  24.024  0.00  0.00    -0.354 N 
ATOM      7  H   UNL     1      10.424  -0.076  23.751  0.00  0.00    +0.166 HD
ATOM      8  C   UNL     1       8.555   0.330  24.635  0.00  0.00    +0.051 A 
ATOM      9  C   UNL     1       7.928   1.546  24.860  0.00  0.00    +0.036 A 
ATOM     10  C   UNL     1       8.806   2.591  24.476  0.00  0.00    +0.001 A 
ATOM     11  C   UNL     1       8.748   3.995  24.573  0.00  0.00    +0.027 A 
ENDROOT
BRANCH   1  15
ATOM     12  N   UNL     1       8.937   6.969  23.539  0.00  0.00    -0.250 N 
ATOM     13  H   UNL     1       8.429   6.530  22.778  0.00  0.00    +0.288 HD
ATOM     14  H   UNL     1       8.814   7.966  23.653  0.00  0.00    +0.288 HD
ATOM     15  C   UNL     1       9.738   6.263  24.315  0.00  0.00    +0.268 C 
ATOM     16  N   UNL     1      10.415   6.878  25.261  0.00  0.00    -0.288 N 
ATOM     17  H   UNL     1      10.376   7.876  25.411  0.00  0.00    +0.301 HD
ATOM     18  H   UNL     1      11.050   6.349  25.853  0.00  0.00    +0.301 HD
ENDBRANCH   1  15
BRANCH   8  19
ATOM     19  C   UNL     1       8.171  -1.040  25.040  0.00  0.00    +0.040 A 
ATOM     20  C   UNL     1       7.450  -1.930  24.205  0.00  0.00    +0.134 A 
ATOM     21  C   UNL     1       7.306  -3.310  24.512  0.00  0.00    +0.024 A 
ATOM     22  C   UNL     1       7.791  -3.730  25.767  0.00  0.00    +0.012 A 
ATOM     23  C   UNL     1       8.408  -2.847  26.652  0.00  0.00    +0.001 A 
ATOM     24  C   UNL     1       8.615  -1.523  26.279  0.00  0.00    +0.013 A 
BRANCH  21  25
ATOM     25  C   UNL     1       6.773  -4.333  23.563  0.00  0.00    -0.014 A 
ATOM     26  C   UNL     1       5.404  -4.664  23.524  0.00  0.00    +0.008 A 
ATOM     27  C   UNL     1       4.890  -5.570  22.591  0.00  0.00    +0.001 A 
ATOM     28  C   UNL     1       5.726  -6.145  21.642  0.00  0.00    +0.000 A 
ATOM     29  C   UNL     1       7.079  -5.827  21.639  0.00  0.00    +0.001 A 
ATOM     30  C   UNL     1       7.597  -4.947  22.598  0.00  0.00    +0.008 A 
ENDBRANCH  21  25
BRANCH  20  31
ATOM     31  O   UNL     1       6.854  -1.406  23.073  0.00  0.00    -0.505 OA
ATOM     32  H   UNL     1       6.275  -2.109  22.719  0.00  0.00    +0.292 HD
ENDBRANCH  20  31
ENDBRANCH   8  19
TORSDOF 4
ENDMDL
MODEL 9
REMARK VINA RESULT:      -7.4      2.552      3.282
REMARK  Name = 
REMARK  4 active torsions:
REMARK  status: ('A' for Active; 'I' for Inactive)
REMARK    1  A    between atoms: C_2  and  C_6
REMARK    2  A    between atoms: C_11  and  C_13
REMARK    3  A    between atoms: C_17  and  C_20
REMARK    4  A    between atoms: C_18  and  O_19
REMARK                            x       y       z     vdW  Elec       q    Type
REMARK                         _______ _______ _______ _____ _____    ______ ____
ROOT
ATOM      1  C   UNL     1       7.444   4.168  22.931  0.00  0.00    +0.080 A 
ATOM      2  C   UNL     1       8.153   4.309  24.141  0.00  0.00    +0.058 A 
ATOM      3 CL   UNL     1       8.392   5.862  24.874  0.00  0.00    -0.083 Cl
ATOM      4  C   UNL     1       8.693   3.208  24.828  0.00  0.00    +0.047 A 
ATOM      5  C   UNL     1       8.504   1.940  24.269  0.00  0.00    +0.048 A 
ATOM      6  N   UNL     1       8.864   0.692  24.727  0.00  0.00    -0.354 N 
ATOM      7  H   UNL     1       9.334   0.491  25.603  0.00  0.00    +0.166 HD
ATOM      8  C   UNL     1       8.400  -0.300  23.887  0.00  0.00    +0.051 A 
ATOM      9  C   UNL     1       7.816   0.357  22.815  0.00  0.00    +0.036 A 
ATOM     10  C   UNL     1       7.836   1.752  23.068  0.00  0.00    +0.001 A 
ATOM     11  C   UNL     1       7.305   2.870  22.396  0.00  0.00    +0.027 A 
ENDROOT
BRANCH   1  15
ATOM     12  N   UNL     1       7.568   6.112  21.485  0.00  0.00    -0.250 N 
ATOM     13  H   UNL     1       8.577   6.010  21.464  0.00  0.00    +0.288 HD
ATOM     14  H   UNL     1       7.177   6.872  20.945  0.00  0.00    +0.288 HD
ATOM     15  C   UNL     1       6.820   5.304  22.213  0.00  0.00    +0.268 C 
ATOM     16  N   UNL     1       5.520   5.499  22.250  0.00  0.00    -0.288 N 
ATOM     17  H   UNL     1       5.059   6.259  21.770  0.00  0.00    +0.301 HD
ATOM     18  H   UNL     1       4.934   4.896  22.822  0.00  0.00    +0.301 HD
ENDBRANCH   1  15
BRANCH   8  19
ATOM     19  C   UNL     1       8.453  -1.741  24.220  0.00  0.00    +0.040 A 
ATOM     20  C   UNL     1       7.300  -2.554  24.360  0.00  0.00    +0.134 A 
ATOM     21  C   UNL     1       7.376  -3.971  24.436  0.00  0.00    +0.024 A 
ATOM     22  C   UNL     1       8.668  -4.529  24.513  0.00  0.00    +0.012 A 
ATOM     23  C   UNL     1       9.815  -3.738  24.485  0.00  0.00    +0.001 A 
ATOM     24  C   UNL     1       9.706  -2.362  24.316  0.00  0.00    +0.013 A 
BRANCH  21  25
ATOM     25  C   UNL     1       6.197  -4.884  24.341  0.00  0.00    -0.014 A 
ATOM     26  C   UNL     1       5.534  -5.112  23.120  0.00  0.00    +0.008 A 
ATOM     27  C   UNL     1       4.474  -6.017  23.013  0.00  0.00    +0.001 A 
ATOM     28  C   UNL     1       4.069  -6.752  24.121  0.00  0.00    +0.000 A 
ATOM     29  C   UNL     1       4.713  -6.565  25.338  0.00  0.00    +0.001 A 
ATOM     30  C   UNL     1       5.750  -5.631  25.450  0.00  0.00    +0.008 A 
ENDBRANCH  21  25
BRANCH  20  31
ATOM     31  O   UNL     1       6.075  -1.920  24.452  0.00  0.00    -0.505 OA
ATOM     32  H   UNL     1       5.420  -2.534  24.068  0.00  0.00    +0.292 HD
ENDBRANCH  20  31
ENDBRANCH   8  19
TORSDOF 4
ENDMDL
