MODEL 1
REMARK VINA RESULT:      -7.3      0.000      0.000
REMARK  Name = 
REMARK  7 active torsions:
REMARK  status: ('A' for Active; 'I' for Inactive)
REMARK    1  A    between atoms: N_9  and  C_12
REMARK    2  A    between atoms: C_15  and  C_17
REMARK    3  A    between atoms: C_17  and  O_18
REMARK    4  A    between atoms: C_22  and  C_24
REMARK    5  A    between atoms: C_24  and  P_25
REMARK    6  A    between atoms: P_25  and  O_26
REMARK    7  A    between atoms: P_25  and  O_27
REMARK                            x       y       z     vdW  Elec       q    Type
REMARK                         _______ _______ _______ _____ _____    ______ ____
ROOT
ATOM      1  C   UNL     1       7.608  -0.958  22.791  0.00  0.00    +0.254 C 
ATOM      2  C   UNL     1       8.529  -2.152  22.610  0.00  0.00    +0.202 C 
ATOM      3  C   UNL     1       9.446  -2.123  23.806  0.00  0.00    +0.185 C 
ATOM      4  O   UNL     1       9.579  -3.489  24.201  0.00  0.00    -0.342 OA
ATOM      5  C   UNL     1       8.391  -4.162  23.767  0.00  0.00    +0.263 C 
ATOM      6  C   UNL     1       8.682  -1.311  24.853  0.00  0.00    +0.178 C 
ATOM      7  O   UNL     1       7.721  -3.346  22.801  0.00  0.00    -0.340 OA
ATOM      8  O   UNL     1       7.416  -0.953  24.244  0.00  0.00    -0.346 OA
ENDROOT
BRANCH   1  16
ATOM      9  N   UNL     1       4.163   2.600  23.833  0.00  0.00    -0.329 N 
ATOM     10  H   UNL     1       4.126   1.886  24.556  0.00  0.00    +0.145 HD
ATOM     11  H   UNL     1       3.870   3.496  24.202  0.00  0.00    +0.145 HD
ATOM     12  C   UNL     1       5.365   2.694  23.209  0.00  0.00    +0.195 A 
ATOM     13  N   UNL     1       5.896   1.467  22.937  0.00  0.00    -0.312 N 
ATOM     14  H   UNL     1       5.502   0.658  23.408  0.00  0.00    +0.170 HD
ATOM     15  C   UNL     1       7.147   1.446  22.475  0.00  0.00    +0.148 A 
ATOM     16  N   UNL     1       7.988   0.379  22.395  0.00  0.00    -0.287 N 
ATOM     17  C   UNL     1       9.153   0.877  21.876  0.00  0.00    +0.203 A 
ATOM     18  N   UNL     1       9.112   2.197  21.748  0.00  0.00    -0.229 NA
ATOM     19  C   UNL     1       7.843   2.570  22.145  0.00  0.00    +0.172 A 
ATOM     20  C   UNL     1       7.185   3.878  22.322  0.00  0.00    +0.302 A 
ATOM     21  O   UNL     1       7.728   4.930  22.006  0.00  0.00    -0.263 OA
ATOM     22  N   UNL     1       5.912   3.839  22.922  0.00  0.00    -0.176 NA
ENDBRANCH   1  16
BRANCH   5  23
ATOM     23  C   UNL     1       7.508  -4.436  24.973  0.00  0.00    +0.188 C 
BRANCH  23  24
ATOM     24  P   UNL     1       8.366  -5.217  26.309  0.00  0.00    +0.333 P 
ATOM     25  O   UNL     1       7.518  -6.041  27.214  0.00  0.00    -0.259 OA
BRANCH  24  26
ATOM     26  O   UNL     1       9.144  -4.006  27.014  0.00  0.00    -0.324 OA
ATOM     27  H   UNL     1       9.535  -3.381  26.372  0.00  0.00    +0.220 HD
ENDBRANCH  24  26
BRANCH  24  28
ATOM     28  O   UNL     1       9.569  -6.009  25.603  0.00  0.00    -0.324 OA
ATOM     29  H   UNL     1       9.861  -5.706  24.725  0.00  0.00    +0.220 HD
ENDBRANCH  24  28
ENDBRANCH  23  24
ENDBRANCH   5  23
BRANCH   6  30
ATOM     30  C   UNL     1       9.445  -0.071  25.337  0.00  0.00    +0.190 C 
BRANCH  30  31
ATOM     31  O   UNL     1       8.518   0.928  25.767  0.00  0.00    -0.392 OA
ATOM     32  H   UNL     1       8.859   1.320  26.587  0.00  0.00    +0.210 HD
ENDBRANCH  30  31
ENDBRANCH   6  30
TORSDOF 7
ENDMDL
MODEL 2
REMARK VINA RESULT:      -7.1      3.570      6.680
REMARK  Name = 
REMARK  7 active torsions:
REMARK  status: ('A' for Active; 'I' for Inactive)
REMARK    1  A    between atoms: N_9  and  C_12
REMARK    2  A    between atoms: C_15  and  C_17
REMARK    3  A    between atoms: C_17  and  O_18
REMARK    4  A    between atoms: C_22  and  C_24
REMARK    5  A    between atoms: C_24  and  P_25
REMARK    6  A    between atoms: P_25  and  O_26
REMARK    7  A    between atoms: P_25  and  O_27
REMARK                            x       y       z     vdW  Elec       q    Type
REMARK                         _______ _______ _______ _____ _____    ______ ____
ROOT
ATOM      1  C   UNL     1       9.205  -1.623  24.598  0.00  0.00    +0.254 C 
ATOM      2  C   UNL     1      10.016  -1.369  23.339  0.00  0.00    +0.202 C 
ATOM      3  C   UNL     1       9.026  -1.477  22.208  0.00  0.00    +0.185 C 
ATOM      4  O   UNL     1       9.377  -0.423  21.310  0.00  0.00    -0.342 OA
ATOM      5  C   UNL     1      10.013   0.593  22.094  0.00  0.00    +0.263 C 
ATOM      6  C   UNL     1       7.667  -1.223  22.863  0.00  0.00    +0.178 C 
ATOM      7  O   UNL     1      10.398   0.034  23.354  0.00  0.00    -0.340 OA
ATOM      8  O   UNL     1       7.935  -0.970  24.266  0.00  0.00    -0.346 OA
ENDROOT
BRANCH   1  16
ATOM      9  N   UNL     1       5.093  -1.932  27.533  0.00  0.00    -0.329 N 
ATOM     10  H   UNL     1       4.949  -1.201  26.841  0.00  0.00    +0.145 HD
ATOM     11  H   UNL     1       4.210  -2.338  27.813  0.00  0.00    +0.145 HD
ATOM     12  C   UNL     1       5.976  -2.890  27.149  0.00  0.00    +0.195 A 
ATOM     13  N   UNL     1       7.067  -2.358  26.528  0.00  0.00    -0.312 N 
ATOM     14  H   UNL     1       7.017  -1.396  26.207  0.00  0.00    +0.170 HD
ATOM     15  C   UNL     1       7.915  -3.222  25.965  0.00  0.00    +0.148 A 
ATOM     16  N   UNL     1       8.901  -2.956  25.066  0.00  0.00    -0.287 N 
ATOM     17  C   UNL     1       9.468  -4.170  24.784  0.00  0.00    +0.203 A 
ATOM     18  N   UNL     1       8.811  -5.167  25.360  0.00  0.00    -0.229 NA
ATOM     19  C   UNL     1       7.808  -4.573  26.102  0.00  0.00    +0.172 A 
ATOM     20  C   UNL     1       6.689  -5.110  26.900  0.00  0.00    +0.302 A 
ATOM     21  O   UNL     1       6.551  -6.310  27.105  0.00  0.00    -0.263 OA
ATOM     22  N   UNL     1       5.766  -4.155  27.366  0.00  0.00    -0.176 NA
ENDBRANCH   1  16
BRANCH   5  23
ATOM     23  C   UNL     1       9.053   1.758  22.270  0.00  0.00    +0.188 C 
BRANCH  23  24
ATOM     24  P   UNL     1       9.448   2.791  23.652  0.00  0.00    +0.333 P 
ATOM     25  O   UNL     1       8.760   4.111  23.675  0.00  0.00    -0.259 OA
BRANCH  24  26
ATOM     26  O   UNL     1      11.049   2.853  23.627  0.00  0.00    -0.324 OA
ATOM     27  H   UNL     1      11.393   3.572  23.061  0.00  0.00    +0.220 HD
ENDBRANCH  24  26
BRANCH  24  28
ATOM     28  O   UNL     1       9.179   1.865  24.933  0.00  0.00    -0.324 OA
ATOM     29  H   UNL     1       9.947   1.459  25.372  0.00  0.00    +0.220 HD
ENDBRANCH  24  28
ENDBRANCH  23  24
ENDBRANCH   5  23
BRANCH   6  30
ATOM     30  C   UNL     1       6.677  -2.380  22.679  0.00  0.00    +0.190 C 
BRANCH  30  31
ATOM     31  O   UNL     1       5.637  -2.283  23.654  0.00  0.00    -0.392 OA
ATOM     32  H   UNL     1       5.471  -3.174  24.005  0.00  0.00    +0.210 HD
ENDBRANCH  30  31
ENDBRANCH   6  30
TORSDOF 7
ENDMDL
MODEL 3
REMARK VINA RESULT:      -7.0      2.017      2.786
REMARK  Name = 
REMARK  7 active torsions:
REMARK  status: ('A' for Active; 'I' for Inactive)
REMARK    1  A    between atoms: N_9  and  C_12
REMARK    2  A    between atoms: C_15  and  C_17
REMARK    3  A    between atoms: C_17  and  O_18
REMARK    4  A    between atoms: C_22  and  C_24
REMARK    5  A    between atoms: C_24  and  P_25
REMARK    6  A    between atoms: P_25  and  O_26
REMARK    7  A    between atoms: P_25  and  O_27
REMARK                            x       y       z     vdW  Elec       q    Type
REMARK                         _______ _______ _______ _____ _____    ______ ____
ROOT
ATOM      1  C   UNL     1       8.835  -1.593  23.453  0.00  0.00    +0.254 C 
ATOM      2  C   UNL     1       9.372  -2.855  24.106  0.00  0.00    +0.202 C 
ATOM      3  C   UNL     1       8.789  -2.854  25.496  0.00  0.00    +0.185 C 
ATOM      4  O   UNL     1       8.426  -4.213  25.743  0.00  0.00    -0.342 OA
ATOM      5  C   UNL     1       8.173  -4.812  24.467  0.00  0.00    +0.263 C 
ATOM      6  C   UNL     1       7.555  -1.957  25.392  0.00  0.00    +0.178 C 
ATOM      7  O   UNL     1       8.732  -3.981  23.444  0.00  0.00    -0.340 OA
ATOM      8  O   UNL     1       7.481  -1.528  24.009  0.00  0.00    -0.346 OA
ENDROOT
BRANCH   1  16
ATOM      9  N   UNL     1       5.772   2.342  22.588  0.00  0.00    -0.329 N 
ATOM     10  H   UNL     1       5.223   1.576  22.968  0.00  0.00    +0.145 HD
ATOM     11  H   UNL     1       5.354   3.232  22.825  0.00  0.00    +0.145 HD
ATOM     12  C   UNL     1       7.084   2.307  22.934  0.00  0.00    +0.195 A 
ATOM     13  N   UNL     1       7.597   1.044  22.866  0.00  0.00    -0.312 N 
ATOM     14  H   UNL     1       6.948   0.265  22.810  0.00  0.00    +0.170 HD
ATOM     15  C   UNL     1       8.830   0.872  23.344  0.00  0.00    +0.148 A 
ATOM     16  N   UNL     1       9.450  -0.300  23.648  0.00  0.00    -0.287 N 
ATOM     17  C   UNL     1      10.686   0.058  24.119  0.00  0.00    +0.203 A 
ATOM     18  N   UNL     1      10.809   1.374  24.232  0.00  0.00    -0.229 NA
ATOM     19  C   UNL     1       9.623   1.900  23.756  0.00  0.00    +0.172 A 
ATOM     20  C   UNL     1       9.086   3.272  23.686  0.00  0.00    +0.302 A 
ATOM     21  O   UNL     1       9.753   4.251  23.997  0.00  0.00    -0.263 OA
ATOM     22  N   UNL     1       7.740   3.375  23.285  0.00  0.00    -0.176 NA
ENDBRANCH   1  16
BRANCH   5  23
ATOM     23  C   UNL     1       6.674  -4.984  24.288  0.00  0.00    +0.188 C 
BRANCH  23  24
ATOM     24  P   UNL     1       6.169  -5.031  22.593  0.00  0.00    +0.333 P 
ATOM     25  O   UNL     1       4.794  -5.549  22.353  0.00  0.00    -0.259 OA
BRANCH  24  26
ATOM     26  O   UNL     1       7.345  -5.850  21.875  0.00  0.00    -0.324 OA
ATOM     27  H   UNL     1       8.234  -5.505  22.091  0.00  0.00    +0.220 HD
ENDBRANCH  24  26
BRANCH  24  28
ATOM     28  O   UNL     1       6.435  -3.543  22.056  0.00  0.00    -0.324 OA
ATOM     29  H   UNL     1       6.935  -2.934  22.627  0.00  0.00    +0.220 HD
ENDBRANCH  24  28
ENDBRANCH  23  24
ENDBRANCH   5  23
BRANCH   6  30
ATOM     30  C   UNL     1       7.590  -0.760  26.351  0.00  0.00    +0.190 C 
BRANCH  30  31
ATOM     31  O   UNL     1       8.862  -0.699  26.999  0.00  0.00    -0.392 OA
ATOM     32  H   UNL     1       8.769  -1.095  27.881  0.00  0.00    +0.210 HD
ENDBRANCH  30  31
ENDBRANCH   6  30
TORSDOF 7
ENDMDL
MODEL 4
REMARK VINA RESULT:      -6.9      4.078      7.083
REMARK  Name = 
REMARK  7 active torsions:
REMARK  status: ('A' for Active; 'I' for Inactive)
REMARK    1  A    between atoms: N_9  and  C_12
REMARK    2  A    between atoms: C_15  and  C_17
REMARK    3  A    between atoms: C_17  and  O_18
REMARK    4  A    between atoms: C_22  and  C_24
REMARK    5  A    between atoms: C_24  and  P_25
REMARK    6  A    between atoms: P_25  and  O_26
REMARK    7  A    between atoms: P_25  and  O_27
REMARK                            x       y       z     vdW  Elec       q    Type
REMARK                         _______ _______ _______ _____ _____    ______ ____
ROOT
ATOM      1  C   UNL     1       8.074  -3.285  23.135  0.00  0.00    +0.254 C 
ATOM      2  C   UNL     1       8.247  -2.329  21.967  0.00  0.00    +0.202 C 
ATOM      3  C   UNL     1       7.469  -1.097  22.353  0.00  0.00    +0.185 C 
ATOM      4  O   UNL     1       8.282  -0.002  21.930  0.00  0.00    -0.342 OA
ATOM      5  C   UNL     1       9.636  -0.468  21.931  0.00  0.00    +0.263 C 
ATOM      6  C   UNL     1       7.376  -1.166  23.878  0.00  0.00    +0.178 C 
ATOM      7  O   UNL     1       9.636  -1.898  21.972  0.00  0.00    -0.340 OA
ATOM      8  O   UNL     1       8.091  -2.364  24.274  0.00  0.00    -0.346 OA
ENDROOT
BRANCH   1  16
ATOM      9  N   UNL     1       7.781  -5.737  27.553  0.00  0.00    -0.329 N 
ATOM     10  H   UNL     1       8.220  -4.833  27.707  0.00  0.00    +0.145 HD
ATOM     11  H   UNL     1       7.298  -6.045  28.386  0.00  0.00    +0.145 HD
ATOM     12  C   UNL     1       6.967  -5.777  26.468  0.00  0.00    +0.195 A 
ATOM     13  N   UNL     1       7.510  -5.128  25.398  0.00  0.00    -0.312 N 
ATOM     14  H   UNL     1       8.296  -4.506  25.561  0.00  0.00    +0.170 HD
ATOM     15  C   UNL     1       6.722  -4.966  24.333  0.00  0.00    +0.148 A 
ATOM     16  N   UNL     1       6.912  -4.133  23.275  0.00  0.00    -0.287 N 
ATOM     17  C   UNL     1       5.821  -4.321  22.468  0.00  0.00    +0.203 A 
ATOM     18  N   UNL     1       4.926  -5.125  23.028  0.00  0.00    -0.229 NA
ATOM     19  C   UNL     1       5.485  -5.527  24.225  0.00  0.00    +0.172 A 
ATOM     20  C   UNL     1       4.984  -6.341  25.349  0.00  0.00    +0.302 A 
ATOM     21  O   UNL     1       3.902  -6.914  25.308  0.00  0.00    -0.263 OA
ATOM     22  N   UNL     1       5.812  -6.375  26.488  0.00  0.00    -0.176 NA
ENDBRANCH   1  16
BRANCH   5  23
ATOM     23  C   UNL     1      10.364   0.124  23.127  0.00  0.00    +0.188 C 
BRANCH  23  24
ATOM     24  P   UNL     1      10.201   1.882  23.249  0.00  0.00    +0.333 P 
ATOM     25  O   UNL     1      11.340   2.582  23.904  0.00  0.00    -0.259 OA
BRANCH  24  26
ATOM     26  O   UNL     1       8.777   2.077  23.960  0.00  0.00    -0.324 OA
ATOM     27  H   UNL     1       8.037   2.115  23.322  0.00  0.00    +0.220 HD
ENDBRANCH  24  26
BRANCH  24  28
ATOM     28  O   UNL     1       9.884   2.359  21.751  0.00  0.00    -0.324 OA
ATOM     29  H   UNL     1      10.234   1.823  21.018  0.00  0.00    +0.220 HD
ENDBRANCH  24  28
ENDBRANCH  23  24
ENDBRANCH   5  23
BRANCH   6  30
ATOM     30  C   UNL     1       5.933  -1.174  24.400  0.00  0.00    +0.190 C 
BRANCH  30  31
ATOM     31  O   UNL     1       5.420   0.160  24.416  0.00  0.00    -0.392 OA
ATOM     32  H   UNL     1       6.166   0.770  24.290  0.00  0.00    +0.210 HD
ENDBRANCH  30  31
ENDBRANCH   6  30
TORSDOF 7
ENDMDL
MODEL 5
REMARK VINA RESULT:      -6.9      2.354      3.216
REMARK  Name = 
REMARK  7 active torsions:
REMARK  status: ('A' for Active; 'I' for Inactive)
REMARK    1  A    between atoms: N_9  and  C_12
REMARK    2  A    between atoms: C_15  and  C_17
REMARK    3  A    between atoms: C_17  and  O_18
REMARK    4  A    between atoms: C_22  and  C_24
REMARK    5  A    between atoms: C_24  and  P_25
REMARK    6  A    between atoms: P_25  and  O_26
REMARK    7  A    between atoms: P_25  and  O_27
REMARK                            x       y       z     vdW  Elec       q    Type
REMARK                         _______ _______ _______ _____ _____    ______ ____
ROOT
ATOM      1  C   UNL     1       7.932  -2.419  23.194  0.00  0.00    +0.254 C 
ATOM      2  C   UNL     1       8.277  -3.754  23.831  0.00  0.00    +0.202 C 
ATOM      3  C   UNL     1       7.935  -3.590  25.290  0.00  0.00    +0.185 C 
ATOM      4  O   UNL     1       7.328  -4.827  25.666  0.00  0.00    -0.342 OA
ATOM      5  C   UNL     1       6.753  -5.384  24.478  0.00  0.00    +0.263 C 
ATOM      6  C   UNL     1       6.925  -2.442  25.319  0.00  0.00    +0.178 C 
ATOM      7  O   UNL     1       7.311  -4.723  23.338  0.00  0.00    -0.340 OA
ATOM      8  O   UNL     1       6.729  -2.039  23.940  0.00  0.00    -0.346 OA
ENDROOT
BRANCH   1  16
ATOM      9  N   UNL     1       5.694   2.087  22.640  0.00  0.00    -0.329 N 
ATOM     10  H   UNL     1       5.065   1.467  23.143  0.00  0.00    +0.145 HD
ATOM     11  H   UNL     1       5.526   3.051  22.897  0.00  0.00    +0.145 HD
ATOM     12  C   UNL     1       7.007   1.765  22.770  0.00  0.00    +0.195 A 
ATOM     13  N   UNL     1       7.214   0.420  22.683  0.00  0.00    -0.312 N 
ATOM     14  H   UNL     1       6.412  -0.197  22.773  0.00  0.00    +0.170 HD
ATOM     15  C   UNL     1       8.444  -0.016  22.962  0.00  0.00    +0.148 A 
ATOM     16  N   UNL     1       8.837  -1.293  23.221  0.00  0.00    -0.287 N 
ATOM     17  C   UNL     1      10.182  -1.212  23.465  0.00  0.00    +0.203 A 
ATOM     18  N   UNL     1      10.605   0.045  23.490  0.00  0.00    -0.229 NA
ATOM     19  C   UNL     1       9.499   0.815  23.188  0.00  0.00    +0.172 A 
ATOM     20  C   UNL     1       9.268   2.272  23.137  0.00  0.00    +0.302 A 
ATOM     21  O   UNL     1      10.174   3.082  23.284  0.00  0.00    -0.263 OA
ATOM     22  N   UNL     1       7.928   2.666  22.955  0.00  0.00    -0.176 NA
ENDBRANCH   1  16
BRANCH   5  23
ATOM     23  C   UNL     1       5.243  -5.219  24.535  0.00  0.00    +0.188 C 
BRANCH  23  24
ATOM     24  P   UNL     1       4.477  -5.208  22.939  0.00  0.00    +0.333 P 
ATOM     25  O   UNL     1       3.006  -5.439  22.939  0.00  0.00    -0.259 OA
BRANCH  24  26
ATOM     26  O   UNL     1       5.339  -6.270  22.103  0.00  0.00    -0.324 OA
ATOM     27  H   UNL     1       6.160  -6.537  22.562  0.00  0.00    +0.220 HD
ENDBRANCH  24  26
BRANCH  24  28
ATOM     28  O   UNL     1       4.944  -3.821  22.282  0.00  0.00    -0.324 OA
ATOM     29  H   UNL     1       4.273  -3.286  21.823  0.00  0.00    +0.220 HD
ENDBRANCH  24  28
ENDBRANCH  23  24
ENDBRANCH   5  23
BRANCH   6  30
ATOM     30  C   UNL     1       7.371  -1.262  26.192  0.00  0.00    +0.190 C 
BRANCH  30  31
ATOM     31  O   UNL     1       8.688  -1.504  26.694  0.00  0.00    -0.392 OA
ATOM     32  H   UNL     1       9.276  -1.644  25.934  0.00  0.00    +0.210 HD
ENDBRANCH  30  31
ENDBRANCH   6  30
TORSDOF 7
ENDMDL
MODEL 6
REMARK VINA RESULT:      -6.8      1.750      2.203
REMARK  Name = 
REMARK  7 active torsions:
REMARK  status: ('A' for Active; 'I' for Inactive)
REMARK    1  A    between atoms: N_9  and  C_12
REMARK    2  A    between atoms: C_15  and  C_17
REMARK    3  A    between atoms: C_17  and  O_18
REMARK    4  A    between atoms: C_22  and  C_24
REMARK    5  A    between atoms: C_24  and  P_25
REMARK    6  A    between atoms: P_25  and  O_26
REMARK    7  A    between atoms: P_25  and  O_27
REMARK                            x       y       z     vdW  Elec       q    Type
REMARK                         _______ _______ _______ _____ _____    ______ ____
ROOT
ATOM      1  C   UNL     1       8.642  -1.613  24.047  0.00  0.00    +0.254 C 
ATOM      2  C   UNL     1       9.333  -2.786  24.720  0.00  0.00    +0.202 C 
ATOM      3  C   UNL     1       8.981  -2.662  26.180  0.00  0.00    +0.185 C 
ATOM      4  O   UNL     1       8.725  -3.999  26.612  0.00  0.00    -0.342 OA
ATOM      5  C   UNL     1       8.297  -4.731  25.458  0.00  0.00    +0.263 C 
ATOM      6  C   UNL     1       7.707  -1.816  26.196  0.00  0.00    +0.178 C 
ATOM      7  O   UNL     1       8.647  -3.992  24.283  0.00  0.00    -0.340 OA
ATOM      8  O   UNL     1       7.393  -1.532  24.809  0.00  0.00    -0.346 OA
ENDROOT
BRANCH   1  16
ATOM      9  N   UNL     1       5.396   2.072  22.823  0.00  0.00    -0.329 N 
ATOM     10  H   UNL     1       4.897   1.355  23.344  0.00  0.00    +0.145 HD
ATOM     11  H   UNL     1       4.961   2.976  22.956  0.00  0.00    +0.145 HD
ATOM     12  C   UNL     1       6.727   2.122  23.086  0.00  0.00    +0.195 A 
ATOM     13  N   UNL     1       7.278   0.877  23.168  0.00  0.00    -0.312 N 
ATOM     14  H   UNL     1       6.655   0.081  23.266  0.00  0.00    +0.170 HD
ATOM     15  C   UNL     1       8.543   0.809  23.585  0.00  0.00    +0.148 A 
ATOM     16  N   UNL     1       9.221  -0.290  24.015  0.00  0.00    -0.287 N 
ATOM     17  C   UNL     1      10.469   0.165  24.349  0.00  0.00    +0.203 A 
ATOM     18  N   UNL     1      10.552   1.487  24.264  0.00  0.00    -0.229 NA
ATOM     19  C   UNL     1       9.322   1.907  23.794  0.00  0.00    +0.172 A 
ATOM     20  C   UNL     1       8.733   3.240  23.562  0.00  0.00    +0.302 A 
ATOM     21  O   UNL     1       9.383   4.270  23.686  0.00  0.00    -0.263 OA
ATOM     22  N   UNL     1       7.363   3.247  23.238  0.00  0.00    -0.176 NA
ENDBRANCH   1  16
BRANCH   5  23
ATOM     23  C   UNL     1       6.798  -4.963  25.545  0.00  0.00    +0.188 C 
BRANCH  23  24
ATOM     24  P   UNL     1       6.287  -5.690  27.075  0.00  0.00    +0.333 P 
ATOM     25  O   UNL     1       5.236  -6.739  26.961  0.00  0.00    -0.259 OA
BRANCH  24  26
ATOM     26  O   UNL     1       5.898  -4.425  27.979  0.00  0.00    -0.324 OA
ATOM     27  H   UNL     1       5.084  -3.978  27.676  0.00  0.00    +0.220 HD
ENDBRANCH  24  26
BRANCH  24  28
ATOM     28  O   UNL     1       7.653  -6.173  27.763  0.00  0.00    -0.324 OA
ATOM     29  H   UNL     1       8.384  -5.534  27.826  0.00  0.00    +0.220 HD
ENDBRANCH  24  28
ENDBRANCH  23  24
ENDBRANCH   5  23
BRANCH   6  30
ATOM     30  C   UNL     1       7.842  -0.528  27.018  0.00  0.00    +0.190 C 
BRANCH  30  31
ATOM     31  O   UNL     1       9.146  -0.462  27.600  0.00  0.00    -0.392 OA
ATOM     32  H   UNL     1       9.797  -0.607  26.893  0.00  0.00    +0.210 HD
ENDBRANCH  30  31
ENDBRANCH   6  30
TORSDOF 7
ENDMDL
MODEL 7
REMARK VINA RESULT:      -6.7      4.105      7.062
REMARK  Name = 
REMARK  7 active torsions:
REMARK  status: ('A' for Active; 'I' for Inactive)
REMARK    1  A    between atoms: N_9  and  C_12
REMARK    2  A    between atoms: C_15  and  C_17
REMARK    3  A    between atoms: C_17  and  O_18
REMARK    4  A    between atoms: C_22  and  C_24
REMARK    5  A    between atoms: C_24  and  P_25
REMARK    6  A    between atoms: P_25  and  O_26
REMARK    7  A    between atoms: P_25  and  O_27
REMARK                            x       y       z     vdW  Elec       q    Type
REMARK                         _______ _______ _______ _____ _____    ______ ____
ROOT
ATOM      1  C   UNL     1       8.742  -3.211  24.266  0.00  0.00    +0.254 C 
ATOM      2  C   UNL     1       7.941  -2.533  23.169  0.00  0.00    +0.202 C 
ATOM      3  C   UNL     1       7.462  -1.240  23.778  0.00  0.00    +0.185 C 
ATOM      4  O   UNL     1       7.606  -0.269  22.740  0.00  0.00    -0.342 OA
ATOM      5  C   UNL     1       8.653  -0.735  21.881  0.00  0.00    +0.263 C 
ATOM      6  C   UNL     1       8.434  -0.976  24.928  0.00  0.00    +0.178 C 
ATOM      7  O   UNL     1       8.887  -2.122  22.143  0.00  0.00    -0.340 OA
ATOM      8  O   UNL     1       9.391  -2.065  24.908  0.00  0.00    -0.346 OA
ENDROOT
BRANCH   1  16
ATOM      9  N   UNL     1       4.757  -5.931  22.735  0.00  0.00    -0.329 N 
ATOM     10  H   UNL     1       5.428  -5.874  21.974  0.00  0.00    +0.145 HD
ATOM     11  H   UNL     1       4.214  -6.781  22.670  0.00  0.00    +0.145 HD
ATOM     12  C   UNL     1       5.307  -5.792  23.969  0.00  0.00    +0.195 A 
ATOM     13  N   UNL     1       6.245  -4.801  24.001  0.00  0.00    -0.312 N 
ATOM     14  H   UNL     1       6.603  -4.449  23.118  0.00  0.00    +0.170 HD
ATOM     15  C   UNL     1       6.963  -4.693  25.120  0.00  0.00    +0.148 A 
ATOM     16  N   UNL     1       8.118  -3.998  25.305  0.00  0.00    -0.287 N 
ATOM     17  C   UNL     1       8.466  -4.219  26.611  0.00  0.00    +0.203 A 
ATOM     18  N   UNL     1       7.662  -5.099  27.194  0.00  0.00    -0.229 NA
ATOM     19  C   UNL     1       6.710  -5.419  26.244  0.00  0.00    +0.172 A 
ATOM     20  C   UNL     1       5.597  -6.387  26.219  0.00  0.00    +0.302 A 
ATOM     21  O   UNL     1       5.280  -7.043  27.203  0.00  0.00    -0.263 OA
ATOM     22  N   UNL     1       4.955  -6.538  24.975  0.00  0.00    -0.176 NA
ENDBRANCH   1  16
BRANCH   5  23
ATOM     23  C   UNL     1       9.902   0.096  22.126  0.00  0.00    +0.188 C 
BRANCH  23  24
ATOM     24  P   UNL     1       9.566   1.819  22.351  0.00  0.00    +0.333 P 
ATOM     25  O   UNL     1       9.277   2.232  23.752  0.00  0.00    -0.259 OA
BRANCH  24  26
ATOM     26  O   UNL     1       8.398   2.114  21.295  0.00  0.00    -0.324 OA
ATOM     27  H   UNL     1       8.696   2.034  20.367  0.00  0.00    +0.220 HD
ENDBRANCH  24  26
BRANCH  24  28
ATOM     28  O   UNL     1      10.814   2.562  21.671  0.00  0.00    -0.324 OA
ATOM     29  H   UNL     1      10.759   2.769  20.722  0.00  0.00    +0.220 HD
ENDBRANCH  24  28
ENDBRANCH  23  24
ENDBRANCH   5  23
BRANCH   6  30
ATOM     30  C   UNL     1       7.744  -0.858  26.294  0.00  0.00    +0.190 C 
BRANCH  30  31
ATOM     31  O   UNL     1       8.676  -0.375  27.264  0.00  0.00    -0.392 OA
ATOM     32  H   UNL     1       8.341  -0.612  28.144  0.00  0.00    +0.210 HD
ENDBRANCH  30  31
ENDBRANCH   6  30
TORSDOF 7
ENDMDL
MODEL 8
REMARK VINA RESULT:      -6.6      3.636      7.108
REMARK  Name = 
REMARK  7 active torsions:
REMARK  status: ('A' for Active; 'I' for Inactive)
REMARK    1  A    between atoms: N_9  and  C_12
REMARK    2  A    between atoms: C_15  and  C_17
REMARK    3  A    between atoms: C_17  and  O_18
REMARK    4  A    between atoms: C_22  and  C_24
REMARK    5  A    between atoms: C_24  and  P_25
REMARK    6  A    between atoms: P_25  and  O_26
REMARK    7  A    between atoms: P_25  and  O_27
REMARK                            x       y       z     vdW  Elec       q    Type
REMARK                         _______ _______ _______ _____ _____    ______ ____
ROOT
ATOM      1  C   UNL     1       9.711  -0.143  24.748  0.00  0.00    +0.254 C 
ATOM      2  C   UNL     1      10.500   0.573  23.666  0.00  0.00    +0.202 C 
ATOM      3  C   UNL     1       9.481   0.937  22.617  0.00  0.00    +0.185 C 
ATOM      4  O   UNL     1       9.842   2.254  22.197  0.00  0.00    -0.342 OA
ATOM      5  C   UNL     1      10.525   2.866  23.297  0.00  0.00    +0.263 C 
ATOM      6  C   UNL     1       8.146   0.936  23.363  0.00  0.00    +0.178 C 
ATOM      7  O   UNL     1      10.922   1.849  24.221  0.00  0.00    -0.340 OA
ATOM      8  O   UNL     1       8.454   0.609  24.742  0.00  0.00    -0.346 OA
ENDROOT
BRANCH   1  16
ATOM      9  N   UNL     1       5.620  -1.503  27.402  0.00  0.00    -0.329 N 
ATOM     10  H   UNL     1       5.487  -0.557  27.054  0.00  0.00    +0.145 HD
ATOM     11  H   UNL     1       4.730  -1.969  27.516  0.00  0.00    +0.145 HD
ATOM     12  C   UNL     1       6.476  -2.249  26.658  0.00  0.00    +0.195 A 
ATOM     13  N   UNL     1       7.575  -1.537  26.274  0.00  0.00    -0.312 N 
ATOM     14  H   UNL     1       7.544  -0.525  26.357  0.00  0.00    +0.170 HD
ATOM     15  C   UNL     1       8.396  -2.126  25.404  0.00  0.00    +0.148 A 
ATOM     16  N   UNL     1       9.380  -1.548  24.663  0.00  0.00    -0.287 N 
ATOM     17  C   UNL     1       9.914  -2.564  23.917  0.00  0.00    +0.203 A 
ATOM     18  N   UNL     1       9.239  -3.696  24.069  0.00  0.00    -0.229 NA
ATOM     19  C   UNL     1       8.258  -3.421  25.002  0.00  0.00    +0.172 A 
ATOM     20  C   UNL     1       7.134  -4.207  25.546  0.00  0.00    +0.302 A 
ATOM     21  O   UNL     1       6.969  -5.388  25.267  0.00  0.00    -0.263 OA
ATOM     22  N   UNL     1       6.238  -3.495  26.366  0.00  0.00    -0.176 NA
ENDBRANCH   1  16
BRANCH   5  23
ATOM     23  C   UNL     1       9.604   3.883  23.949  0.00  0.00    +0.188 C 
BRANCH  23  24
ATOM     24  P   UNL     1      10.159   5.554  23.766  0.00  0.00    +0.333 P 
ATOM     25  O   UNL     1      10.324   6.311  25.037  0.00  0.00    -0.259 OA
BRANCH  24  26
ATOM     26  O   UNL     1       9.116   6.183  22.724  0.00  0.00    -0.324 OA
ATOM     27  H   UNL     1       9.503   6.904  22.189  0.00  0.00    +0.220 HD
ENDBRANCH  24  26
BRANCH  24  28
ATOM     28  O   UNL     1      11.484   5.438  22.870  0.00  0.00    -0.324 OA
ATOM     29  H   UNL     1      11.442   5.755  21.951  0.00  0.00    +0.220 HD
ENDBRANCH  24  28
ENDBRANCH  23  24
ENDBRANCH   5  23
BRANCH   6  30
ATOM     30  C   UNL     1       7.119  -0.037  22.769  0.00  0.00    +0.190 C 
BRANCH  30  31
ATOM     31  O   UNL     1       6.076  -0.273  23.718  0.00  0.00    -0.392 OA
ATOM     32  H   UNL     1       5.310   0.267  23.461  0.00  0.00    +0.210 HD
ENDBRANCH  30  31
ENDBRANCH   6  30
TORSDOF 7
ENDMDL
MODEL 9
REMARK VINA RESULT:      -6.6      2.973      4.220
REMARK  Name = 
REMARK  7 active torsions:
REMARK  status: ('A' for Active; 'I' for Inactive)
REMARK    1  A    between atoms: N_9  and  C_12
REMARK    2  A    between atoms: C_15  and  C_17
REMARK    3  A    between atoms: C_17  and  O_18
REMARK    4  A    between atoms: C_22  and  C_24
REMARK    5  A    between atoms: C_24  and  P_25
REMARK    6  A    between atoms: P_25  and  O_26
REMARK    7  A    between atoms: P_25  and  O_27
REMARK                            x       y       z     vdW  Elec       q    Type
REMARK                         _______ _______ _______ _____ _____    ______ ____
ROOT
ATOM      1  C   UNL     1       6.676  -2.707  22.924  0.00  0.00    +0.254 C 
ATOM      2  C   UNL     1       6.506  -3.930  22.039  0.00  0.00    +0.202 C 
ATOM      3  C   UNL     1       7.400  -4.980  22.648  0.00  0.00    +0.185 C 
ATOM      4  O   UNL     1       6.651  -6.193  22.567  0.00  0.00    -0.342 OA
ATOM      5  C   UNL     1       5.267  -5.824  22.563  0.00  0.00    +0.263 C 
ATOM      6  C   UNL     1       7.582  -4.532  24.099  0.00  0.00    +0.178 C 
ATOM      7  O   UNL     1       5.158  -4.430  22.258  0.00  0.00    -0.340 OA
ATOM      8  O   UNL     1       6.802  -3.319  24.250  0.00  0.00    -0.346 OA
ENDROOT
BRANCH   1  16
ATOM      9  N   UNL     1       6.995   0.826  26.534  0.00  0.00    -0.329 N 
ATOM     10  H   UNL     1       6.634  -0.031  26.945  0.00  0.00    +0.145 HD
ATOM     11  H   UNL     1       7.493   1.370  27.226  0.00  0.00    +0.145 HD
ATOM     12  C   UNL     1       7.749   0.632  25.423  0.00  0.00    +0.195 A 
ATOM     13  N   UNL     1       7.207  -0.307  24.595  0.00  0.00    -0.312 N 
ATOM     14  H   UNL     1       6.480  -0.912  24.965  0.00  0.00    +0.170 HD
ATOM     15  C   UNL     1       7.952  -0.692  23.557  0.00  0.00    +0.148 A 
ATOM     16  N   UNL     1       7.775  -1.783  22.764  0.00  0.00    -0.287 N 
ATOM     17  C   UNL     1       8.808  -1.745  21.864  0.00  0.00    +0.203 A 
ATOM     18  N   UNL     1       9.664  -0.770  22.137  0.00  0.00    -0.229 NA
ATOM     19  C   UNL     1       9.135  -0.104  23.226  0.00  0.00    +0.172 A 
ATOM     20  C   UNL     1       9.626   1.005  24.066  0.00  0.00    +0.302 A 
ATOM     21  O   UNL     1      10.658   1.612  23.808  0.00  0.00    -0.263 OA
ATOM     22  N   UNL     1       8.855   1.284  25.211  0.00  0.00    -0.176 NA
ENDBRANCH   1  16
BRANCH   5  23
ATOM     23  C   UNL     1       4.663  -6.146  23.920  0.00  0.00    +0.188 C 
BRANCH  23  24
ATOM     24  P   UNL     1       3.206  -5.210  24.281  0.00  0.00    +0.333 P 
ATOM     25  O   UNL     1       2.394  -5.712  25.424  0.00  0.00    -0.259 OA
BRANCH  24  26
ATOM     26  O   UNL     1       2.442  -5.148  22.873  0.00  0.00    -0.324 OA
ATOM     27  H   UNL     1       1.469  -5.132  22.969  0.00  0.00    +0.220 HD
ENDBRANCH  24  26
BRANCH  24  28
ATOM     28  O   UNL     1       3.727  -3.701  24.433  0.00  0.00    -0.324 OA
ATOM     29  H   UNL     1       4.356  -3.366  23.770  0.00  0.00    +0.220 HD
ENDBRANCH  24  28
ENDBRANCH  23  24
ENDBRANCH   5  23
BRANCH   6  30
ATOM     30  C   UNL     1       9.050  -4.310  24.488  0.00  0.00    +0.190 C 
BRANCH  30  31
ATOM     31  O   UNL     1       9.680  -5.569  24.731  0.00  0.00    -0.392 OA
ATOM     32  H   UNL     1      10.636  -5.415  24.811  0.00  0.00    +0.210 HD
ENDBRANCH  30  31
ENDBRANCH   6  30
TORSDOF 7
ENDMDL
