MODEL 1
REMARK VINA RESULT:      -5.8      0.000      0.000
REMARK  Name = 
REMARK  6 active torsions:
REMARK  status: ('A' for Active; 'I' for Inactive)
REMARK    1  A    between atoms: C_1  and  N_2
REMARK    2  A    between atoms: C_8  and  C_10
REMARK    3  A    between atoms: C_10  and  O_11
REMARK    4  A    between atoms: C_12  and  O_14
REMARK    5  A    between atoms: C_15  and  O_17
REMARK    6  A    between atoms: C_18  and  O_20
REMARK                            x       y       z     vdW  Elec       q    Type
REMARK                         _______ _______ _______ _____ _____    ______ ____
ROOT
ATOM      1  C   UNL     1       7.704  -2.922  25.924  0.00  0.00    +0.143 C 
ATOM      2  N   UNL     1       8.420  -2.282  24.852  0.00  0.00    -0.225 N 
ATOM      3  C   UNL     1       8.007  -1.153  24.212  0.00  0.00    +0.276 C 
ATOM      4  O   UNL     1       6.943  -0.571  24.385  0.00  0.00    -0.270 OA
ATOM      5  C   UNL     1       9.130  -0.680  23.259  0.00  0.00    +0.244 C 
ATOM      6  C   UNL     1       8.573  -0.249  21.889  0.00  0.00    +0.205 C 
ATOM      7  C   UNL     1       8.101   1.219  21.914  0.00  0.00    +0.179 C 
ATOM      8  C   UNL     1       9.197   2.123  22.498  0.00  0.00    +0.177 C 
ATOM      9  C   UNL     1       9.687   1.625  23.868  0.00  0.00    +0.178 C 
ATOM     10  O   UNL     1      10.037   0.230  23.853  0.00  0.00    -0.338 OA
ATOM     11  N   UNL     1       9.855  -1.921  23.203  0.00  0.00    -0.261 N 
ATOM     12  H   UNL     1      10.683  -2.058  22.639  0.00  0.00    +0.154 HD
ATOM     13  C   UNL     1       9.511  -2.788  24.213  0.00  0.00    +0.311 C 
ATOM     14  O   UNL     1      10.080  -3.836  24.440  0.00  0.00    -0.252 OA
ENDROOT
BRANCH   6  15
ATOM     15  O   UNL     1       9.589  -0.411  20.872  0.00  0.00    -0.384 OA
ATOM     16  H   UNL     1      10.323   0.201  21.100  0.00  0.00    +0.210 HD
ENDBRANCH   6  15
BRANCH   7  17
ATOM     17  O   UNL     1       6.871   1.447  22.600  0.00  0.00    -0.386 OA
ATOM     18  H   UNL     1       6.957   1.298  23.564  0.00  0.00    +0.210 HD
ENDBRANCH   7  17
BRANCH   8  19
ATOM     19  O   UNL     1      10.309   2.108  21.582  0.00  0.00    -0.386 OA
ATOM     20  H   UNL     1      11.124   2.143  22.118  0.00  0.00    +0.210 HD
ENDBRANCH   8  19
BRANCH   9  21
ATOM     21  C   UNL     1       8.755   2.001  25.031  0.00  0.00    +0.190 C 
BRANCH  21  22
ATOM     22  O   UNL     1       8.079   3.228  24.758  0.00  0.00    -0.392 OA
ATOM     23  H   UNL     1       8.511   3.638  23.987  0.00  0.00    +0.210 HD
ENDBRANCH  21  22
ENDBRANCH   9  21
TORSDOF 5
ENDMDL
MODEL 2
REMARK VINA RESULT:      -5.8      2.398      5.562
REMARK  Name = 
REMARK  6 active torsions:
REMARK  status: ('A' for Active; 'I' for Inactive)
REMARK    1  A    between atoms: C_1  and  N_2
REMARK    2  A    between atoms: C_8  and  C_10
REMARK    3  A    between atoms: C_10  and  O_11
REMARK    4  A    between atoms: C_12  and  O_14
REMARK    5  A    between atoms: C_15  and  O_17
REMARK    6  A    between atoms: C_18  and  O_20
REMARK                            x       y       z     vdW  Elec       q    Type
REMARK                         _______ _______ _______ _____ _____    ______ ____
ROOT
ATOM      1  C   UNL     1      10.526  -0.222  23.758  0.00  0.00    +0.143 C 
ATOM      2  N   UNL     1       9.308  -0.965  23.562  0.00  0.00    -0.225 N 
ATOM      3  C   UNL     1       9.184  -2.308  23.748  0.00  0.00    +0.276 C 
ATOM      4  O   UNL     1      10.089  -3.088  24.018  0.00  0.00    -0.270 OA
ATOM      5  C   UNL     1       7.692  -2.694  23.619  0.00  0.00    +0.244 C 
ATOM      6  C   UNL     1       7.503  -3.977  22.790  0.00  0.00    +0.205 C 
ATOM      7  C   UNL     1       7.658  -5.238  23.664  0.00  0.00    +0.179 C 
ATOM      8  C   UNL     1       6.783  -5.126  24.922  0.00  0.00    +0.177 C 
ATOM      9  C   UNL     1       7.044  -3.822  25.693  0.00  0.00    +0.178 C 
ATOM     10  O   UNL     1       6.986  -2.661  24.846  0.00  0.00    -0.338 OA
ATOM     11  N   UNL     1       7.257  -1.510  22.926  0.00  0.00    -0.261 N 
ATOM     12  H   UNL     1       6.307  -1.365  22.614  0.00  0.00    +0.154 HD
ATOM     13  C   UNL     1       8.162  -0.479  23.011  0.00  0.00    +0.311 C 
ATOM     14  O   UNL     1       7.953   0.651  22.615  0.00  0.00    -0.252 OA
ENDROOT
BRANCH   6  15
ATOM     15  O   UNL     1       6.193  -3.978  22.174  0.00  0.00    -0.384 OA
ATOM     16  H   UNL     1       6.006  -4.902  21.897  0.00  0.00    +0.210 HD
ENDBRANCH   6  15
BRANCH   7  17
ATOM     17  O   UNL     1       8.999  -5.553  24.035  0.00  0.00    -0.386 OA
ATOM     18  H   UNL     1       9.052  -5.916  24.943  0.00  0.00    +0.210 HD
ENDBRANCH   7  17
BRANCH   8  19
ATOM     19  O   UNL     1       5.406  -5.139  24.498  0.00  0.00    -0.386 OA
ATOM     20  H   UNL     1       5.344  -5.747  23.737  0.00  0.00    +0.210 HD
ENDBRANCH   8  19
BRANCH   9  21
ATOM     21  C   UNL     1       8.304  -3.866  26.573  0.00  0.00    +0.190 C 
BRANCH  21  22
ATOM     22  O   UNL     1       8.532  -5.188  27.060  0.00  0.00    -0.392 OA
ATOM     23  H   UNL     1       8.868  -5.723  26.319  0.00  0.00    +0.210 HD
ENDBRANCH  21  22
ENDBRANCH   9  21
TORSDOF 5
ENDMDL
MODEL 3
REMARK VINA RESULT:      -5.8      1.566      1.880
REMARK  Name = 
REMARK  6 active torsions:
REMARK  status: ('A' for Active; 'I' for Inactive)
REMARK    1  A    between atoms: C_1  and  N_2
REMARK    2  A    between atoms: C_8  and  C_10
REMARK    3  A    between atoms: C_10  and  O_11
REMARK    4  A    between atoms: C_12  and  O_14
REMARK    5  A    between atoms: C_15  and  O_17
REMARK    6  A    between atoms: C_18  and  O_20
REMARK                            x       y       z     vdW  Elec       q    Type
REMARK                         _______ _______ _______ _____ _____    ______ ____
ROOT
ATOM      1  C   UNL     1       7.718  -2.699  23.693  0.00  0.00    +0.143 C 
ATOM      2  N   UNL     1       8.498  -1.532  23.373  0.00  0.00    -0.225 N 
ATOM      3  C   UNL     1       7.982  -0.287  23.183  0.00  0.00    +0.276 C 
ATOM      4  O   UNL     1       6.794   0.010  23.166  0.00  0.00    -0.270 OA
ATOM      5  C   UNL     1       9.148   0.721  23.046  0.00  0.00    +0.244 C 
ATOM      6  C   UNL     1       8.905   1.725  21.903  0.00  0.00    +0.205 C 
ATOM      7  C   UNL     1       8.051   2.918  22.378  0.00  0.00    +0.179 C 
ATOM      8  C   UNL     1       8.635   3.512  23.669  0.00  0.00    +0.177 C 
ATOM      9  C   UNL     1       8.836   2.444  24.757  0.00  0.00    +0.178 C 
ATOM     10  O   UNL     1       9.555   1.295  24.275  0.00  0.00    -0.338 OA
ATOM     11  N   UNL     1      10.180  -0.235  22.741  0.00  0.00    -0.261 N 
ATOM     12  H   UNL     1      11.136   0.022  22.542  0.00  0.00    +0.154 HD
ATOM     13  C   UNL     1       9.822  -1.525  23.054  0.00  0.00    +0.311 C 
ATOM     14  O   UNL     1      10.575  -2.476  23.004  0.00  0.00    -0.252 OA
ENDROOT
BRANCH   6  15
ATOM     15  O   UNL     1      10.170   2.210  21.396  0.00  0.00    -0.384 OA
ATOM     16  H   UNL     1      10.178   2.035  20.429  0.00  0.00    +0.210 HD
ENDBRANCH   6  15
BRANCH   7  17
ATOM     17  O   UNL     1       6.665   2.634  22.561  0.00  0.00    -0.386 OA
ATOM     18  H   UNL     1       6.157   2.740  21.731  0.00  0.00    +0.210 HD
ENDBRANCH   7  17
BRANCH   8  19
ATOM     19  O   UNL     1       9.918   4.081  23.346  0.00  0.00    -0.386 OA
ATOM     20  H   UNL     1      10.490   3.965  24.128  0.00  0.00    +0.210 HD
ENDBRANCH   8  19
BRANCH   9  21
ATOM     21  C   UNL     1       7.545   2.077  25.508  0.00  0.00    +0.190 C 
BRANCH  21  22
ATOM     22  O   UNL     1       7.826   1.180  26.582  0.00  0.00    -0.392 OA
ATOM     23  H   UNL     1       7.533   0.292  26.311  0.00  0.00    +0.210 HD
ENDBRANCH  21  22
ENDBRANCH   9  21
TORSDOF 5
ENDMDL
MODEL 4
REMARK VINA RESULT:      -5.6      3.722      5.277
REMARK  Name = 
REMARK  6 active torsions:
REMARK  status: ('A' for Active; 'I' for Inactive)
REMARK    1  A    between atoms: C_1  and  N_2
REMARK    2  A    between atoms: C_8  and  C_10
REMARK    3  A    between atoms: C_10  and  O_11
REMARK    4  A    between atoms: C_12  and  O_14
REMARK    5  A    between atoms: C_15  and  O_17
REMARK    6  A    between atoms: C_18  and  O_20
REMARK                            x       y       z     vdW  Elec       q    Type
REMARK                         _______ _______ _______ _____ _____    ______ ____
ROOT
ATOM      1  C   UNL     1       4.452  -6.207  27.224  0.00  0.00    +0.143 C 
ATOM      2  N   UNL     1       5.782  -5.785  26.867  0.00  0.00    -0.225 N 
ATOM      3  C   UNL     1       6.136  -5.297  25.646  0.00  0.00    +0.276 C 
ATOM      4  O   UNL     1       5.416  -5.226  24.658  0.00  0.00    -0.270 OA
ATOM      5  C   UNL     1       7.595  -4.786  25.717  0.00  0.00    +0.244 C 
ATOM      6  C   UNL     1       8.409  -5.208  24.480  0.00  0.00    +0.205 C 
ATOM      7  C   UNL     1       8.215  -4.215  23.316  0.00  0.00    +0.179 C 
ATOM      8  C   UNL     1       8.442  -2.775  23.800  0.00  0.00    +0.177 C 
ATOM      9  C   UNL     1       7.584  -2.436  25.031  0.00  0.00    +0.178 C 
ATOM     10  O   UNL     1       7.705  -3.420  26.073  0.00  0.00    -0.338 OA
ATOM     11  N   UNL     1       7.978  -5.497  26.908  0.00  0.00    -0.261 N 
ATOM     12  H   UNL     1       8.908  -5.460  27.303  0.00  0.00    +0.154 HD
ATOM     13  C   UNL     1       6.901  -5.962  27.623  0.00  0.00    +0.311 C 
ATOM     14  O   UNL     1       6.976  -6.475  28.721  0.00  0.00    -0.252 OA
ENDROOT
BRANCH   6  15
ATOM     15  O   UNL     1       9.814  -5.285  24.817  0.00  0.00    -0.384 OA
ATOM     16  H   UNL     1       9.870  -5.382  25.794  0.00  0.00    +0.210 HD
ENDBRANCH   6  15
BRANCH   7  17
ATOM     17  O   UNL     1       6.958  -4.307  22.647  0.00  0.00    -0.386 OA
ATOM     18  H   UNL     1       6.221  -3.992  23.209  0.00  0.00    +0.210 HD
ENDBRANCH   7  17
BRANCH   8  19
ATOM     19  O   UNL     1       9.831  -2.650  24.164  0.00  0.00    -0.386 OA
ATOM     20  H   UNL     1      10.218  -3.545  24.132  0.00  0.00    +0.210 HD
ENDBRANCH   8  19
BRANCH   9  21
ATOM     21  C   UNL     1       6.124  -2.093  24.690  0.00  0.00    +0.190 C 
BRANCH  21  22
ATOM     22  O   UNL     1       6.036  -1.506  23.392  0.00  0.00    -0.392 OA
ATOM     23  H   UNL     1       6.878  -1.673  22.933  0.00  0.00    +0.210 HD
ENDBRANCH  21  22
ENDBRANCH   9  21
TORSDOF 5
ENDMDL
MODEL 5
REMARK VINA RESULT:      -5.6      2.419      5.168
REMARK  Name = 
REMARK  6 active torsions:
REMARK  status: ('A' for Active; 'I' for Inactive)
REMARK    1  A    between atoms: C_1  and  N_2
REMARK    2  A    between atoms: C_8  and  C_10
REMARK    3  A    between atoms: C_10  and  O_11
REMARK    4  A    between atoms: C_12  and  O_14
REMARK    5  A    between atoms: C_15  and  O_17
REMARK    6  A    between atoms: C_18  and  O_20
REMARK                            x       y       z     vdW  Elec       q    Type
REMARK                         _______ _______ _______ _____ _____    ______ ____
ROOT
ATOM      1  C   UNL     1       7.315   1.451  22.556  0.00  0.00    +0.143 C 
ATOM      2  N   UNL     1       7.960   0.171  22.690  0.00  0.00    -0.225 N 
ATOM      3  C   UNL     1       7.445  -0.885  23.377  0.00  0.00    +0.276 C 
ATOM      4  O   UNL     1       6.419  -0.883  24.047  0.00  0.00    -0.270 OA
ATOM      5  C   UNL     1       8.339  -2.124  23.132  0.00  0.00    +0.244 C 
ATOM      6  C   UNL     1       8.593  -2.911  24.431  0.00  0.00    +0.205 C 
ATOM      7  C   UNL     1       7.451  -3.907  24.715  0.00  0.00    +0.179 C 
ATOM      8  C   UNL     1       7.162  -4.758  23.470  0.00  0.00    +0.177 C 
ATOM      9  C   UNL     1       6.910  -3.893  22.224  0.00  0.00    +0.178 C 
ATOM     10  O   UNL     1       7.938  -2.907  22.022  0.00  0.00    -0.338 OA
ATOM     11  N   UNL     1       9.504  -1.418  22.668  0.00  0.00    -0.261 N 
ATOM     12  H   UNL     1      10.368  -1.876  22.415  0.00  0.00    +0.154 HD
ATOM     13  C   UNL     1       9.232  -0.121  22.302  0.00  0.00    +0.311 C 
ATOM     14  O   UNL     1      10.029   0.620  21.763  0.00  0.00    -0.252 OA
ENDROOT
BRANCH   6  15
ATOM     15  O   UNL     1       9.845  -3.631  24.333  0.00  0.00    -0.384 OA
ATOM     16  H   UNL     1       9.987  -4.078  25.197  0.00  0.00    +0.210 HD
ENDBRANCH   6  15
BRANCH   7  17
ATOM     17  O   UNL     1       6.241  -3.318  25.189  0.00  0.00    -0.386 OA
ATOM     18  H   UNL     1       5.900  -2.636  24.574  0.00  0.00    +0.210 HD
ENDBRANCH   7  17
BRANCH   8  19
ATOM     19  O   UNL     1       8.318  -5.583  23.227  0.00  0.00    -0.386 OA
ATOM     20  H   UNL     1       8.819  -5.630  24.063  0.00  0.00    +0.210 HD
ENDBRANCH   8  19
BRANCH   9  21
ATOM     21  C   UNL     1       5.490  -3.308  22.155  0.00  0.00    +0.190 C 
BRANCH  21  22
ATOM     22  O   UNL     1       4.542  -4.224  22.701  0.00  0.00    -0.392 OA
ATOM     23  H   UNL     1       4.891  -4.538  23.554  0.00  0.00    +0.210 HD
ENDBRANCH  21  22
ENDBRANCH   9  21
TORSDOF 5
ENDMDL
MODEL 6
REMARK VINA RESULT:      -5.6      2.124      3.989
REMARK  Name = 
REMARK  6 active torsions:
REMARK  status: ('A' for Active; 'I' for Inactive)
REMARK    1  A    between atoms: C_1  and  N_2
REMARK    2  A    between atoms: C_8  and  C_10
REMARK    3  A    between atoms: C_10  and  O_11
REMARK    4  A    between atoms: C_12  and  O_14
REMARK    5  A    between atoms: C_15  and  O_17
REMARK    6  A    between atoms: C_18  and  O_20
REMARK                            x       y       z     vdW  Elec       q    Type
REMARK                         _______ _______ _______ _____ _____    ______ ____
ROOT
ATOM      1  C   UNL     1       5.360  -1.037  25.590  0.00  0.00    +0.143 C 
ATOM      2  N   UNL     1       6.085   0.027  24.945  0.00  0.00    -0.225 N 
ATOM      3  C   UNL     1       7.424   0.013  24.702  0.00  0.00    +0.276 C 
ATOM      4  O   UNL     1       8.217  -0.848  25.065  0.00  0.00    -0.270 OA
ATOM      5  C   UNL     1       7.787   1.241  23.834  0.00  0.00    +0.244 C 
ATOM      6  C   UNL     1       9.073   1.929  24.328  0.00  0.00    +0.205 C 
ATOM      7  C   UNL     1      10.330   1.257  23.738  0.00  0.00    +0.179 C 
ATOM      8  C   UNL     1      10.195   1.118  22.214  0.00  0.00    +0.177 C 
ATOM      9  C   UNL     1       8.890   0.412  21.812  0.00  0.00    +0.178 C 
ATOM     10  O   UNL     1       7.734   0.992  22.441  0.00  0.00    -0.338 OA
ATOM     11  N   UNL     1       6.601   2.011  24.104  0.00  0.00    -0.261 N 
ATOM     12  H   UNL     1       6.443   2.938  23.734  0.00  0.00    +0.154 HD
ATOM     13  C   UNL     1       5.584   1.255  24.637  0.00  0.00    +0.311 C 
ATOM     14  O   UNL     1       4.455   1.661  24.824  0.00  0.00    -0.252 OA
ENDROOT
BRANCH   6  15
ATOM     15  O   UNL     1       9.057   3.328  23.956  0.00  0.00    -0.384 OA
ATOM     16  H   UNL     1       8.293   3.739  24.418  0.00  0.00    +0.210 HD
ENDBRANCH   6  15
BRANCH   7  17
ATOM     17  O   UNL     1      10.664  -0.005  24.311  0.00  0.00    -0.386 OA
ATOM     18  H   UNL     1      10.347  -0.752  23.763  0.00  0.00    +0.210 HD
ENDBRANCH   7  17
BRANCH   8  19
ATOM     19  O   UNL     1      10.189   2.445  21.653  0.00  0.00    -0.386 OA
ATOM     20  H   UNL     1       9.925   3.058  22.365  0.00  0.00    +0.210 HD
ENDBRANCH   8  19
BRANCH   9  21
ATOM     21  C   UNL     1       8.948  -1.118  21.948  0.00  0.00    +0.190 C 
BRANCH  21  22
ATOM     22  O   UNL     1      10.261  -1.599  21.664  0.00  0.00    -0.392 OA
ATOM     23  H   UNL     1      10.656  -1.007  21.000  0.00  0.00    +0.210 HD
ENDBRANCH  21  22
ENDBRANCH   9  21
TORSDOF 5
ENDMDL
MODEL 7
REMARK VINA RESULT:      -5.6      2.713      5.896
REMARK  Name = 
REMARK  6 active torsions:
REMARK  status: ('A' for Active; 'I' for Inactive)
REMARK    1  A    between atoms: C_1  and  N_2
REMARK    2  A    between atoms: C_8  and  C_10
REMARK    3  A    between atoms: C_10  and  O_11
REMARK    4  A    between atoms: C_12  and  O_14
REMARK    5  A    between atoms: C_15  and  O_17
REMARK    6  A    between atoms: C_18  and  O_20
REMARK                            x       y       z     vdW  Elec       q    Type
REMARK                         _______ _______ _______ _____ _____    ______ ____
ROOT
ATOM      1  C   UNL     1      10.285  -1.410  22.694  0.00  0.00    +0.143 C 
ATOM      2  N   UNL     1       9.521  -1.621  23.896  0.00  0.00    -0.225 N 
ATOM      3  C   UNL     1       8.596  -2.606  24.061  0.00  0.00    +0.276 C 
ATOM      4  O   UNL     1       8.214  -3.392  23.203  0.00  0.00    -0.270 OA
ATOM      5  C   UNL     1       8.135  -2.615  25.538  0.00  0.00    +0.244 C 
ATOM      6  C   UNL     1       6.608  -2.778  25.659  0.00  0.00    +0.205 C 
ATOM      7  C   UNL     1       6.199  -4.264  25.618  0.00  0.00    +0.179 C 
ATOM      8  C   UNL     1       7.033  -5.076  26.619  0.00  0.00    +0.177 C 
ATOM      9  C   UNL     1       8.543  -4.862  26.420  0.00  0.00    +0.178 C 
ATOM     10  O   UNL     1       8.899  -3.470  26.369  0.00  0.00    -0.338 OA
ATOM     11  N   UNL     1       8.586  -1.291  25.877  0.00  0.00    -0.261 N 
ATOM     12  H   UNL     1       8.448  -0.873  26.787  0.00  0.00    +0.154 HD
ATOM     13  C   UNL     1       9.485  -0.784  24.970  0.00  0.00    +0.311 C 
ATOM     14  O   UNL     1      10.094   0.256  25.117  0.00  0.00    -0.252 OA
ENDROOT
BRANCH   6  15
ATOM     15  O   UNL     1       6.147  -2.186  26.897  0.00  0.00    -0.384 OA
ATOM     16  H   UNL     1       6.226  -1.212  26.796  0.00  0.00    +0.210 HD
ENDBRANCH   6  15
BRANCH   7  17
ATOM     17  O   UNL     1       6.263  -4.872  24.329  0.00  0.00    -0.386 OA
ATOM     18  H   UNL     1       5.381  -4.930  23.907  0.00  0.00    +0.210 HD
ENDBRANCH   7  17
BRANCH   8  19
ATOM     19  O   UNL     1       6.680  -4.633  27.944  0.00  0.00    -0.386 OA
ATOM     20  H   UNL     1       5.706  -4.621  27.993  0.00  0.00    +0.210 HD
ENDBRANCH   8  19
BRANCH   9  21
ATOM     21  C   UNL     1       9.135  -5.680  25.260  0.00  0.00    +0.190 C 
BRANCH  21  22
ATOM     22  O   UNL     1      10.519  -5.376  25.085  0.00  0.00    -0.392 OA
ATOM     23  H   UNL     1      11.025  -6.190  25.255  0.00  0.00    +0.210 HD
ENDBRANCH  21  22
ENDBRANCH   9  21
TORSDOF 5
ENDMDL
MODEL 8
REMARK VINA RESULT:      -5.5      1.757      3.369
REMARK  Name = 
REMARK  6 active torsions:
REMARK  status: ('A' for Active; 'I' for Inactive)
REMARK    1  A    between atoms: C_1  and  N_2
REMARK    2  A    between atoms: C_8  and  C_10
REMARK    3  A    between atoms: C_10  and  O_11
REMARK    4  A    between atoms: C_12  and  O_14
REMARK    5  A    between atoms: C_15  and  O_17
REMARK    6  A    between atoms: C_18  and  O_20
REMARK                            x       y       z     vdW  Elec       q    Type
REMARK                         _______ _______ _______ _____ _____    ______ ____
ROOT
ATOM      1  C   UNL     1       7.404  -3.848  22.311  0.00  0.00    +0.143 C 
ATOM      2  N   UNL     1       7.471  -2.791  23.287  0.00  0.00    -0.225 N 
ATOM      3  C   UNL     1       8.468  -1.868  23.358  0.00  0.00    +0.276 C 
ATOM      4  O   UNL     1       9.486  -1.846  22.676  0.00  0.00    -0.270 OA
ATOM      5  C   UNL     1       8.086  -0.801  24.411  0.00  0.00    +0.244 C 
ATOM      6  C   UNL     1       9.279  -0.435  25.313  0.00  0.00    +0.205 C 
ATOM      7  C   UNL     1      10.159   0.653  24.665  0.00  0.00    +0.179 C 
ATOM      8  C   UNL     1       9.292   1.834  24.201  0.00  0.00    +0.177 C 
ATOM      9  C   UNL     1       8.133   1.379  23.299  0.00  0.00    +0.178 C 
ATOM     10  O   UNL     1       7.376   0.301  23.876  0.00  0.00    -0.338 OA
ATOM     11  N   UNL     1       7.083  -1.573  25.096  0.00  0.00    -0.261 N 
ATOM     12  H   UNL     1       6.579  -1.238  25.906  0.00  0.00    +0.154 HD
ATOM     13  C   UNL     1       6.654  -2.657  24.368  0.00  0.00    +0.311 C 
ATOM     14  O   UNL     1       5.726  -3.373  24.687  0.00  0.00    -0.252 OA
ENDROOT
BRANCH   6  15
ATOM     15  O   UNL     1       8.801   0.034  26.596  0.00  0.00    -0.384 OA
ATOM     16  H   UNL     1       9.461  -0.246  27.269  0.00  0.00    +0.210 HD
ENDBRANCH   6  15
BRANCH   7  17
ATOM     17  O   UNL     1      10.979   0.204  23.589  0.00  0.00    -0.386 OA
ATOM     18  H   UNL     1      11.884  -0.022  23.887  0.00  0.00    +0.210 HD
ENDBRANCH   7  17
BRANCH   8  19
ATOM     19  O   UNL     1       8.739   2.458  25.376  0.00  0.00    -0.386 OA
ATOM     20  H   UNL     1       9.178   2.056  26.149  0.00  0.00    +0.210 HD
ENDBRANCH   8  19
BRANCH   9  21
ATOM     21  C   UNL     1       8.551   1.112  21.843  0.00  0.00    +0.190 C 
BRANCH  21  22
ATOM     22  O   UNL     1       9.598   1.999  21.450  0.00  0.00    -0.392 OA
ATOM     23  H   UNL     1      10.389   1.460  21.268  0.00  0.00    +0.210 HD
ENDBRANCH  21  22
ENDBRANCH   9  21
TORSDOF 5
ENDMDL
MODEL 9
REMARK VINA RESULT:      -5.5      3.900      6.098
REMARK  Name = 
REMARK  6 active torsions:
REMARK  status: ('A' for Active; 'I' for Inactive)
REMARK    1  A    between atoms: C_1  and  N_2
REMARK    2  A    between atoms: C_8  and  C_10
REMARK    3  A    between atoms: C_10  and  O_11
REMARK    4  A    between atoms: C_12  and  O_14
REMARK    5  A    between atoms: C_15  and  O_17
REMARK    6  A    between atoms: C_18  and  O_20
REMARK                            x       y       z     vdW  Elec       q    Type
REMARK                         _______ _______ _______ _____ _____    ______ ____
ROOT
ATOM      1  C   UNL     1       5.962  -6.019  20.881  0.00  0.00    +0.143 C 
ATOM      2  N   UNL     1       5.963  -5.532  22.236  0.00  0.00    -0.225 N 
ATOM      3  C   UNL     1       7.076  -5.402  23.009  0.00  0.00    +0.276 C 
ATOM      4  O   UNL     1       8.211  -5.754  22.710  0.00  0.00    -0.270 OA
ATOM      5  C   UNL     1       6.691  -4.678  24.321  0.00  0.00    +0.244 C 
ATOM      6  C   UNL     1       7.346  -5.335  25.550  0.00  0.00    +0.205 C 
ATOM      7  C   UNL     1       8.772  -4.797  25.780  0.00  0.00    +0.179 C 
ATOM      8  C   UNL     1       8.771  -3.261  25.772  0.00  0.00    +0.177 C 
ATOM      9  C   UNL     1       8.109  -2.690  24.506  0.00  0.00    +0.178 C 
ATOM     10  O   UNL     1       6.816  -3.269  24.253  0.00  0.00    -0.338 OA
ATOM     11  N   UNL     1       5.273  -4.913  24.248  0.00  0.00    -0.261 N 
ATOM     12  H   UNL     1       4.622  -4.614  24.960  0.00  0.00    +0.154 HD
ATOM     13  C   UNL     1       4.858  -5.291  22.994  0.00  0.00    +0.311 C 
ATOM     14  O   UNL     1       3.695  -5.418  22.666  0.00  0.00    -0.252 OA
ENDROOT
BRANCH   6  15
ATOM     15  O   UNL     1       6.542  -5.087  26.727  0.00  0.00    -0.384 OA
ATOM     16  H   UNL     1       5.611  -5.002  26.427  0.00  0.00    +0.210 HD
ENDBRANCH   6  15
BRANCH   7  17
ATOM     17  O   UNL     1       9.755  -5.284  24.869  0.00  0.00    -0.386 OA
ATOM     18  H   UNL     1       9.871  -4.687  24.101  0.00  0.00    +0.210 HD
ENDBRANCH   7  17
BRANCH   8  19
ATOM     19  O   UNL     1       8.020  -2.818  26.919  0.00  0.00    -0.386 OA
ATOM     20  H   UNL     1       7.087  -3.057  26.762  0.00  0.00    +0.210 HD
ENDBRANCH   8  19
BRANCH   9  21
ATOM     21  C   UNL     1       9.026  -2.698  23.272  0.00  0.00    +0.190 C 
BRANCH  21  22
ATOM     22  O   UNL     1      10.397  -2.747  23.665  0.00  0.00    -0.392 OA
ATOM     23  H   UNL     1      10.679  -1.837  23.869  0.00  0.00    +0.210 HD
ENDBRANCH  21  22
ENDBRANCH   9  21
TORSDOF 5
ENDMDL
