MODEL 1
REMARK VINA RESULT:      -7.0      0.000      0.000
REMARK  Name = 
REMARK  3 active torsions:
REMARK  status: ('A' for Active; 'I' for Inactive)
REMARK    1  A    between atoms: C_1  and  C_2
REMARK    2  A    between atoms: C_5  and  C_7
REMARK    3  A    between atoms: C_8  and  C_9
REMARK                            x       y       z     vdW  Elec       q    Type
REMARK                         _______ _______ _______ _____ _____    ______ ____
ROOT
ATOM      1  C   UNL     1       8.793  -1.659  23.589  0.00  0.00    +0.092 A 
ATOM      2  C   UNL     1       9.925  -1.118  22.770  0.00  0.00    +0.261 A 
ATOM      3  O   UNL     1      10.583  -1.817  22.003  0.00  0.00    -0.267 OA
ATOM      4  N   UNL     1      10.200   0.215  22.883  0.00  0.00    -0.321 N 
ATOM      5  H   UNL     1      10.964   0.552  22.313  0.00  0.00    +0.169 HD
ATOM      6  C   UNL     1       9.487   1.085  23.706  0.00  0.00    +0.050 A 
ATOM      7  C   UNL     1       9.819   2.442  23.711  0.00  0.00    +0.028 A 
ATOM      8  C   UNL     1       9.102   3.324  24.518  0.00  0.00    +0.022 A 
ATOM      9  C   UNL     1       8.076   2.842  25.325  0.00  0.00    +0.042 A 
ATOM     10  C   UNL     1       7.751   1.483  25.326  0.00  0.00    +0.030 A 
ATOM     11 CL   UNL     1       7.187   3.931  26.317  0.00  0.00    -0.084 Cl
ATOM     12  C   UNL     1       8.449   0.584  24.504  0.00  0.00    +0.008 A 
ATOM     13  C   UNL     1       8.096  -0.861  24.437  0.00  0.00    +0.007 A 
ENDROOT
BRANCH   1  17
ATOM     14  C   UNL     1       6.917  -6.100  22.097  0.00  0.00    +0.069 C 
ATOM     15  C   UNL     1       7.664  -5.013  22.768  0.00  0.00    +0.081 A 
ATOM     16  C   UNL     1       7.568  -3.625  22.541  0.00  0.00    +0.076 A 
ATOM     17  C   UNL     1       8.473  -3.038  23.409  0.00  0.00    +0.173 A 
ATOM     18  O   UNL     1       9.071  -4.058  24.111  0.00  0.00    -0.354 OA
ATOM     19  N   UNL     1       8.563  -5.282  23.716  0.00  0.00    -0.083 NA
ENDBRANCH   1  17
BRANCH  13  20
ATOM     20  C   UNL     1       6.985  -1.441  25.235  0.00  0.00    -0.016 A 
ATOM     21  C   UNL     1       7.258  -2.124  26.426  0.00  0.00    +0.008 A 
ATOM     22  C   UNL     1       6.218  -2.690  27.164  0.00  0.00    +0.001 A 
ATOM     23  C   UNL     1       4.903  -2.580  26.712  0.00  0.00    +0.000 A 
ATOM     24  C   UNL     1       4.625  -1.906  25.523  0.00  0.00    +0.001 A 
ATOM     25  C   UNL     1       5.662  -1.337  24.784  0.00  0.00    +0.008 A 
ENDBRANCH  13  20
TORSDOF 2
ENDMDL
MODEL 2
REMARK VINA RESULT:      -6.7      2.664      5.456
REMARK  Name = 
REMARK  3 active torsions:
REMARK  status: ('A' for Active; 'I' for Inactive)
REMARK    1  A    between atoms: C_1  and  C_2
REMARK    2  A    between atoms: C_5  and  C_7
REMARK    3  A    between atoms: C_8  and  C_9
REMARK                            x       y       z     vdW  Elec       q    Type
REMARK                         _______ _______ _______ _____ _____    ______ ____
ROOT
ATOM      1  C   UNL     1       9.013  -1.145  24.239  0.00  0.00    +0.092 A 
ATOM      2  C   UNL     1       9.848  -2.285  23.741  0.00  0.00    +0.261 A 
ATOM      3  O   UNL     1      10.739  -2.141  22.908  0.00  0.00    -0.267 OA
ATOM      4  N   UNL     1       9.602  -3.519  24.271  0.00  0.00    -0.321 N 
ATOM      5  H   UNL     1      10.187  -4.267  23.922  0.00  0.00    +0.169 HD
ATOM      6  C   UNL     1       8.632  -3.768  25.240  0.00  0.00    +0.050 A 
ATOM      7  C   UNL     1       8.496  -5.060  25.752  0.00  0.00    +0.028 A 
ATOM      8  C   UNL     1       7.540  -5.316  26.733  0.00  0.00    +0.022 A 
ATOM      9  C   UNL     1       6.718  -4.286  27.180  0.00  0.00    +0.042 A 
ATOM     10  C   UNL     1       6.849  -2.996  26.661  0.00  0.00    +0.030 A 
ATOM     11 CL   UNL     1       5.541  -4.600  28.396  0.00  0.00    -0.084 Cl
ATOM     12  C   UNL     1       7.820  -2.716  25.687  0.00  0.00    +0.008 A 
ATOM     13  C   UNL     1       8.027  -1.342  25.151  0.00  0.00    +0.007 A 
ENDROOT
BRANCH   1  17
ATOM     14  C   UNL     1      10.906   3.450  23.360  0.00  0.00    +0.069 C 
ATOM     15  C   UNL     1      10.147   2.181  23.314  0.00  0.00    +0.081 A 
ATOM     16  C   UNL     1      10.226   1.089  24.204  0.00  0.00    +0.076 A 
ATOM     17  C   UNL     1       9.326   0.151  23.728  0.00  0.00    +0.173 A 
ATOM     18  O   UNL     1       8.751   0.686  22.600  0.00  0.00    -0.354 OA
ATOM     19  N   UNL     1       9.256   1.948  22.349  0.00  0.00    -0.083 NA
ENDBRANCH   1  17
BRANCH  13  20
ATOM     20  C   UNL     1       7.219  -0.184  25.612  0.00  0.00    -0.016 A 
ATOM     21  C   UNL     1       7.585   0.510  26.772  0.00  0.00    +0.008 A 
ATOM     22  C   UNL     1       6.813   1.583  27.220  0.00  0.00    +0.001 A 
ATOM     23  C   UNL     1       5.671   1.962  26.515  0.00  0.00    +0.000 A 
ATOM     24  C   UNL     1       5.298   1.270  25.362  0.00  0.00    +0.001 A 
ATOM     25  C   UNL     1       6.068   0.199  24.910  0.00  0.00    +0.008 A 
ENDBRANCH  13  20
TORSDOF 2
ENDMDL
MODEL 3
REMARK VINA RESULT:      -6.7      3.226      4.599
REMARK  Name = 
REMARK  3 active torsions:
REMARK  status: ('A' for Active; 'I' for Inactive)
REMARK    1  A    between atoms: C_1  and  C_2
REMARK    2  A    between atoms: C_5  and  C_7
REMARK    3  A    between atoms: C_8  and  C_9
REMARK                            x       y       z     vdW  Elec       q    Type
REMARK                         _______ _______ _______ _____ _____    ______ ____
ROOT
ATOM      1  C   UNL     1       5.692  -5.001  23.562  0.00  0.00    +0.092 A 
ATOM      2  C   UNL     1       6.075  -4.900  22.117  0.00  0.00    +0.261 A 
ATOM      3  O   UNL     1       5.565  -5.599  21.245  0.00  0.00    -0.267 OA
ATOM      4  N   UNL     1       7.015  -3.968  21.782  0.00  0.00    -0.321 N 
ATOM      5  H   UNL     1       7.248  -3.918  20.799  0.00  0.00    +0.169 HD
ATOM      6  C   UNL     1       7.624  -3.116  22.702  0.00  0.00    +0.050 A 
ATOM      7  C   UNL     1       8.538  -2.164  22.246  0.00  0.00    +0.028 A 
ATOM      8  C   UNL     1       9.140  -1.295  23.155  0.00  0.00    +0.022 A 
ATOM      9  C   UNL     1       8.839  -1.397  24.509  0.00  0.00    +0.042 A 
ATOM     10  C   UNL     1       7.930  -2.356  24.965  0.00  0.00    +0.030 A 
ATOM     11 CL   UNL     1       9.577  -0.322  25.632  0.00  0.00    -0.084 Cl
ATOM     12  C   UNL     1       7.300  -3.225  24.061  0.00  0.00    +0.008 A 
ATOM     13  C   UNL     1       6.285  -4.223  24.502  0.00  0.00    +0.007 A 
ENDROOT
BRANCH   1  17
ATOM     14  C   UNL     1       1.312  -7.369  24.390  0.00  0.00    +0.069 C 
ATOM     15  C   UNL     1       2.739  -7.001  24.259  0.00  0.00    +0.081 A 
ATOM     16  C   UNL     1       3.284  -5.765  23.854  0.00  0.00    +0.076 A 
ATOM     17  C   UNL     1       4.658  -5.930  23.888  0.00  0.00    +0.173 A 
ATOM     18  O   UNL     1       4.895  -7.221  24.297  0.00  0.00    -0.354 OA
ATOM     19  N   UNL     1       3.703  -7.882  24.533  0.00  0.00    -0.083 NA
ENDBRANCH   1  17
BRANCH  13  20
ATOM     20  C   UNL     1       5.878  -4.360  25.925  0.00  0.00    -0.016 A 
ATOM     21  C   UNL     1       6.526  -5.284  26.754  0.00  0.00    +0.008 A 
ATOM     22  C   UNL     1       6.130  -5.432  28.084  0.00  0.00    +0.001 A 
ATOM     23  C   UNL     1       5.082  -4.661  28.587  0.00  0.00    +0.000 A 
ATOM     24  C   UNL     1       4.429  -3.743  27.765  0.00  0.00    +0.001 A 
ATOM     25  C   UNL     1       4.824  -3.592  26.436  0.00  0.00    +0.008 A 
ENDBRANCH  13  20
TORSDOF 2
ENDMDL
MODEL 4
REMARK VINA RESULT:      -6.5      2.211      2.944
REMARK  Name = 
REMARK  3 active torsions:
REMARK  status: ('A' for Active; 'I' for Inactive)
REMARK    1  A    between atoms: C_1  and  C_2
REMARK    2  A    between atoms: C_5  and  C_7
REMARK    3  A    between atoms: C_8  and  C_9
REMARK                            x       y       z     vdW  Elec       q    Type
REMARK                         _______ _______ _______ _____ _____    ______ ____
ROOT
ATOM      1  C   UNL     1       8.228  -3.068  25.176  0.00  0.00    +0.092 A 
ATOM      2  C   UNL     1       9.424  -3.540  24.407  0.00  0.00    +0.261 A 
ATOM      3  O   UNL     1       9.852  -4.690  24.485  0.00  0.00    -0.267 OA
ATOM      4  N   UNL     1      10.028  -2.642  23.575  0.00  0.00    -0.321 N 
ATOM      5  H   UNL     1      10.828  -2.992  23.064  0.00  0.00    +0.169 HD
ATOM      6  C   UNL     1       9.593  -1.329  23.404  0.00  0.00    +0.050 A 
ATOM      7  C   UNL     1      10.254  -0.506  22.490  0.00  0.00    +0.028 A 
ATOM      8  C   UNL     1       9.816   0.804  22.299  0.00  0.00    +0.022 A 
ATOM      9  C   UNL     1       8.737   1.284  23.035  0.00  0.00    +0.042 A 
ATOM     10  C   UNL     1       8.082   0.462  23.956  0.00  0.00    +0.030 A 
ATOM     11 CL   UNL     1       8.193   2.899  22.796  0.00  0.00    -0.084 Cl
ATOM     12  C   UNL     1       8.497  -0.866  24.145  0.00  0.00    +0.008 A 
ATOM     13  C   UNL     1       7.790  -1.788  25.077  0.00  0.00    +0.007 A 
ENDROOT
BRANCH   1  17
ATOM     14  C   UNL     1       5.206  -6.648  27.053  0.00  0.00    +0.069 C 
ATOM     15  C   UNL     1       6.247  -5.618  26.842  0.00  0.00    +0.081 A 
ATOM     16  C   UNL     1       6.479  -4.842  25.688  0.00  0.00    +0.076 A 
ATOM     17  C   UNL     1       7.565  -4.036  25.989  0.00  0.00    +0.173 A 
ATOM     18  O   UNL     1       7.944  -4.343  27.274  0.00  0.00    -0.354 OA
ATOM     19  N   UNL     1       7.122  -5.320  27.804  0.00  0.00    -0.083 NA
ENDBRANCH   1  17
BRANCH  13  20
ATOM     20  C   UNL     1       6.603  -1.361  25.863  0.00  0.00    -0.016 A 
ATOM     21  C   UNL     1       6.772  -0.747  27.110  0.00  0.00    +0.008 A 
ATOM     22  C   UNL     1       5.658  -0.366  27.860  0.00  0.00    +0.001 A 
ATOM     23  C   UNL     1       4.374  -0.603  27.370  0.00  0.00    +0.000 A 
ATOM     24  C   UNL     1       4.200  -1.220  26.131  0.00  0.00    +0.001 A 
ATOM     25  C   UNL     1       5.311  -1.600  25.378  0.00  0.00    +0.008 A 
ENDBRANCH  13  20
TORSDOF 2
ENDMDL
MODEL 5
REMARK VINA RESULT:      -6.4      2.948      4.734
REMARK  Name = 
REMARK  3 active torsions:
REMARK  status: ('A' for Active; 'I' for Inactive)
REMARK    1  A    between atoms: C_1  and  C_2
REMARK    2  A    between atoms: C_5  and  C_7
REMARK    3  A    between atoms: C_8  and  C_9
REMARK                            x       y       z     vdW  Elec       q    Type
REMARK                         _______ _______ _______ _____ _____    ______ ____
ROOT
ATOM      1  C   UNL     1       6.192  -3.323  25.591  0.00  0.00    +0.092 A 
ATOM      2  C   UNL     1       6.146  -2.359  26.737  0.00  0.00    +0.261 A 
ATOM      3  O   UNL     1       5.573  -2.610  27.794  0.00  0.00    -0.267 OA
ATOM      4  N   UNL     1       6.798  -1.169  26.580  0.00  0.00    -0.321 N 
ATOM      5  H   UNL     1       6.756  -0.542  27.373  0.00  0.00    +0.169 HD
ATOM      6  C   UNL     1       7.496  -0.814  25.427  0.00  0.00    +0.050 A 
ATOM      7  C   UNL     1       8.169   0.409  25.389  0.00  0.00    +0.028 A 
ATOM      8  C   UNL     1       8.884   0.767  24.247  0.00  0.00    +0.022 A 
ATOM      9  C   UNL     1       8.904  -0.089  23.150  0.00  0.00    +0.042 A 
ATOM     10  C   UNL     1       8.223  -1.308  23.186  0.00  0.00    +0.030 A 
ATOM     11 CL   UNL     1       9.792   0.350  21.742  0.00  0.00    -0.084 Cl
ATOM     12  C   UNL     1       7.515  -1.693  24.336  0.00  0.00    +0.008 A 
ATOM     13  C   UNL     1       6.822  -3.008  24.432  0.00  0.00    +0.007 A 
ENDROOT
BRANCH   1  17
ATOM     14  C   UNL     1       3.068  -7.286  25.694  0.00  0.00    +0.069 C 
ATOM     15  C   UNL     1       4.208  -6.357  25.852  0.00  0.00    +0.081 A 
ATOM     16  C   UNL     1       4.306  -5.020  25.414  0.00  0.00    +0.076 A 
ATOM     17  C   UNL     1       5.566  -4.590  25.795  0.00  0.00    +0.173 A 
ATOM     18  O   UNL     1       6.173  -5.648  26.429  0.00  0.00    -0.354 OA
ATOM     19  N   UNL     1       5.327  -6.741  26.469  0.00  0.00    -0.083 NA
ENDBRANCH   1  17
BRANCH  13  20
ATOM     20  C   UNL     1       6.838  -3.993  23.319  0.00  0.00    -0.016 A 
ATOM     21  C   UNL     1       5.953  -3.849  22.243  0.00  0.00    +0.008 A 
ATOM     22  C   UNL     1       5.949  -4.786  21.209  0.00  0.00    +0.001 A 
ATOM     23  C   UNL     1       6.824  -5.871  21.249  0.00  0.00    +0.000 A 
ATOM     24  C   UNL     1       7.703  -6.023  22.322  0.00  0.00    +0.001 A 
ATOM     25  C   UNL     1       7.711  -5.087  23.356  0.00  0.00    +0.008 A 
ENDBRANCH  13  20
TORSDOF 2
ENDMDL
MODEL 6
REMARK VINA RESULT:      -6.3      2.048      2.542
REMARK  Name = 
REMARK  3 active torsions:
REMARK  status: ('A' for Active; 'I' for Inactive)
REMARK    1  A    between atoms: C_1  and  C_2
REMARK    2  A    between atoms: C_5  and  C_7
REMARK    3  A    between atoms: C_8  and  C_9
REMARK                            x       y       z     vdW  Elec       q    Type
REMARK                         _______ _______ _______ _____ _____    ______ ____
ROOT
ATOM      1  C   UNL     1       8.690  -1.084  24.823  0.00  0.00    +0.092 A 
ATOM      2  C   UNL     1       9.870  -1.197  23.907  0.00  0.00    +0.261 A 
ATOM      3  O   UNL     1      10.322  -2.278  23.536  0.00  0.00    -0.267 OA
ATOM      4  N   UNL     1      10.432  -0.034  23.463  0.00  0.00    -0.321 N 
ATOM      5  H   UNL     1      11.222  -0.142  22.840  0.00  0.00    +0.169 HD
ATOM      6  C   UNL     1       9.968   1.233  23.810  0.00  0.00    +0.050 A 
ATOM      7  C   UNL     1      10.586   2.359  23.261  0.00  0.00    +0.028 A 
ATOM      8  C   UNL     1      10.118   3.631  23.589  0.00  0.00    +0.022 A 
ATOM      9  C   UNL     1       9.054   3.767  24.474  0.00  0.00    +0.042 A 
ATOM     10  C   UNL     1       8.443   2.640  25.030  0.00  0.00    +0.030 A 
ATOM     11 CL   UNL     1       8.473   5.336  24.875  0.00  0.00    -0.084 Cl
ATOM     12  C   UNL     1       8.887   1.352  24.695  0.00  0.00    +0.008 A 
ATOM     13  C   UNL     1       8.225   0.126  25.224  0.00  0.00    +0.007 A 
ENDROOT
BRANCH   1  17
ATOM     14  C   UNL     1       7.242  -5.298  27.194  0.00  0.00    +0.069 C 
ATOM     15  C   UNL     1       7.409  -4.170  26.250  0.00  0.00    +0.081 A 
ATOM     16  C   UNL     1       8.310  -3.088  26.340  0.00  0.00    +0.076 A 
ATOM     17  C   UNL     1       8.070  -2.306  25.223  0.00  0.00    +0.173 A 
ATOM     18  O   UNL     1       7.062  -2.917  24.516  0.00  0.00    -0.354 OA
ATOM     19  N   UNL     1       6.658  -4.077  25.152  0.00  0.00    -0.083 NA
ENDBRANCH   1  17
BRANCH  13  20
ATOM     20  C   UNL     1       7.056   0.192  26.138  0.00  0.00    -0.016 A 
ATOM     21  C   UNL     1       5.756   0.161  25.618  0.00  0.00    +0.008 A 
ATOM     22  C   UNL     1       4.657   0.247  26.473  0.00  0.00    +0.001 A 
ATOM     23  C   UNL     1       4.852   0.370  27.849  0.00  0.00    +0.000 A 
ATOM     24  C   UNL     1       6.145   0.407  28.372  0.00  0.00    +0.001 A 
ATOM     25  C   UNL     1       7.246   0.319  27.520  0.00  0.00    +0.008 A 
ENDBRANCH  13  20
TORSDOF 2
ENDMDL
MODEL 7
REMARK VINA RESULT:      -6.3      2.593      5.374
REMARK  Name = 
REMARK  3 active torsions:
REMARK  status: ('A' for Active; 'I' for Inactive)
REMARK    1  A    between atoms: C_1  and  C_2
REMARK    2  A    between atoms: C_5  and  C_7
REMARK    3  A    between atoms: C_8  and  C_9
REMARK                            x       y       z     vdW  Elec       q    Type
REMARK                         _______ _______ _______ _____ _____    ______ ____
ROOT
ATOM      1  C   UNL     1       8.171  -1.061  23.425  0.00  0.00    +0.092 A 
ATOM      2  C   UNL     1       8.446  -2.023  22.309  0.00  0.00    +0.261 A 
ATOM      3  O   UNL     1       9.441  -1.942  21.593  0.00  0.00    -0.267 OA
ATOM      4  N   UNL     1       7.549  -3.036  22.120  0.00  0.00    -0.321 N 
ATOM      5  H   UNL     1       7.766  -3.673  21.365  0.00  0.00    +0.169 HD
ATOM      6  C   UNL     1       6.411  -3.219  22.903  0.00  0.00    +0.050 A 
ATOM      7  C   UNL     1       5.584  -4.317  22.655  0.00  0.00    +0.028 A 
ATOM      8  C   UNL     1       4.451  -4.519  23.443  0.00  0.00    +0.022 A 
ATOM      9  C   UNL     1       4.146  -3.614  24.455  0.00  0.00    +0.042 A 
ATOM     10  C   UNL     1       4.969  -2.512  24.696  0.00  0.00    +0.030 A 
ATOM     11 CL   UNL     1       2.751  -3.866  25.431  0.00  0.00    -0.084 Cl
ATOM     12  C   UNL     1       6.124  -2.304  23.926  0.00  0.00    +0.008 A 
ATOM     13  C   UNL     1       7.055  -1.171  24.189  0.00  0.00    +0.007 A 
ENDROOT
BRANCH   1  17
ATOM     14  C   UNL     1      10.944   3.156  23.477  0.00  0.00    +0.069 C 
ATOM     15  C   UNL     1      10.393   1.801  23.700  0.00  0.00    +0.081 A 
ATOM     16  C   UNL     1       9.243   1.225  23.121  0.00  0.00    +0.076 A 
ATOM     17  C   UNL     1       9.152  -0.050  23.656  0.00  0.00    +0.173 A 
ATOM     18  O   UNL     1      10.214  -0.199  24.514  0.00  0.00    -0.354 OA
ATOM     19  N   UNL     1      10.987   0.947  24.536  0.00  0.00    -0.083 NA
ENDBRANCH   1  17
BRANCH  13  20
ATOM     20  C   UNL     1       6.819  -0.192  25.280  0.00  0.00    -0.016 A 
ATOM     21  C   UNL     1       7.340  -0.426  26.559  0.00  0.00    +0.008 A 
ATOM     22  C   UNL     1       7.098   0.481  27.591  0.00  0.00    +0.001 A 
ATOM     23  C   UNL     1       6.332   1.621  27.352  0.00  0.00    +0.000 A 
ATOM     24  C   UNL     1       5.805   1.857  26.082  0.00  0.00    +0.001 A 
ATOM     25  C   UNL     1       6.046   0.953  25.047  0.00  0.00    +0.008 A 
ENDBRANCH  13  20
TORSDOF 2
ENDMDL
MODEL 8
REMARK VINA RESULT:      -6.2      1.927      2.082
REMARK  Name = 
REMARK  3 active torsions:
REMARK  status: ('A' for Active; 'I' for Inactive)
REMARK    1  A    between atoms: C_1  and  C_2
REMARK    2  A    between atoms: C_5  and  C_7
REMARK    3  A    between atoms: C_8  and  C_9
REMARK                            x       y       z     vdW  Elec       q    Type
REMARK                         _______ _______ _______ _____ _____    ______ ____
ROOT
ATOM      1  C   UNL     1       8.318  -1.431  23.277  0.00  0.00    +0.092 A 
ATOM      2  C   UNL     1       9.271  -0.917  22.242  0.00  0.00    +0.261 A 
ATOM      3  O   UNL     1      10.193  -1.595  21.794  0.00  0.00    -0.267 OA
ATOM      4  N   UNL     1       9.066   0.350  21.776  0.00  0.00    -0.321 N 
ATOM      5  H   UNL     1       9.721   0.666  21.072  0.00  0.00    +0.169 HD
ATOM      6  C   UNL     1       8.030   1.176  22.206  0.00  0.00    +0.050 A 
ATOM      7  C   UNL     1       7.881   2.439  21.629  0.00  0.00    +0.028 A 
ATOM      8  C   UNL     1       6.838   3.267  22.041  0.00  0.00    +0.022 A 
ATOM      9  C   UNL     1       5.966   2.835  23.035  0.00  0.00    +0.042 A 
ATOM     10  C   UNL     1       6.121   1.575  23.618  0.00  0.00    +0.030 A 
ATOM     11 CL   UNL     1       4.674   3.854  23.539  0.00  0.00    -0.084 Cl
ATOM     12  C   UNL     1       7.154   0.720  23.201  0.00  0.00    +0.008 A 
ATOM     13  C   UNL     1       7.317  -0.651  23.760  0.00  0.00    +0.007 A 
ENDROOT
BRANCH   1  17
ATOM     14  C   UNL     1       9.561  -5.677  25.705  0.00  0.00    +0.069 C 
ATOM     15  C   UNL     1       9.033  -4.671  24.757  0.00  0.00    +0.081 A 
ATOM     16  C   UNL     1       9.180  -3.270  24.807  0.00  0.00    +0.076 A 
ATOM     17  C   UNL     1       8.501  -2.781  23.704  0.00  0.00    +0.173 A 
ATOM     18  O   UNL     1       7.978  -3.867  23.044  0.00  0.00    -0.354 OA
ATOM     19  N   UNL     1       8.315  -5.040  23.695  0.00  0.00    -0.083 NA
ENDBRANCH   1  17
BRANCH  13  20
ATOM     20  C   UNL     1       6.399  -1.199  24.791  0.00  0.00    -0.016 A 
ATOM     21  C   UNL     1       6.591  -0.881  26.142  0.00  0.00    +0.008 A 
ATOM     22  C   UNL     1       5.744  -1.414  27.114  0.00  0.00    +0.001 A 
ATOM     23  C   UNL     1       4.707  -2.270  26.742  0.00  0.00    +0.000 A 
ATOM     24  C   UNL     1       4.515  -2.595  25.400  0.00  0.00    +0.001 A 
ATOM     25  C   UNL     1       5.358  -2.062  24.424  0.00  0.00    +0.008 A 
ENDBRANCH  13  20
TORSDOF 2
ENDMDL
MODEL 9
REMARK VINA RESULT:      -6.2      3.242      6.181
REMARK  Name = 
REMARK  3 active torsions:
REMARK  status: ('A' for Active; 'I' for Inactive)
REMARK    1  A    between atoms: C_1  and  C_2
REMARK    2  A    between atoms: C_5  and  C_7
REMARK    3  A    between atoms: C_8  and  C_9
REMARK                            x       y       z     vdW  Elec       q    Type
REMARK                         _______ _______ _______ _____ _____    ______ ____
ROOT
ATOM      1  C   UNL     1       7.199  -2.524  25.155  0.00  0.00    +0.092 A 
ATOM      2  C   UNL     1       7.127  -1.799  26.465  0.00  0.00    +0.261 A 
ATOM      3  O   UNL     1       7.870  -0.861  26.747  0.00  0.00    -0.267 OA
ATOM      4  N   UNL     1       6.171  -2.204  27.352  0.00  0.00    -0.321 N 
ATOM      5  H   UNL     1       6.142  -1.691  28.224  0.00  0.00    +0.169 HD
ATOM      6  C   UNL     1       5.271  -3.238  27.104  0.00  0.00    +0.050 A 
ATOM      7  C   UNL     1       4.299  -3.539  28.061  0.00  0.00    +0.028 A 
ATOM      8  C   UNL     1       3.383  -4.561  27.815  0.00  0.00    +0.022 A 
ATOM      9  C   UNL     1       3.457  -5.282  26.627  0.00  0.00    +0.042 A 
ATOM     10  C   UNL     1       4.434  -4.985  25.674  0.00  0.00    +0.030 A 
ATOM     11 CL   UNL     1       2.322  -6.539  26.321  0.00  0.00    -0.084 Cl
ATOM     12  C   UNL     1       5.352  -3.946  25.897  0.00  0.00    +0.008 A 
ATOM     13  C   UNL     1       6.373  -3.564  24.881  0.00  0.00    +0.007 A 
ENDROOT
BRANCH   1  17
ATOM     14  C   UNL     1       9.693  -0.058  21.525  0.00  0.00    +0.069 C 
ATOM     15  C   UNL     1       9.282  -0.972  22.614  0.00  0.00    +0.081 A 
ATOM     16  C   UNL     1       8.035  -1.036  23.270  0.00  0.00    +0.076 A 
ATOM     17  C   UNL     1       8.156  -2.046  24.210  0.00  0.00    +0.173 A 
ATOM     18  O   UNL     1       9.433  -2.543  24.099  0.00  0.00    -0.354 OA
ATOM     19  N   UNL     1      10.128  -1.880  23.104  0.00  0.00    -0.083 NA
ENDBRANCH   1  17
BRANCH  13  20
ATOM     20  C   UNL     1       6.483  -4.258  23.573  0.00  0.00    -0.016 A 
ATOM     21  C   UNL     1       5.725  -3.820  22.479  0.00  0.00    +0.008 A 
ATOM     22  C   UNL     1       5.810  -4.485  21.256  0.00  0.00    +0.001 A 
ATOM     23  C   UNL     1       6.646  -5.594  21.122  0.00  0.00    +0.000 A 
ATOM     24  C   UNL     1       7.398  -6.039  22.209  0.00  0.00    +0.001 A 
ATOM     25  C   UNL     1       7.318  -5.375  23.433  0.00  0.00    +0.008 A 
ENDBRANCH  13  20
TORSDOF 2
ENDMDL
