MODEL 1
REMARK VINA RESULT:      -6.4      0.000      0.000
REMARK  Name = 
REMARK  15 active torsions:
REMARK  status: ('A' for Active; 'I' for Inactive)
REMARK    1  A    between atoms: C_1  and  C_2
REMARK    2  A    between atoms: C_2  and  O_3
REMARK    3  A    between atoms: O_3  and  C_4
REMARK    4  A    between atoms: C_9  and  O_10
REMARK    5  A    between atoms: O_10  and  C_11
REMARK    6  A    between atoms: C_11  and  C_12
REMARK    7  A    between atoms: C_12  and  N_13
REMARK    8  A    between atoms: N_13  and  C_14
REMARK    9  A    between atoms: C_14  and  C_16
REMARK   10  A    between atoms: C_14  and  C_17
REMARK   11  A    between atoms: C_17  and  C_18
REMARK   12  A    between atoms: C_20  and  S_26
REMARK   13  A    between atoms: C_21  and  O_22
REMARK   14  A    between atoms: O_22  and  C_23
REMARK   15  A    between atoms: S_26  and  N_27
REMARK                            x       y       z     vdW  Elec       q    Type
REMARK                         _______ _______ _______ _____ _____    ______ ____
ROOT
ATOM      1  C   UNL     1       6.265   0.694  25.269  0.00  0.00    +0.055 C 
ATOM      2  C   UNL     1       6.627   1.774  26.289  0.00  0.00    +0.024 C 
ENDROOT
BRANCH   1   3
ATOM      3  N   UNL     1       5.333   1.188  24.232  0.00  0.00    -0.310 NA
ATOM      4  H   UNL     1       5.527   0.714  23.347  0.00  0.00    +0.122 HD
BRANCH   3   5
ATOM      5  C   UNL     1       5.243   2.640  23.992  0.00  0.00    +0.122 C 
BRANCH   5   6
ATOM      6  C   UNL     1       5.544   3.122  22.563  0.00  0.00    +0.244 C 
BRANCH   6   7
ATOM      7  O   UNL     1       6.772   3.832  22.508  0.00  0.00    -0.487 OA
BRANCH   7   9
ATOM      8  C   UNL     1       9.068   3.193  23.346  0.00  0.00    +0.162 A 
ATOM      9  C   UNL     1       7.929   3.086  22.514  0.00  0.00    +0.162 A 
ATOM     10  C   UNL     1       7.882   2.071  21.542  0.00  0.00    +0.049 A 
ATOM     11  C   UNL     1       8.918   1.151  21.401  0.00  0.00    +0.004 A 
ATOM     12  C   UNL     1      10.023   1.233  22.234  0.00  0.00    +0.004 A 
ATOM     13  C   UNL     1      10.099   2.247  23.189  0.00  0.00    +0.049 A 
BRANCH   8  14
ATOM     14  O   UNL     1       9.149   4.207  24.277  0.00  0.00    -0.489 OA
BRANCH  14  16
ATOM     15  C   UNL     1       9.141   6.550  23.667  0.00  0.00    +0.048 C 
ATOM     16  C   UNL     1       9.987   5.322  23.948  0.00  0.00    +0.226 C 
ENDBRANCH  14  16
ENDBRANCH   8  14
ENDBRANCH   7   9
ENDBRANCH   6   7
ENDBRANCH   5   6
ENDBRANCH   3   5
ENDBRANCH   1   3
BRANCH   1  17
ATOM     17  C   UNL     1       7.501   0.003  24.668  0.00  0.00    +0.053 C 
BRANCH  17  18
ATOM     18  C   UNL     1       7.402  -1.428  24.202  0.00  0.00    -0.044 A 
ATOM     19  C   UNL     1       7.320  -1.771  22.855  0.00  0.00    +0.007 A 
ATOM     20  C   UNL     1       7.476  -3.106  22.457  0.00  0.00    +0.048 A 
ATOM     21  C   UNL     1       7.781  -4.106  23.390  0.00  0.00    +0.146 A 
ATOM     22  C   UNL     1       7.865  -3.754  24.740  0.00  0.00    +0.147 A 
ATOM     23  C   UNL     1       7.608  -2.442  25.147  0.00  0.00    +0.036 A 
BRANCH  22  24
ATOM     24  S   UNL     1       8.481  -4.930  25.916  0.00  0.00    +0.059 S 
ATOM     25  O   UNL     1       7.485  -5.958  26.094  0.00  0.00    -0.153 OA
ATOM     26  O   UNL     1       9.108  -4.214  26.999  0.00  0.00    -0.153 OA
BRANCH  24  27
ATOM     27  N   UNL     1       9.741  -5.692  25.107  0.00  0.00    -0.203 NA
ATOM     28  H   UNL     1      10.183  -6.470  25.587  0.00  0.00    +0.144 HD
ATOM     29  H   UNL     1       9.678  -5.661  24.093  0.00  0.00    +0.144 HD
ENDBRANCH  24  27
ENDBRANCH  22  24
BRANCH  21  30
ATOM     30  O   UNL     1       8.015  -5.414  23.074  0.00  0.00    -0.493 OA
ATOM     31  C   UNL     1       7.151  -6.037  22.135  0.00  0.00    +0.277 C 
ENDBRANCH  21  30
ENDBRANCH  17  18
ENDBRANCH   1  17
TORSDOF 12
ENDMDL
MODEL 2
REMARK VINA RESULT:      -6.0      2.758      7.192
REMARK  Name = 
REMARK  15 active torsions:
REMARK  status: ('A' for Active; 'I' for Inactive)
REMARK    1  A    between atoms: C_1  and  C_2
REMARK    2  A    between atoms: C_2  and  O_3
REMARK    3  A    between atoms: O_3  and  C_4
REMARK    4  A    between atoms: C_9  and  O_10
REMARK    5  A    between atoms: O_10  and  C_11
REMARK    6  A    between atoms: C_11  and  C_12
REMARK    7  A    between atoms: C_12  and  N_13
REMARK    8  A    between atoms: N_13  and  C_14
REMARK    9  A    between atoms: C_14  and  C_16
REMARK   10  A    between atoms: C_14  and  C_17
REMARK   11  A    between atoms: C_17  and  C_18
REMARK   12  A    between atoms: C_20  and  S_26
REMARK   13  A    between atoms: C_21  and  O_22
REMARK   14  A    between atoms: O_22  and  C_23
REMARK   15  A    between atoms: S_26  and  N_27
REMARK                            x       y       z     vdW  Elec       q    Type
REMARK                         _______ _______ _______ _____ _____    ______ ____
ROOT
ATOM      1  C   UNL     1       5.826  -2.533  26.507  0.00  0.00    +0.055 C 
ATOM      2  C   UNL     1       4.663  -2.306  27.474  0.00  0.00    +0.024 C 
ENDROOT
BRANCH   1   3
ATOM      3  N   UNL     1       5.993  -3.959  26.152  0.00  0.00    -0.310 NA
ATOM      4  H   UNL     1       5.137  -4.468  26.378  0.00  0.00    +0.122 HD
BRANCH   3   5
ATOM      5  C   UNL     1       7.151  -4.694  26.696  0.00  0.00    +0.122 C 
BRANCH   5   6
ATOM      6  C   UNL     1       8.538  -4.080  26.442  0.00  0.00    +0.244 C 
BRANCH   6   7
ATOM      7  O   UNL     1       9.068  -4.508  25.196  0.00  0.00    -0.487 OA
BRANCH   7   9
ATOM      8  C   UNL     1       7.839  -3.692  23.146  0.00  0.00    +0.162 A 
ATOM      9  C   UNL     1       8.871  -3.681  24.113  0.00  0.00    +0.162 A 
ATOM     10  C   UNL     1       9.866  -2.691  24.044  0.00  0.00    +0.049 A 
ATOM     11  C   UNL     1       9.841  -1.702  23.064  0.00  0.00    +0.004 A 
ATOM     12  C   UNL     1       8.815  -1.691  22.131  0.00  0.00    +0.004 A 
ATOM     13  C   UNL     1       7.831  -2.678  22.169  0.00  0.00    +0.049 A 
BRANCH   8  14
ATOM     14  O   UNL     1       6.876  -4.679  23.175  0.00  0.00    -0.489 OA
BRANCH  14  16
ATOM     15  C   UNL     1       6.145  -5.754  21.131  0.00  0.00    +0.048 C 
ATOM     16  C   UNL     1       7.086  -5.810  22.321  0.00  0.00    +0.226 C 
ENDBRANCH  14  16
ENDBRANCH   8  14
ENDBRANCH   7   9
ENDBRANCH   6   7
ENDBRANCH   5   6
ENDBRANCH   3   5
ENDBRANCH   1   3
BRANCH   1  17
ATOM     17  C   UNL     1       5.755  -1.623  25.268  0.00  0.00    +0.053 C 
BRANCH  17  18
ATOM     18  C   UNL     1       6.678  -0.435  25.163  0.00  0.00    -0.044 A 
ATOM     19  C   UNL     1       7.837  -0.320  25.926  0.00  0.00    +0.007 A 
ATOM     20  C   UNL     1       8.784   0.669  25.625  0.00  0.00    +0.048 A 
ATOM     21  C   UNL     1       8.619   1.514  24.519  0.00  0.00    +0.146 A 
ATOM     22  C   UNL     1       7.454   1.391  23.757  0.00  0.00    +0.147 A 
ATOM     23  C   UNL     1       6.463   0.473  24.118  0.00  0.00    +0.036 A 
BRANCH  22  24
ATOM     24  S   UNL     1       7.316   2.267  22.220  0.00  0.00    +0.059 S 
ATOM     25  O   UNL     1       5.917   2.494  21.952  0.00  0.00    -0.153 OA
ATOM     26  O   UNL     1       8.238   1.687  21.274  0.00  0.00    -0.153 OA
BRANCH  24  27
ATOM     27  N   UNL     1       7.939   3.789  22.563  0.00  0.00    -0.203 NA
ATOM     28  H   UNL     1       8.327   4.306  21.780  0.00  0.00    +0.144 HD
ATOM     29  H   UNL     1       7.501   4.262  23.347  0.00  0.00    +0.144 HD
ENDBRANCH  24  27
ENDBRANCH  22  24
BRANCH  21  30
ATOM     30  O   UNL     1       9.525   2.454  24.120  0.00  0.00    -0.493 OA
ATOM     31  C   UNL     1      10.834   2.017  23.785  0.00  0.00    +0.277 C 
ENDBRANCH  21  30
ENDBRANCH  17  18
ENDBRANCH   1  17
TORSDOF 12
ENDMDL
MODEL 3
REMARK VINA RESULT:      -6.0      1.141      2.573
REMARK  Name = 
REMARK  15 active torsions:
REMARK  status: ('A' for Active; 'I' for Inactive)
REMARK    1  A    between atoms: C_1  and  C_2
REMARK    2  A    between atoms: C_2  and  O_3
REMARK    3  A    between atoms: O_3  and  C_4
REMARK    4  A    between atoms: C_9  and  O_10
REMARK    5  A    between atoms: O_10  and  C_11
REMARK    6  A    between atoms: C_11  and  C_12
REMARK    7  A    between atoms: C_12  and  N_13
REMARK    8  A    between atoms: N_13  and  C_14
REMARK    9  A    between atoms: C_14  and  C_16
REMARK   10  A    between atoms: C_14  and  C_17
REMARK   11  A    between atoms: C_17  and  C_18
REMARK   12  A    between atoms: C_20  and  S_26
REMARK   13  A    between atoms: C_21  and  O_22
REMARK   14  A    between atoms: O_22  and  C_23
REMARK   15  A    between atoms: S_26  and  N_27
REMARK                            x       y       z     vdW  Elec       q    Type
REMARK                         _______ _______ _______ _____ _____    ______ ____
ROOT
ATOM      1  C   UNL     1       5.793   0.852  24.605  0.00  0.00    +0.055 C 
ATOM      2  C   UNL     1       5.611   1.734  25.841  0.00  0.00    +0.024 C 
ENDROOT
BRANCH   1   3
ATOM      3  N   UNL     1       5.690   1.619  23.345  0.00  0.00    -0.310 NA
ATOM      4  H   UNL     1       5.051   1.141  22.707  0.00  0.00    +0.122 HD
BRANCH   3   5
ATOM      5  C   UNL     1       6.927   1.963  22.620  0.00  0.00    +0.122 C 
BRANCH   5   6
ATOM      6  C   UNL     1       7.417   3.416  22.745  0.00  0.00    +0.244 C 
BRANCH   6   7
ATOM      7  O   UNL     1       8.143   3.611  23.950  0.00  0.00    -0.487 OA
BRANCH   7   9
ATOM      8  C   UNL     1      10.606   3.427  23.422  0.00  0.00    +0.162 A 
ATOM      9  C   UNL     1       9.429   4.091  23.838  0.00  0.00    +0.162 A 
ATOM     10  C   UNL     1       9.492   5.454  24.175  0.00  0.00    +0.049 A 
ATOM     11  C   UNL     1      10.681   6.172  24.080  0.00  0.00    +0.004 A 
ATOM     12  C   UNL     1      11.832   5.533  23.644  0.00  0.00    +0.004 A 
ATOM     13  C   UNL     1      11.794   4.175  23.326  0.00  0.00    +0.049 A 
BRANCH   8  14
ATOM     14  O   UNL     1      10.571   2.080  23.125  0.00  0.00    -0.489 OA
BRANCH  14  16
ATOM     15  C   UNL     1      10.572  -0.260  23.747  0.00  0.00    +0.048 C 
ATOM     16  C   UNL     1      10.724   1.173  24.223  0.00  0.00    +0.226 C 
ENDBRANCH  14  16
ENDBRANCH   8  14
ENDBRANCH   7   9
ENDBRANCH   6   7
ENDBRANCH   5   6
ENDBRANCH   3   5
ENDBRANCH   1   3
BRANCH   1  17
ATOM     17  C   UNL     1       7.068  -0.007  24.668  0.00  0.00    +0.053 C 
BRANCH  17  18
ATOM     18  C   UNL     1       7.021  -1.444  24.215  0.00  0.00    -0.044 A 
ATOM     19  C   UNL     1       6.846  -1.802  22.881  0.00  0.00    +0.007 A 
ATOM     20  C   UNL     1       7.051  -3.128  22.474  0.00  0.00    +0.048 A 
ATOM     21  C   UNL     1       7.498  -4.100  23.379  0.00  0.00    +0.146 A 
ATOM     22  C   UNL     1       7.675  -3.733  24.716  0.00  0.00    +0.147 A 
ATOM     23  C   UNL     1       7.371  -2.436  25.141  0.00  0.00    +0.036 A 
BRANCH  22  24
ATOM     24  S   UNL     1       8.463  -4.859  25.837  0.00  0.00    +0.059 S 
ATOM     25  O   UNL     1       7.616  -6.016  25.988  0.00  0.00    -0.153 OA
ATOM     26  O   UNL     1       9.010  -4.106  26.939  0.00  0.00    -0.153 OA
BRANCH  24  27
ATOM     27  N   UNL     1       9.798  -5.415  24.983  0.00  0.00    -0.203 NA
ATOM     28  H   UNL     1       9.612  -5.849  24.084  0.00  0.00    +0.144 HD
ATOM     29  H   UNL     1      10.660  -4.907  25.158  0.00  0.00    +0.144 HD
ENDBRANCH  24  27
ENDBRANCH  22  24
BRANCH  21  30
ATOM     30  O   UNL     1       7.787  -5.393  23.048  0.00  0.00    -0.493 OA
ATOM     31  C   UNL     1       6.894  -6.072  22.176  0.00  0.00    +0.277 C 
ENDBRANCH  21  30
ENDBRANCH  17  18
ENDBRANCH   1  17
TORSDOF 12
ENDMDL
MODEL 4
REMARK VINA RESULT:      -6.0      2.643      4.910
REMARK  Name = 
REMARK  15 active torsions:
REMARK  status: ('A' for Active; 'I' for Inactive)
REMARK    1  A    between atoms: C_1  and  C_2
REMARK    2  A    between atoms: C_2  and  O_3
REMARK    3  A    between atoms: O_3  and  C_4
REMARK    4  A    between atoms: C_9  and  O_10
REMARK    5  A    between atoms: O_10  and  C_11
REMARK    6  A    between atoms: C_11  and  C_12
REMARK    7  A    between atoms: C_12  and  N_13
REMARK    8  A    between atoms: N_13  and  C_14
REMARK    9  A    between atoms: C_14  and  C_16
REMARK   10  A    between atoms: C_14  and  C_17
REMARK   11  A    between atoms: C_17  and  C_18
REMARK   12  A    between atoms: C_20  and  S_26
REMARK   13  A    between atoms: C_21  and  O_22
REMARK   14  A    between atoms: O_22  and  C_23
REMARK   15  A    between atoms: S_26  and  N_27
REMARK                            x       y       z     vdW  Elec       q    Type
REMARK                         _______ _______ _______ _____ _____    ______ ____
ROOT
ATOM      1  C   UNL     1       9.110   1.218  22.159  0.00  0.00    +0.055 C 
ATOM      2  C   UNL     1      10.392   1.987  22.482  0.00  0.00    +0.024 C 
ENDROOT
BRANCH   1   3
ATOM      3  N   UNL     1       8.109   2.057  21.466  0.00  0.00    -0.310 NA
ATOM      4  H   UNL     1       8.523   2.963  21.241  0.00  0.00    +0.122 HD
BRANCH   3   5
ATOM      5  C   UNL     1       6.797   2.271  22.106  0.00  0.00    +0.122 C 
BRANCH   5   6
ATOM      6  C   UNL     1       6.751   2.150  23.638  0.00  0.00    +0.244 C 
BRANCH   6   7
ATOM      7  O   UNL     1       6.043   0.986  24.040  0.00  0.00    -0.487 OA
BRANCH   7   9
ATOM      8  C   UNL     1       6.125  -0.948  25.664  0.00  0.00    +0.162 A 
ATOM      9  C   UNL     1       6.634   0.190  24.996  0.00  0.00    +0.162 A 
ATOM     10  C   UNL     1       7.945   0.618  25.271  0.00  0.00    +0.049 A 
ATOM     11  C   UNL     1       8.762  -0.070  26.164  0.00  0.00    +0.004 A 
ATOM     12  C   UNL     1       8.278  -1.203  26.799  0.00  0.00    +0.004 A 
ATOM     13  C   UNL     1       6.973  -1.631  26.556  0.00  0.00    +0.049 A 
BRANCH   8  14
ATOM     14  O   UNL     1       4.828  -1.359  25.436  0.00  0.00    -0.489 OA
BRANCH  14  16
ATOM     15  C   UNL     1       2.985  -2.676  26.292  0.00  0.00    +0.048 C 
ATOM     16  C   UNL     1       4.016  -1.604  26.591  0.00  0.00    +0.226 C 
ENDBRANCH  14  16
ENDBRANCH   8  14
ENDBRANCH   7   9
ENDBRANCH   6   7
ENDBRANCH   5   6
ENDBRANCH   3   5
ENDBRANCH   1   3
BRANCH   1  17
ATOM     17  C   UNL     1       9.380  -0.106  21.422  0.00  0.00    +0.053 C 
BRANCH  17  18
ATOM     18  C   UNL     1       9.282  -1.410  22.173  0.00  0.00    -0.044 A 
ATOM     19  C   UNL     1      10.099  -1.709  23.260  0.00  0.00    +0.007 A 
ATOM     20  C   UNL     1       9.813  -2.815  24.074  0.00  0.00    +0.048 A 
ATOM     21  C   UNL     1       8.672  -3.597  23.854  0.00  0.00    +0.146 A 
ATOM     22  C   UNL     1       7.854  -3.289  22.763  0.00  0.00    +0.147 A 
ATOM     23  C   UNL     1       8.196  -2.250  21.892  0.00  0.00    +0.036 A 
BRANCH  22  24
ATOM     24  S   UNL     1       6.283  -4.094  22.590  0.00  0.00    +0.059 S 
ATOM     25  O   UNL     1       6.516  -5.500  22.365  0.00  0.00    -0.153 OA
ATOM     26  O   UNL     1       5.432  -3.273  21.765  0.00  0.00    -0.153 OA
BRANCH  24  27
ATOM     27  N   UNL     1       5.613  -4.013  24.128  0.00  0.00    -0.203 NA
ATOM     28  H   UNL     1       4.677  -3.624  24.194  0.00  0.00    +0.144 HD
ATOM     29  H   UNL     1       5.939  -4.726  24.774  0.00  0.00    +0.144 HD
ENDBRANCH  24  27
ENDBRANCH  22  24
BRANCH  21  30
ATOM     30  O   UNL     1       8.287  -4.645  24.640  0.00  0.00    -0.493 OA
ATOM     31  C   UNL     1       9.303  -5.410  25.272  0.00  0.00    +0.277 C 
ENDBRANCH  21  30
ENDBRANCH  17  18
ENDBRANCH   1  17
TORSDOF 12
ENDMDL
MODEL 5
REMARK VINA RESULT:      -5.9      1.626      2.208
REMARK  Name = 
REMARK  15 active torsions:
REMARK  status: ('A' for Active; 'I' for Inactive)
REMARK    1  A    between atoms: C_1  and  C_2
REMARK    2  A    between atoms: C_2  and  O_3
REMARK    3  A    between atoms: O_3  and  C_4
REMARK    4  A    between atoms: C_9  and  O_10
REMARK    5  A    between atoms: O_10  and  C_11
REMARK    6  A    between atoms: C_11  and  C_12
REMARK    7  A    between atoms: C_12  and  N_13
REMARK    8  A    between atoms: N_13  and  C_14
REMARK    9  A    between atoms: C_14  and  C_16
REMARK   10  A    between atoms: C_14  and  C_17
REMARK   11  A    between atoms: C_17  and  C_18
REMARK   12  A    between atoms: C_20  and  S_26
REMARK   13  A    between atoms: C_21  and  O_22
REMARK   14  A    between atoms: O_22  and  C_23
REMARK   15  A    between atoms: S_26  and  N_27
REMARK                            x       y       z     vdW  Elec       q    Type
REMARK                         _______ _______ _______ _____ _____    ______ ____
ROOT
ATOM      1  C   UNL     1       5.537   0.694  25.277  0.00  0.00    +0.055 C 
ATOM      2  C   UNL     1       5.141   1.042  26.713  0.00  0.00    +0.024 C 
ENDROOT
BRANCH   1   3
ATOM      3  N   UNL     1       4.862   1.555  24.282  0.00  0.00    -0.310 NA
ATOM      4  H   UNL     1       4.737   1.034  23.412  0.00  0.00    +0.122 HD
BRANCH   3   5
ATOM      5  C   UNL     1       5.443   2.875  23.975  0.00  0.00    +0.122 C 
BRANCH   5   6
ATOM      6  C   UNL     1       5.734   3.172  22.494  0.00  0.00    +0.244 C 
BRANCH   6   7
ATOM      7  O   UNL     1       7.012   3.769  22.331  0.00  0.00    -0.487 OA
BRANCH   7   9
ATOM      8  C   UNL     1       9.203   3.016  23.337  0.00  0.00    +0.162 A 
ATOM      9  C   UNL     1       8.109   2.945  22.444  0.00  0.00    +0.162 A 
ATOM     10  C   UNL     1       8.042   1.885  21.523  0.00  0.00    +0.049 A 
ATOM     11  C   UNL     1       9.013   0.888  21.491  0.00  0.00    +0.004 A 
ATOM     12  C   UNL     1      10.073   0.937  22.383  0.00  0.00    +0.004 A 
ATOM     13  C   UNL     1      10.169   1.993  23.289  0.00  0.00    +0.049 A 
BRANCH   8  14
ATOM     14  O   UNL     1       9.306   4.070  24.220  0.00  0.00    -0.489 OA
BRANCH  14  16
ATOM     15  C   UNL     1       9.415   6.361  23.441  0.00  0.00    +0.048 C 
ATOM     16  C   UNL     1      10.199   5.131  23.859  0.00  0.00    +0.226 C 
ENDBRANCH  14  16
ENDBRANCH   8  14
ENDBRANCH   7   9
ENDBRANCH   6   7
ENDBRANCH   5   6
ENDBRANCH   3   5
ENDBRANCH   1   3
BRANCH   1  17
ATOM     17  C   UNL     1       7.062   0.646  25.075  0.00  0.00    +0.053 C 
BRANCH  17  18
ATOM     18  C   UNL     1       7.721  -0.655  24.694  0.00  0.00    -0.044 A 
ATOM     19  C   UNL     1       8.870  -1.124  25.327  0.00  0.00    +0.007 A 
ATOM     20  C   UNL     1       9.305  -2.440  25.113  0.00  0.00    +0.048 A 
ATOM     21  C   UNL     1       8.565  -3.325  24.317  0.00  0.00    +0.146 A 
ATOM     22  C   UNL     1       7.412  -2.848  23.688  0.00  0.00    +0.147 A 
ATOM     23  C   UNL     1       7.035  -1.508  23.819  0.00  0.00    +0.036 A 
BRANCH  22  24
ATOM     24  S   UNL     1       6.322  -3.987  22.874  0.00  0.00    +0.059 S 
ATOM     25  O   UNL     1       7.045  -4.615  21.795  0.00  0.00    -0.153 OA
ATOM     26  O   UNL     1       5.029  -3.365  22.728  0.00  0.00    -0.153 OA
BRANCH  24  27
ATOM     27  N   UNL     1       6.095  -5.210  24.004  0.00  0.00    -0.203 NA
ATOM     28  H   UNL     1       6.934  -5.608  24.415  0.00  0.00    +0.144 HD
ATOM     29  H   UNL     1       5.224  -5.154  24.524  0.00  0.00    +0.144 HD
ENDBRANCH  24  27
ENDBRANCH  22  24
BRANCH  21  30
ATOM     30  O   UNL     1       8.884  -4.637  24.116  0.00  0.00    -0.493 OA
ATOM     31  C   UNL     1       9.385  -5.378  25.219  0.00  0.00    +0.277 C 
ENDBRANCH  21  30
ENDBRANCH  17  18
ENDBRANCH   1  17
TORSDOF 12
ENDMDL
MODEL 6
REMARK VINA RESULT:      -5.9      2.129      3.618
REMARK  Name = 
REMARK  15 active torsions:
REMARK  status: ('A' for Active; 'I' for Inactive)
REMARK    1  A    between atoms: C_1  and  C_2
REMARK    2  A    between atoms: C_2  and  O_3
REMARK    3  A    between atoms: O_3  and  C_4
REMARK    4  A    between atoms: C_9  and  O_10
REMARK    5  A    between atoms: O_10  and  C_11
REMARK    6  A    between atoms: C_11  and  C_12
REMARK    7  A    between atoms: C_12  and  N_13
REMARK    8  A    between atoms: N_13  and  C_14
REMARK    9  A    between atoms: C_14  and  C_16
REMARK   10  A    between atoms: C_14  and  C_17
REMARK   11  A    between atoms: C_17  and  C_18
REMARK   12  A    between atoms: C_20  and  S_26
REMARK   13  A    between atoms: C_21  and  O_22
REMARK   14  A    between atoms: O_22  and  C_23
REMARK   15  A    between atoms: S_26  and  N_27
REMARK                            x       y       z     vdW  Elec       q    Type
REMARK                         _______ _______ _______ _____ _____    ______ ____
ROOT
ATOM      1  C   UNL     1       9.285   0.167  22.626  0.00  0.00    +0.055 C 
ATOM      2  C   UNL     1       9.447   1.306  21.619  0.00  0.00    +0.024 C 
ENDROOT
BRANCH   1   3
ATOM      3  N   UNL     1       8.090   0.336  23.481  0.00  0.00    -0.310 NA
ATOM      4  H   UNL     1       7.419   0.946  23.010  0.00  0.00    +0.122 HD
BRANCH   3   5
ATOM      5  C   UNL     1       8.271   0.799  24.870  0.00  0.00    +0.122 C 
BRANCH   5   6
ATOM      6  C   UNL     1       7.963   2.280  25.148  0.00  0.00    +0.244 C 
BRANCH   6   7
ATOM      7  O   UNL     1       9.015   3.117  24.693  0.00  0.00    -0.487 OA
BRANCH   7   9
ATOM      8  C   UNL     1       9.321   5.486  23.870  0.00  0.00    +0.162 A 
ATOM      9  C   UNL     1       8.661   4.240  23.979  0.00  0.00    +0.162 A 
ATOM     10  C   UNL     1       7.474   4.026  23.256  0.00  0.00    +0.049 A 
ATOM     11  C   UNL     1       6.951   5.003  22.413  0.00  0.00    +0.004 A 
ATOM     12  C   UNL     1       7.610   6.215  22.280  0.00  0.00    +0.004 A 
ATOM     13  C   UNL     1       8.777   6.454  23.006  0.00  0.00    +0.049 A 
BRANCH   8  14
ATOM     14  O   UNL     1      10.465   5.728  24.602  0.00  0.00    -0.489 OA
BRANCH  14  16
ATOM     15  C   UNL     1      12.204   4.658  23.300  0.00  0.00    +0.048 C 
ATOM     16  C   UNL     1      11.669   5.962  23.862  0.00  0.00    +0.226 C 
ENDBRANCH  14  16
ENDBRANCH   8  14
ENDBRANCH   7   9
ENDBRANCH   6   7
ENDBRANCH   5   6
ENDBRANCH   3   5
ENDBRANCH   1   3
BRANCH   1  17
ATOM     17  C   UNL     1       9.345  -1.223  21.968  0.00  0.00    +0.053 C 
BRANCH  17  18
ATOM     18  C   UNL     1       9.023  -2.448  22.786  0.00  0.00    -0.044 A 
ATOM     19  C   UNL     1       9.722  -2.779  23.943  0.00  0.00    +0.007 A 
ATOM     20  C   UNL     1       9.237  -3.779  24.798  0.00  0.00    +0.048 A 
ATOM     21  C   UNL     1       8.016  -4.416  24.544  0.00  0.00    +0.146 A 
ATOM     22  C   UNL     1       7.318  -4.077  23.382  0.00  0.00    +0.147 A 
ATOM     23  C   UNL     1       7.851  -3.154  22.478  0.00  0.00    +0.036 A 
BRANCH  22  24
ATOM     24  S   UNL     1       5.665  -4.676  23.146  0.00  0.00    +0.059 S 
ATOM     25  O   UNL     1       5.716  -6.112  23.023  0.00  0.00    -0.153 OA
ATOM     26  O   UNL     1       4.988  -3.808  22.214  0.00  0.00    -0.153 OA
BRANCH  24  27
ATOM     27  N   UNL     1       4.917  -4.400  24.624  0.00  0.00    -0.203 NA
ATOM     28  H   UNL     1       4.118  -3.773  24.618  0.00  0.00    +0.144 HD
ATOM     29  H   UNL     1       4.984  -5.167  25.286  0.00  0.00    +0.144 HD
ENDBRANCH  24  27
ENDBRANCH  22  24
BRANCH  21  30
ATOM     30  O   UNL     1       7.443  -5.348  25.361  0.00  0.00    -0.493 OA
ATOM     31  C   UNL     1       7.736  -5.287  26.750  0.00  0.00    +0.277 C 
ENDBRANCH  21  30
ENDBRANCH  17  18
ENDBRANCH   1  17
TORSDOF 12
ENDMDL
MODEL 7
REMARK VINA RESULT:      -5.9      3.254      7.848
REMARK  Name = 
REMARK  15 active torsions:
REMARK  status: ('A' for Active; 'I' for Inactive)
REMARK    1  A    between atoms: C_1  and  C_2
REMARK    2  A    between atoms: C_2  and  O_3
REMARK    3  A    between atoms: O_3  and  C_4
REMARK    4  A    between atoms: C_9  and  O_10
REMARK    5  A    between atoms: O_10  and  C_11
REMARK    6  A    between atoms: C_11  and  C_12
REMARK    7  A    between atoms: C_12  and  N_13
REMARK    8  A    between atoms: N_13  and  C_14
REMARK    9  A    between atoms: C_14  and  C_16
REMARK   10  A    between atoms: C_14  and  C_17
REMARK   11  A    between atoms: C_17  and  C_18
REMARK   12  A    between atoms: C_20  and  S_26
REMARK   13  A    between atoms: C_21  and  O_22
REMARK   14  A    between atoms: O_22  and  C_23
REMARK   15  A    between atoms: S_26  and  N_27
REMARK                            x       y       z     vdW  Elec       q    Type
REMARK                         _______ _______ _______ _____ _____    ______ ____
ROOT
ATOM      1  C   UNL     1       5.669  -5.434  22.302  0.00  0.00    +0.055 C 
ATOM      2  C   UNL     1       6.217  -5.742  20.908  0.00  0.00    +0.024 C 
ENDROOT
BRANCH   1   3
ATOM      3  N   UNL     1       5.065  -6.621  22.945  0.00  0.00    -0.310 NA
ATOM      4  H   UNL     1       4.939  -7.357  22.248  0.00  0.00    +0.122 HD
BRANCH   3   5
ATOM      5  C   UNL     1       3.812  -6.456  23.706  0.00  0.00    +0.122 C 
BRANCH   5   6
ATOM      6  C   UNL     1       3.756  -7.120  25.092  0.00  0.00    +0.244 C 
BRANCH   6   7
ATOM      7  O   UNL     1       4.973  -6.936  25.800  0.00  0.00    -0.487 OA
BRANCH   7   9
ATOM      8  C   UNL     1       6.367  -5.051  26.741  0.00  0.00    +0.162 A 
ATOM      9  C   UNL     1       5.163  -5.719  26.415  0.00  0.00    +0.162 A 
ATOM     10  C   UNL     1       3.935  -5.099  26.702  0.00  0.00    +0.049 A 
ATOM     11  C   UNL     1       3.877  -3.830  27.272  0.00  0.00    +0.004 A 
ATOM     12  C   UNL     1       5.053  -3.159  27.567  0.00  0.00    +0.004 A 
ATOM     13  C   UNL     1       6.282  -3.766  27.310  0.00  0.00    +0.049 A 
BRANCH   8  14
ATOM     14  O   UNL     1       7.581  -5.660  26.504  0.00  0.00    -0.489 OA
BRANCH  14  16
ATOM     15  C   UNL     1       9.657  -5.147  25.368  0.00  0.00    +0.048 C 
ATOM     16  C   UNL     1       8.742  -4.821  26.533  0.00  0.00    +0.226 C 
ENDBRANCH  14  16
ENDBRANCH   8  14
ENDBRANCH   7   9
ENDBRANCH   6   7
ENDBRANCH   5   6
ENDBRANCH   3   5
ENDBRANCH   1   3
BRANCH   1  17
ATOM     17  C   UNL     1       6.699  -4.735  23.206  0.00  0.00    +0.053 C 
BRANCH  17  18
ATOM     18  C   UNL     1       6.789  -3.229  23.207  0.00  0.00    -0.044 A 
ATOM     19  C   UNL     1       5.907  -2.428  23.927  0.00  0.00    +0.007 A 
ATOM     20  C   UNL     1       6.173  -1.062  24.096  0.00  0.00    +0.048 A 
ATOM     21  C   UNL     1       7.355  -0.491  23.605  0.00  0.00    +0.146 A 
ATOM     22  C   UNL     1       8.237  -1.302  22.885  0.00  0.00    +0.147 A 
ATOM     23  C   UNL     1       7.922  -2.639  22.629  0.00  0.00    +0.036 A 
BRANCH  22  24
ATOM     24  S   UNL     1       9.844  -0.684  22.457  0.00  0.00    +0.059 S 
ATOM     25  O   UNL     1       9.677   0.415  21.538  0.00  0.00    -0.153 OA
ATOM     26  O   UNL     1      10.723  -1.805  22.229  0.00  0.00    -0.153 OA
BRANCH  24  27
ATOM     27  N   UNL     1      10.398   0.025  23.875  0.00  0.00    -0.203 NA
ATOM     28  H   UNL     1       9.690   0.382  24.510  0.00  0.00    +0.144 HD
ATOM     29  H   UNL     1      11.282  -0.339  24.217  0.00  0.00    +0.144 HD
ENDBRANCH  24  27
ENDBRANCH  22  24
BRANCH  21  30
ATOM     30  O   UNL     1       7.719   0.813  23.787  0.00  0.00    -0.493 OA
ATOM     31  C   UNL     1       6.722   1.812  23.621  0.00  0.00    +0.277 C 
ENDBRANCH  21  30
ENDBRANCH  17  18
ENDBRANCH   1  17
TORSDOF 12
ENDMDL
MODEL 8
REMARK VINA RESULT:      -5.8      2.597      3.746
REMARK  Name = 
REMARK  15 active torsions:
REMARK  status: ('A' for Active; 'I' for Inactive)
REMARK    1  A    between atoms: C_1  and  C_2
REMARK    2  A    between atoms: C_2  and  O_3
REMARK    3  A    between atoms: O_3  and  C_4
REMARK    4  A    between atoms: C_9  and  O_10
REMARK    5  A    between atoms: O_10  and  C_11
REMARK    6  A    between atoms: C_11  and  C_12
REMARK    7  A    between atoms: C_12  and  N_13
REMARK    8  A    between atoms: N_13  and  C_14
REMARK    9  A    between atoms: C_14  and  C_16
REMARK   10  A    between atoms: C_14  and  C_17
REMARK   11  A    between atoms: C_17  and  C_18
REMARK   12  A    between atoms: C_20  and  S_26
REMARK   13  A    between atoms: C_21  and  O_22
REMARK   14  A    between atoms: O_22  and  C_23
REMARK   15  A    between atoms: S_26  and  N_27
REMARK                            x       y       z     vdW  Elec       q    Type
REMARK                         _______ _______ _______ _____ _____    ______ ____
ROOT
ATOM      1  C   UNL     1       9.393  -0.797  23.862  0.00  0.00    +0.055 C 
ATOM      2  C   UNL     1      10.161  -0.058  24.959  0.00  0.00    +0.024 C 
ENDROOT
BRANCH   1   3
ATOM      3  N   UNL     1       9.347  -0.035  22.595  0.00  0.00    -0.310 NA
ATOM      4  H   UNL     1      10.165   0.573  22.534  0.00  0.00    +0.122 HD
BRANCH   3   5
ATOM      5  C   UNL     1       8.138   0.751  22.284  0.00  0.00    +0.122 C 
BRANCH   5   6
ATOM      6  C   UNL     1       8.308   2.278  22.217  0.00  0.00    +0.244 C 
BRANCH   6   7
ATOM      7  O   UNL     1       8.615   2.817  23.495  0.00  0.00    -0.487 OA
BRANCH   7   9
ATOM      8  C   UNL     1       9.335   5.219  23.800  0.00  0.00    +0.162 A 
ATOM      9  C   UNL     1       9.532   3.842  23.540  0.00  0.00    +0.162 A 
ATOM     10  C   UNL     1      10.836   3.366  23.314  0.00  0.00    +0.049 A 
ATOM     11  C   UNL     1      11.939   4.213  23.370  0.00  0.00    +0.004 A 
ATOM     12  C   UNL     1      11.754   5.558  23.654  0.00  0.00    +0.004 A 
ATOM     13  C   UNL     1      10.467   6.054  23.858  0.00  0.00    +0.049 A 
BRANCH   8  14
ATOM     14  O   UNL     1       8.060   5.711  23.984  0.00  0.00    -0.489 OA
BRANCH  14  16
ATOM     15  C   UNL     1       5.994   5.351  22.774  0.00  0.00    +0.048 C 
ATOM     16  C   UNL     1       7.330   6.070  22.806  0.00  0.00    +0.226 C 
ENDBRANCH  14  16
ENDBRANCH   8  14
ENDBRANCH   7   9
ENDBRANCH   6   7
ENDBRANCH   5   6
ENDBRANCH   3   5
ENDBRANCH   1   3
BRANCH   1  17
ATOM     17  C   UNL     1       9.883  -2.241  23.662  0.00  0.00    +0.053 C 
BRANCH  17  18
ATOM     18  C   UNL     1       8.983  -3.392  24.038  0.00  0.00    -0.044 A 
ATOM     19  C   UNL     1       9.064  -4.030  25.273  0.00  0.00    +0.007 A 
ATOM     20  C   UNL     1       8.058  -4.922  25.672  0.00  0.00    +0.048 A 
ATOM     21  C   UNL     1       6.927  -5.138  24.874  0.00  0.00    +0.146 A 
ATOM     22  C   UNL     1       6.852  -4.492  23.637  0.00  0.00    +0.147 A 
ATOM     23  C   UNL     1       7.903  -3.683  23.195  0.00  0.00    +0.036 A 
BRANCH  22  24
ATOM     24  S   UNL     1       5.341  -4.547  22.709  0.00  0.00    +0.059 S 
ATOM     25  O   UNL     1       5.619  -4.111  21.363  0.00  0.00    -0.153 OA
ATOM     26  O   UNL     1       4.277  -4.019  23.528  0.00  0.00    -0.153 OA
BRANCH  24  27
ATOM     27  N   UNL     1       5.010  -6.188  22.567  0.00  0.00    -0.203 NA
ATOM     28  H   UNL     1       5.532  -6.810  23.177  0.00  0.00    +0.144 HD
ATOM     29  H   UNL     1       4.066  -6.409  22.266  0.00  0.00    +0.144 HD
ENDBRANCH  24  27
ENDBRANCH  22  24
BRANCH  21  30
ATOM     30  O   UNL     1       5.875  -5.936  25.221  0.00  0.00    -0.493 OA
ATOM     31  C   UNL     1       5.441  -5.915  26.574  0.00  0.00    +0.277 C 
ENDBRANCH  21  30
ENDBRANCH  17  18
ENDBRANCH   1  17
TORSDOF 12
ENDMDL
MODEL 9
REMARK VINA RESULT:      -5.8      3.089      8.441
REMARK  Name = 
REMARK  15 active torsions:
REMARK  status: ('A' for Active; 'I' for Inactive)
REMARK    1  A    between atoms: C_1  and  C_2
REMARK    2  A    between atoms: C_2  and  O_3
REMARK    3  A    between atoms: O_3  and  C_4
REMARK    4  A    between atoms: C_9  and  O_10
REMARK    5  A    between atoms: O_10  and  C_11
REMARK    6  A    between atoms: C_11  and  C_12
REMARK    7  A    between atoms: C_12  and  N_13
REMARK    8  A    between atoms: N_13  and  C_14
REMARK    9  A    between atoms: C_14  and  C_16
REMARK   10  A    between atoms: C_14  and  C_17
REMARK   11  A    between atoms: C_17  and  C_18
REMARK   12  A    between atoms: C_20  and  S_26
REMARK   13  A    between atoms: C_21  and  O_22
REMARK   14  A    between atoms: O_22  and  C_23
REMARK   15  A    between atoms: S_26  and  N_27
REMARK                            x       y       z     vdW  Elec       q    Type
REMARK                         _______ _______ _______ _____ _____    ______ ____
ROOT
ATOM      1  C   UNL     1      10.505  -0.104  23.439  0.00  0.00    +0.055 C 
ATOM      2  C   UNL     1      10.195   0.226  24.900  0.00  0.00    +0.024 C 
ENDROOT
BRANCH   1   3
ATOM      3  N   UNL     1       9.881  -1.371  23.003  0.00  0.00    -0.310 NA
ATOM      4  H   UNL     1      10.569  -1.934  22.501  0.00  0.00    +0.122 HD
BRANCH   3   5
ATOM      5  C   UNL     1       8.636  -1.314  22.214  0.00  0.00    +0.122 C 
BRANCH   5   6
ATOM      6  C   UNL     1       7.332  -1.099  23.000  0.00  0.00    +0.244 C 
BRANCH   6   7
ATOM      7  O   UNL     1       7.121  -2.142  23.941  0.00  0.00    -0.487 OA
BRANCH   7   9
ATOM      8  C   UNL     1       7.939  -4.497  23.537  0.00  0.00    +0.162 A 
ATOM      9  C   UNL     1       7.024  -3.423  23.446  0.00  0.00    +0.162 A 
ATOM     10  C   UNL     1       5.795  -3.622  22.794  0.00  0.00    +0.049 A 
ATOM     11  C   UNL     1       5.446  -4.861  22.263  0.00  0.00    +0.004 A 
ATOM     12  C   UNL     1       6.327  -5.925  22.375  0.00  0.00    +0.004 A 
ATOM     13  C   UNL     1       7.561  -5.742  22.999  0.00  0.00    +0.049 A 
BRANCH   8  14
ATOM     14  O   UNL     1       9.167  -4.309  24.138  0.00  0.00    -0.489 OA
BRANCH  14  16
ATOM     15  C   UNL     1       8.713  -4.467  26.512  0.00  0.00    +0.048 C 
ATOM     16  C   UNL     1       9.431  -5.074  25.321  0.00  0.00    +0.226 C 
ENDBRANCH  14  16
ENDBRANCH   8  14
ENDBRANCH   7   9
ENDBRANCH   6   7
ENDBRANCH   5   6
ENDBRANCH   3   5
ENDBRANCH   1   3
BRANCH   1  17
ATOM     17  C   UNL     1      10.195   1.064  22.486  0.00  0.00    +0.053 C 
BRANCH  17  18
ATOM     18  C   UNL     1      10.016   2.453  23.045  0.00  0.00    -0.044 A 
ATOM     19  C   UNL     1      11.094   3.262  23.394  0.00  0.00    +0.007 A 
ATOM     20  C   UNL     1      10.894   4.621  23.675  0.00  0.00    +0.048 A 
ATOM     21  C   UNL     1       9.627   5.206  23.547  0.00  0.00    +0.146 A 
ATOM     22  C   UNL     1       8.550   4.388  23.193  0.00  0.00    +0.147 A 
ATOM     23  C   UNL     1       8.732   3.014  23.013  0.00  0.00    +0.036 A 
BRANCH  22  24
ATOM     24  S   UNL     1       6.988   5.124  22.787  0.00  0.00    +0.059 S 
ATOM     25  O   UNL     1       6.582   5.964  23.887  0.00  0.00    -0.153 OA
ATOM     26  O   UNL     1       6.147   4.119  22.183  0.00  0.00    -0.153 OA
BRANCH  24  27
ATOM     27  N   UNL     1       7.353   6.193  21.544  0.00  0.00    -0.203 NA
ATOM     28  H   UNL     1       6.783   6.126  20.706  0.00  0.00    +0.144 HD
ATOM     29  H   UNL     1       7.751   7.078  21.846  0.00  0.00    +0.144 HD
ENDBRANCH  24  27
ENDBRANCH  22  24
BRANCH  21  30
ATOM     30  O   UNL     1       9.363   6.532  23.735  0.00  0.00    -0.493 OA
ATOM     31  C   UNL     1       9.705   7.108  24.987  0.00  0.00    +0.277 C 
ENDBRANCH  21  30
ENDBRANCH  17  18
ENDBRANCH   1  17
TORSDOF 12
ENDMDL
