MODEL 1
REMARK VINA RESULT:      -5.8      0.000      0.000
REMARK  Name = 
REMARK  2 active torsions:
REMARK  status: ('A' for Active; 'I' for Inactive)
REMARK    1  A    between atoms: C_7  and  N_8
REMARK    2  A    between atoms: N_8  and  C_9
REMARK                            x       y       z     vdW  Elec       q    Type
REMARK                         _______ _______ _______ _____ _____    ______ ____
ROOT
ATOM      1  N   UNL     1      10.175  -1.983  23.060  0.00  0.00    -0.320 N 
ATOM      2  H   UNL     1      10.399  -2.457  22.192  0.00  0.00    +0.152 HD
ENDROOT
BRANCH   1   6
ATOM      3  O   UNL     1       9.058  -4.327  26.454  0.00  0.00    -0.245 OA
ATOM      4  C   UNL     1       8.461  -4.386  25.396  0.00  0.00    +0.336 C 
ATOM      5  C   UNL     1       8.759  -3.617  24.172  0.00  0.00    +0.053 C 
ATOM      6  C   UNL     1       9.802  -2.782  24.110  0.00  0.00    +0.082 C 
ATOM      7  C   UNL     1       7.742  -3.927  23.146  0.00  0.00    +0.084 C 
ATOM      8  C   UNL     1       7.022  -5.106  23.761  0.00  0.00    +0.237 C 
ATOM      9  O   UNL     1       7.374  -5.164  25.144  0.00  0.00    -0.461 OA
ENDBRANCH   1   6
BRANCH   1  10
ATOM     10  C   UNL     1      10.189  -0.576  22.983  0.00  0.00    +0.031 A 
ATOM     11  C   UNL     1      10.606   0.154  24.108  0.00  0.00    +0.023 A 
ATOM     12  C   UNL     1      10.621   1.553  24.103  0.00  0.00    +0.002 A 
ATOM     13  C   UNL     1      10.211   2.249  22.970  0.00  0.00    +0.000 A 
ATOM     14  C   UNL     1       9.788   1.545  21.848  0.00  0.00    +0.002 A 
ATOM     15  C   UNL     1       9.775   0.145  21.856  0.00  0.00    +0.023 A 
ENDBRANCH   1  10
TORSDOF 2
ENDMDL
MODEL 2
REMARK VINA RESULT:      -5.8      1.678      2.267
REMARK  Name = 
REMARK  2 active torsions:
REMARK  status: ('A' for Active; 'I' for Inactive)
REMARK    1  A    between atoms: C_7  and  N_8
REMARK    2  A    between atoms: N_8  and  C_9
REMARK                            x       y       z     vdW  Elec       q    Type
REMARK                         _______ _______ _______ _____ _____    ______ ____
ROOT
ATOM      1  N   UNL     1       9.442  -1.844  22.435  0.00  0.00    -0.320 N 
ATOM      2  H   UNL     1      10.220  -2.486  22.336  0.00  0.00    +0.152 HD
ENDROOT
BRANCH   1   6
ATOM      3  O   UNL     1       5.590  -3.401  21.438  0.00  0.00    -0.245 OA
ATOM      4  C   UNL     1       6.267  -3.864  22.336  0.00  0.00    +0.336 C 
ATOM      5  C   UNL     1       7.607  -3.407  22.754  0.00  0.00    +0.053 C 
ATOM      6  C   UNL     1       8.196  -2.354  22.176  0.00  0.00    +0.082 C 
ATOM      7  C   UNL     1       8.108  -4.292  23.824  0.00  0.00    +0.084 C 
ATOM      8  C   UNL     1       6.875  -5.097  24.172  0.00  0.00    +0.237 C 
ATOM      9  O   UNL     1       5.924  -4.920  23.120  0.00  0.00    -0.461 OA
ENDBRANCH   1   6
BRANCH   1  10
ATOM     10  C   UNL     1       9.809  -0.513  22.718  0.00  0.00    +0.031 A 
ATOM     11  C   UNL     1      10.273  -0.203  24.007  0.00  0.00    +0.023 A 
ATOM     12  C   UNL     1      10.632   1.103  24.357  0.00  0.00    +0.002 A 
ATOM     13  C   UNL     1      10.526   2.127  23.421  0.00  0.00    +0.000 A 
ATOM     14  C   UNL     1      10.063   1.843  22.142  0.00  0.00    +0.002 A 
ATOM     15  C   UNL     1       9.705   0.535  21.795  0.00  0.00    +0.023 A 
ENDBRANCH   1  10
TORSDOF 2
ENDMDL
MODEL 3
REMARK VINA RESULT:      -5.7      1.680      2.598
REMARK  Name = 
REMARK  2 active torsions:
REMARK  status: ('A' for Active; 'I' for Inactive)
REMARK    1  A    between atoms: C_7  and  N_8
REMARK    2  A    between atoms: N_8  and  C_9
REMARK                            x       y       z     vdW  Elec       q    Type
REMARK                         _______ _______ _______ _____ _____    ______ ____
ROOT
ATOM      1  N   UNL     1       9.435  -1.833  22.410  0.00  0.00    -0.320 N 
ATOM      2  H   UNL     1      10.219  -2.453  22.242  0.00  0.00    +0.152 HD
ENDROOT
BRANCH   1   6
ATOM      3  O   UNL     1       5.586  -3.400  21.414  0.00  0.00    -0.245 OA
ATOM      4  C   UNL     1       6.262  -3.857  22.317  0.00  0.00    +0.336 C 
ATOM      5  C   UNL     1       7.600  -3.396  22.734  0.00  0.00    +0.053 C 
ATOM      6  C   UNL     1       8.190  -2.346  22.152  0.00  0.00    +0.082 C 
ATOM      7  C   UNL     1       8.100  -4.275  23.811  0.00  0.00    +0.084 C 
ATOM      8  C   UNL     1       6.868  -5.079  24.161  0.00  0.00    +0.237 C 
ATOM      9  O   UNL     1       5.919  -4.909  23.106  0.00  0.00    -0.461 OA
ENDBRANCH   1   6
BRANCH   1  10
ATOM     10  C   UNL     1       9.789  -0.520  22.777  0.00  0.00    +0.031 A 
ATOM     11  C   UNL     1       9.689   0.498  21.814  0.00  0.00    +0.023 A 
ATOM     12  C   UNL     1      10.047   1.817  22.109  0.00  0.00    +0.002 A 
ATOM     13  C   UNL     1      10.519   2.142  23.377  0.00  0.00    +0.000 A 
ATOM     14  C   UNL     1      10.632   1.149  24.343  0.00  0.00    +0.002 A 
ATOM     15  C   UNL     1      10.272  -0.170  24.044  0.00  0.00    +0.023 A 
ENDBRANCH   1  10
TORSDOF 2
ENDMDL
MODEL 4
REMARK VINA RESULT:      -5.6      0.892      1.604
REMARK  Name = 
REMARK  2 active torsions:
REMARK  status: ('A' for Active; 'I' for Inactive)
REMARK    1  A    between atoms: C_7  and  N_8
REMARK    2  A    between atoms: N_8  and  C_9
REMARK                            x       y       z     vdW  Elec       q    Type
REMARK                         _______ _______ _______ _____ _____    ______ ____
ROOT
ATOM      1  N   UNL     1      10.114  -2.560  23.738  0.00  0.00    -0.320 N 
ATOM      2  H   UNL     1      10.879  -3.108  23.362  0.00  0.00    +0.152 HD
ENDROOT
BRANCH   1   6
ATOM      3  O   UNL     1       7.508  -4.421  26.567  0.00  0.00    -0.245 OA
ATOM      4  C   UNL     1       7.352  -4.532  25.366  0.00  0.00    +0.336 C 
ATOM      5  C   UNL     1       8.185  -3.926  24.310  0.00  0.00    +0.053 C 
ATOM      6  C   UNL     1       9.273  -3.206  24.606  0.00  0.00    +0.082 C 
ATOM      7  C   UNL     1       7.600  -4.241  22.991  0.00  0.00    +0.084 C 
ATOM      8  C   UNL     1       6.556  -5.276  23.348  0.00  0.00    +0.237 C 
ATOM      9  O   UNL     1       6.350  -5.223  24.761  0.00  0.00    -0.461 OA
ENDBRANCH   1   6
BRANCH   1  10
ATOM     10  C   UNL     1      10.002  -1.261  23.204  0.00  0.00    +0.031 A 
ATOM     11  C   UNL     1       9.478  -1.108  21.909  0.00  0.00    +0.023 A 
ATOM     12  C   UNL     1       9.362   0.153  21.315  0.00  0.00    +0.002 A 
ATOM     13  C   UNL     1       9.777   1.287  22.005  0.00  0.00    +0.000 A 
ATOM     14  C   UNL     1      10.305   1.158  23.285  0.00  0.00    +0.002 A 
ATOM     15  C   UNL     1      10.418  -0.105  23.877  0.00  0.00    +0.023 A 
ENDBRANCH   1  10
TORSDOF 2
ENDMDL
MODEL 5
REMARK VINA RESULT:      -5.6      1.022      2.168
REMARK  Name = 
REMARK  2 active torsions:
REMARK  status: ('A' for Active; 'I' for Inactive)
REMARK    1  A    between atoms: C_7  and  N_8
REMARK    2  A    between atoms: N_8  and  C_9
REMARK                            x       y       z     vdW  Elec       q    Type
REMARK                         _______ _______ _______ _____ _____    ______ ____
ROOT
ATOM      1  N   UNL     1       9.939  -2.346  23.870  0.00  0.00    -0.320 N 
ATOM      2  H   UNL     1      10.836  -2.772  24.080  0.00  0.00    +0.152 HD
ENDROOT
BRANCH   1   6
ATOM      3  O   UNL     1       6.613  -5.017  23.620  0.00  0.00    -0.245 OA
ATOM      4  C   UNL     1       7.267  -4.885  24.637  0.00  0.00    +0.336 C 
ATOM      5  C   UNL     1       8.434  -4.000  24.825  0.00  0.00    +0.053 C 
ATOM      6  C   UNL     1       8.858  -3.189  23.849  0.00  0.00    +0.082 C 
ATOM      7  C   UNL     1       8.983  -4.206  26.180  0.00  0.00    +0.084 C 
ATOM      8  C   UNL     1       7.908  -5.045  26.833  0.00  0.00    +0.237 C 
ATOM      9  O   UNL     1       7.062  -5.555  25.802  0.00  0.00    -0.461 OA
ENDBRANCH   1   6
BRANCH   1  10
ATOM     10  C   UNL     1      10.000  -0.980  23.533  0.00  0.00    +0.031 A 
ATOM     11  C   UNL     1       9.719  -0.601  22.210  0.00  0.00    +0.023 A 
ATOM     12  C   UNL     1       9.784   0.737  21.807  0.00  0.00    +0.002 A 
ATOM     13  C   UNL     1      10.138   1.723  22.723  0.00  0.00    +0.000 A 
ATOM     14  C   UNL     1      10.427   1.368  24.036  0.00  0.00    +0.002 A 
ATOM     15  C   UNL     1      10.360   0.028  24.436  0.00  0.00    +0.023 A 
ENDBRANCH   1  10
TORSDOF 2
ENDMDL
MODEL 6
REMARK VINA RESULT:      -5.5      5.048      7.666
REMARK  Name = 
REMARK  2 active torsions:
REMARK  status: ('A' for Active; 'I' for Inactive)
REMARK    1  A    between atoms: C_7  and  N_8
REMARK    2  A    between atoms: N_8  and  C_9
REMARK                            x       y       z     vdW  Elec       q    Type
REMARK                         _______ _______ _______ _____ _____    ______ ____
ROOT
ATOM      1  N   UNL     1      10.109   2.808  22.668  0.00  0.00    -0.320 N 
ATOM      2  H   UNL     1       9.298   3.304  22.317  0.00  0.00    +0.152 HD
ENDROOT
BRANCH   1   6
ATOM      3  O   UNL     1      13.618   5.140  23.381  0.00  0.00    -0.245 OA
ATOM      4  C   UNL     1      12.518   5.482  23.772  0.00  0.00    +0.336 C 
ATOM      5  C   UNL     1      11.248   4.757  23.572  0.00  0.00    +0.053 C 
ATOM      6  C   UNL     1      11.212   3.571  22.953  0.00  0.00    +0.082 C 
ATOM      7  C   UNL     1      10.141   5.558  24.131  0.00  0.00    +0.084 C 
ATOM      8  C   UNL     1      10.882   6.635  24.891  0.00  0.00    +0.237 C 
ATOM      9  O   UNL     1      12.242   6.625  24.453  0.00  0.00    -0.461 OA
ENDBRANCH   1   6
BRANCH   1  10
ATOM     10  C   UNL     1       9.978   1.405  22.692  0.00  0.00    +0.031 A 
ATOM     11  C   UNL     1      10.359   0.714  23.854  0.00  0.00    +0.023 A 
ATOM     12  C   UNL     1      10.273  -0.680  23.933  0.00  0.00    +0.002 A 
ATOM     13  C   UNL     1       9.809  -1.411  22.843  0.00  0.00    +0.000 A 
ATOM     14  C   UNL     1       9.433  -0.747  21.681  0.00  0.00    +0.002 A 
ATOM     15  C   UNL     1       9.519   0.649  21.606  0.00  0.00    +0.023 A 
ENDBRANCH   1  10
TORSDOF 2
ENDMDL
MODEL 7
REMARK VINA RESULT:      -5.5      2.783      5.936
REMARK  Name = 
REMARK  2 active torsions:
REMARK  status: ('A' for Active; 'I' for Inactive)
REMARK    1  A    between atoms: C_7  and  N_8
REMARK    2  A    between atoms: N_8  and  C_9
REMARK                            x       y       z     vdW  Elec       q    Type
REMARK                         _______ _______ _______ _____ _____    ______ ____
ROOT
ATOM      1  N   UNL     1       9.927  -3.017  24.170  0.00  0.00    -0.320 N 
ATOM      2  H   UNL     1      10.842  -3.196  24.569  0.00  0.00    +0.152 HD
ENDROOT
BRANCH   1   6
ATOM      3  O   UNL     1       9.547   0.048  21.217  0.00  0.00    -0.245 OA
ATOM      4  C   UNL     1       9.882   0.285  22.363  0.00  0.00    +0.336 C 
ATOM      5  C   UNL     1      10.035  -0.695  23.456  0.00  0.00    +0.053 C 
ATOM      6  C   UNL     1       9.855  -2.005  23.249  0.00  0.00    +0.082 C 
ATOM      7  C   UNL     1      10.374   0.020  24.702  0.00  0.00    +0.084 C 
ATOM      8  C   UNL     1      10.670   1.414  24.197  0.00  0.00    +0.237 C 
ATOM      9  O   UNL     1      10.159   1.517  22.866  0.00  0.00    -0.461 OA
ENDBRANCH   1   6
BRANCH   1  10
ATOM     10  C   UNL     1       8.882  -3.780  24.727  0.00  0.00    +0.031 A 
ATOM     11  C   UNL     1       8.922  -4.074  26.100  0.00  0.00    +0.023 A 
ATOM     12  C   UNL     1       7.926  -4.846  26.708  0.00  0.00    +0.002 A 
ATOM     13  C   UNL     1       6.872  -5.345  25.948  0.00  0.00    +0.000 A 
ATOM     14  C   UNL     1       6.818  -5.072  24.586  0.00  0.00    +0.002 A 
ATOM     15  C   UNL     1       7.816  -4.298  23.981  0.00  0.00    +0.023 A 
ENDBRANCH   1  10
TORSDOF 2
ENDMDL
MODEL 8
REMARK VINA RESULT:      -5.2      2.915      4.216
REMARK  Name = 
REMARK  2 active torsions:
REMARK  status: ('A' for Active; 'I' for Inactive)
REMARK    1  A    between atoms: C_7  and  N_8
REMARK    2  A    between atoms: N_8  and  C_9
REMARK                            x       y       z     vdW  Elec       q    Type
REMARK                         _______ _______ _______ _____ _____    ______ ____
ROOT
ATOM      1  N   UNL     1       8.915   2.542  23.736  0.00  0.00    -0.320 N 
ATOM      2  H   UNL     1       8.011   2.766  23.334  0.00  0.00    +0.152 HD
ENDROOT
BRANCH   1   6
ATOM      3  O   UNL     1       9.108  -1.271  25.657  0.00  0.00    -0.245 OA
ATOM      4  C   UNL     1       9.445  -1.106  24.500  0.00  0.00    +0.336 C 
ATOM      5  C   UNL     1       9.410   0.161  23.744  0.00  0.00    +0.053 C 
ATOM      6  C   UNL     1       9.029   1.307  24.320  0.00  0.00    +0.082 C 
ATOM      7  C   UNL     1       9.824  -0.095  22.350  0.00  0.00    +0.084 C 
ATOM      8  C   UNL     1      10.352  -1.510  22.432  0.00  0.00    +0.237 C 
ATOM      9  O   UNL     1       9.901  -2.076  23.664  0.00  0.00    -0.461 OA
ENDBRANCH   1   6
BRANCH   1  10
ATOM     10  C   UNL     1       9.849   3.596  23.710  0.00  0.00    +0.031 A 
ATOM     11  C   UNL     1       9.412   4.891  24.033  0.00  0.00    +0.023 A 
ATOM     12  C   UNL     1      10.285   5.983  24.004  0.00  0.00    +0.002 A 
ATOM     13  C   UNL     1      11.617   5.798  23.644  0.00  0.00    +0.000 A 
ATOM     14  C   UNL     1      12.069   4.526  23.314  0.00  0.00    +0.002 A 
ATOM     15  C   UNL     1      11.192   3.435  23.345  0.00  0.00    +0.023 A 
ENDBRANCH   1  10
TORSDOF 2
ENDMDL
MODEL 9
REMARK VINA RESULT:      -5.2      2.630      5.665
REMARK  Name = 
REMARK  2 active torsions:
REMARK  status: ('A' for Active; 'I' for Inactive)
REMARK    1  A    between atoms: C_7  and  N_8
REMARK    2  A    between atoms: N_8  and  C_9
REMARK                            x       y       z     vdW  Elec       q    Type
REMARK                         _______ _______ _______ _____ _____    ______ ____
ROOT
ATOM      1  N   UNL     1       9.179  -2.930  23.300  0.00  0.00    -0.320 N 
ATOM      2  H   UNL     1       9.861  -3.598  22.958  0.00  0.00    +0.152 HD
ENDROOT
BRANCH   1   6
ATOM      3  O   UNL     1      10.862   0.554  25.112  0.00  0.00    -0.245 OA
ATOM      4  C   UNL     1      10.467   0.544  23.961  0.00  0.00    +0.336 C 
ATOM      5  C   UNL     1       9.881  -0.603  23.242  0.00  0.00    +0.053 C 
ATOM      6  C   UNL     1       9.678  -1.778  23.849  0.00  0.00    +0.082 C 
ATOM      7  C   UNL     1       9.615  -0.212  21.843  0.00  0.00    +0.084 C 
ATOM      8  C   UNL     1       9.829   1.285  21.887  0.00  0.00    +0.237 C 
ATOM      9  O   UNL     1      10.517   1.595  23.100  0.00  0.00    -0.461 OA
ENDBRANCH   1   6
BRANCH   1  10
ATOM     10  C   UNL     1       7.842  -3.372  23.239  0.00  0.00    +0.031 A 
ATOM     11  C   UNL     1       6.951  -2.702  22.384  0.00  0.00    +0.023 A 
ATOM     12  C   UNL     1       5.606  -3.078  22.295  0.00  0.00    +0.002 A 
ATOM     13  C   UNL     1       5.126  -4.131  23.068  0.00  0.00    +0.000 A 
ATOM     14  C   UNL     1       5.990  -4.803  23.925  0.00  0.00    +0.002 A 
ATOM     15  C   UNL     1       7.335  -4.425  24.011  0.00  0.00    +0.023 A 
ENDBRANCH   1  10
TORSDOF 2
ENDMDL
