MODEL 1
REMARK VINA RESULT:      -4.1      0.000      0.000
REMARK  Name = 
REMARK  9 active torsions:
REMARK  status: ('A' for Active; 'I' for Inactive)
REMARK    1  A    between atoms: N_1  and  C_2
REMARK    2  A    between atoms: C_2  and  C_3
REMARK    3  A    between atoms: C_3  and  C_4
REMARK    4  A    between atoms: C_4  and  S_5
REMARK    5  A    between atoms: S_5  and  C_6
REMARK    6  A    between atoms: C_6  and  C_7
REMARK    7  A    between atoms: C_7  and  N_9
REMARK    8  A    between atoms: C_7  and  C_10
REMARK    9  A    between atoms: C_10  and  O_11
REMARK                            x       y       z     vdW  Elec       q    Type
REMARK                         _______ _______ _______ _____ _____    ______ ____
ROOT
ATOM      1  C   UNK     1       8.800  -3.719  24.167  0.00  0.00    +0.089 C 
ENDROOT
BRANCH   1   2
ATOM      2  S   UNK     1       9.780  -2.232  23.741  0.00  0.00    -0.159 S 
BRANCH   2   3
ATOM      3  C   UNK     1       8.828  -1.678  22.286  0.00  0.00    +0.070 C 
BRANCH   3   4
ATOM      4  C   UNK     1       9.612  -0.582  21.567  0.00  0.00    +0.025 C 
BRANCH   4   5
ATOM      5  C   UNK     1       9.817   0.666  22.431  0.00  0.00    +0.078 C 
BRANCH   5   6
ATOM      6  N   UNK     1       9.897   1.876  21.625  0.00  0.00    -0.330 NA
ATOM      7  H   UNK     1       9.131   1.892  20.951  0.00  0.00    +0.118 HD
ATOM      8  H   UNK     1       9.758   2.689  22.225  0.00  0.00    +0.118 HD
ENDBRANCH   5   6
ENDBRANCH   4   5
ENDBRANCH   3   4
ENDBRANCH   2   3
ENDBRANCH   1   2
BRANCH   1   9
ATOM      9  C   UNK     1       9.327  -4.361  25.470  0.00  0.00    +0.086 C 
BRANCH   9  10
ATOM     10  N   UNK     1       9.837  -5.728  25.207  0.00  0.00    -0.325 NA
ATOM     11  H   UNK     1       9.546  -6.315  25.996  0.00  0.00    +0.119 HD
ATOM     12  H   UNK     1       9.359  -6.110  24.390  0.00  0.00    +0.119 HD
ENDBRANCH   9  10
BRANCH   9  13
ATOM     13  C   UNK     1       8.215  -4.449  26.529  0.00  0.00    +0.175 C 
BRANCH  13  14
ATOM     14  O   UNK     1       8.278  -5.701  27.208  0.00  0.00    -0.393 OA
ATOM     15  H   UNK     1       8.742  -6.296  26.584  0.00  0.00    +0.209 HD
ENDBRANCH  13  14
ENDBRANCH   9  13
ENDBRANCH   1   9
TORSDOF 9
ENDMDL
MODEL 2
REMARK VINA RESULT:      -4.0      4.947      6.424
REMARK  Name = 
REMARK  9 active torsions:
REMARK  status: ('A' for Active; 'I' for Inactive)
REMARK    1  A    between atoms: N_1  and  C_2
REMARK    2  A    between atoms: C_2  and  C_3
REMARK    3  A    between atoms: C_3  and  C_4
REMARK    4  A    between atoms: C_4  and  S_5
REMARK    5  A    between atoms: S_5  and  C_6
REMARK    6  A    between atoms: C_6  and  C_7
REMARK    7  A    between atoms: C_7  and  N_9
REMARK    8  A    between atoms: C_7  and  C_10
REMARK    9  A    between atoms: C_10  and  O_11
REMARK                            x       y       z     vdW  Elec       q    Type
REMARK                         _______ _______ _______ _____ _____    ______ ____
ROOT
ATOM      1  C   UNK     1      10.253   1.960  23.629  0.00  0.00    +0.089 C 
ENDROOT
BRANCH   1   2
ATOM      2  S   UNK     1       9.139   3.414  23.656  0.00  0.00    -0.159 S 
BRANCH   2   3
ATOM      3  C   UNK     1      10.388   4.716  23.931  0.00  0.00    +0.070 C 
BRANCH   3   4
ATOM      4  C   UNK     1      11.699   4.295  23.270  0.00  0.00    +0.025 C 
BRANCH   4   5
ATOM      5  C   UNK     1      12.647   5.472  23.028  0.00  0.00    +0.078 C 
BRANCH   5   6
ATOM      6  N   UNK     1      14.043   5.081  23.166  0.00  0.00    -0.330 NA
ATOM      7  H   UNK     1      14.171   4.558  24.032  0.00  0.00    +0.118 HD
ATOM      8  H   UNK     1      14.288   4.438  22.413  0.00  0.00    +0.118 HD
ENDBRANCH   5   6
ENDBRANCH   4   5
ENDBRANCH   3   4
ENDBRANCH   2   3
ENDBRANCH   1   2
BRANCH   1   9
ATOM      9  C   UNK     1      10.111   1.193  22.296  0.00  0.00    +0.086 C 
BRANCH   9  10
ATOM     10  N   UNK     1       9.284   1.963  21.338  0.00  0.00    -0.325 NA
ATOM     11  H   UNK     1       8.939   2.791  21.834  0.00  0.00    +0.119 HD
ATOM     12  H   UNK     1       9.883   2.320  20.592  0.00  0.00    +0.119 HD
ENDBRANCH   9  10
BRANCH   9  13
ATOM     13  C   UNK     1       9.453  -0.179  22.518  0.00  0.00    +0.175 C 
BRANCH  13  14
ATOM     14  O   UNK     1       9.938  -1.120  21.563  0.00  0.00    -0.393 OA
ATOM     15  H   UNK     1       9.509  -0.858  20.722  0.00  0.00    +0.209 HD
ENDBRANCH  13  14
ENDBRANCH   9  13
ENDBRANCH   1   9
TORSDOF 9
ENDMDL
MODEL 3
REMARK VINA RESULT:      -4.0      3.378      6.002
REMARK  Name = 
REMARK  9 active torsions:
REMARK  status: ('A' for Active; 'I' for Inactive)
REMARK    1  A    between atoms: N_1  and  C_2
REMARK    2  A    between atoms: C_2  and  C_3
REMARK    3  A    between atoms: C_3  and  C_4
REMARK    4  A    between atoms: C_4  and  S_5
REMARK    5  A    between atoms: S_5  and  C_6
REMARK    6  A    between atoms: C_6  and  C_7
REMARK    7  A    between atoms: C_7  and  N_9
REMARK    8  A    between atoms: C_7  and  C_10
REMARK    9  A    between atoms: C_10  and  O_11
REMARK                            x       y       z     vdW  Elec       q    Type
REMARK                         _______ _______ _______ _____ _____    ______ ____
ROOT
ATOM      1  C   UNK     1       8.374  -0.712  23.105  0.00  0.00    +0.089 C 
ENDROOT
BRANCH   1   2
ATOM      2  S   UNK     1       9.140  -2.168  23.910  0.00  0.00    -0.159 S 
BRANCH   2   3
ATOM      3  C   UNK     1       7.855  -3.407  23.526  0.00  0.00    +0.070 C 
BRANCH   3   4
ATOM      4  C   UNK     1       8.135  -4.677  24.328  0.00  0.00    +0.025 C 
BRANCH   4   5
ATOM      5  C   UNK     1       9.270  -4.502  25.340  0.00  0.00    +0.078 C 
BRANCH   5   6
ATOM      6  N   UNK     1      10.154  -5.658  25.368  0.00  0.00    -0.330 NA
ATOM      7  H   UNK     1      11.120  -5.350  25.483  0.00  0.00    +0.118 HD
ATOM      8  H   UNK     1       9.941  -6.224  26.189  0.00  0.00    +0.118 HD
ENDBRANCH   5   6
ENDBRANCH   4   5
ENDBRANCH   3   4
ENDBRANCH   2   3
ENDBRANCH   1   2
BRANCH   1   9
ATOM      9  C   UNK     1       9.144  -0.334  21.821  0.00  0.00    +0.086 C 
BRANCH   9  10
ATOM     10  N   UNK     1      10.072  -1.422  21.431  0.00  0.00    -0.325 NA
ATOM     11  H   UNK     1       9.606  -2.309  21.651  0.00  0.00    +0.119 HD
ATOM     12  H   UNK     1      10.183  -1.416  20.416  0.00  0.00    +0.119 HD
ENDBRANCH   9  10
BRANCH   9  13
ATOM     13  C   UNK     1       9.960   0.953  22.029  0.00  0.00    +0.175 C 
BRANCH  13  14
ATOM     14  O   UNK     1       9.403   2.020  21.266  0.00  0.00    -0.393 OA
ATOM     15  H   UNK     1       9.939   2.803  21.510  0.00  0.00    +0.209 HD
ENDBRANCH  13  14
ENDBRANCH   9  13
ENDBRANCH   1   9
TORSDOF 9
ENDMDL
MODEL 4
REMARK VINA RESULT:      -3.9      3.233      3.870
REMARK  Name = 
REMARK  9 active torsions:
REMARK  status: ('A' for Active; 'I' for Inactive)
REMARK    1  A    between atoms: N_1  and  C_2
REMARK    2  A    between atoms: C_2  and  C_3
REMARK    3  A    between atoms: C_3  and  C_4
REMARK    4  A    between atoms: C_4  and  S_5
REMARK    5  A    between atoms: S_5  and  C_6
REMARK    6  A    between atoms: C_6  and  C_7
REMARK    7  A    between atoms: C_7  and  N_9
REMARK    8  A    between atoms: C_7  and  C_10
REMARK    9  A    between atoms: C_10  and  O_11
REMARK                            x       y       z     vdW  Elec       q    Type
REMARK                         _______ _______ _______ _____ _____    ______ ____
ROOT
ATOM      1  C   UNK     1       9.230  -1.170  24.904  0.00  0.00    +0.089 C 
ENDROOT
BRANCH   1   2
ATOM      2  S   UNK     1      10.256   0.340  24.753  0.00  0.00    -0.159 S 
BRANCH   2   3
ATOM      3  C   UNK     1       8.935   1.591  24.898  0.00  0.00    +0.070 C 
BRANCH   3   4
ATOM      4  C   UNK     1       9.036   2.559  23.720  0.00  0.00    +0.025 C 
BRANCH   4   5
ATOM      5  C   UNK     1      10.209   2.241  22.790  0.00  0.00    +0.078 C 
BRANCH   5   6
ATOM      6  N   UNK     1       9.765   1.969  21.430  0.00  0.00    -0.330 NA
ATOM      7  H   UNK     1       9.655   2.847  20.922  0.00  0.00    +0.118 HD
ATOM      8  H   UNK     1      10.491   1.450  20.937  0.00  0.00    +0.118 HD
ENDBRANCH   5   6
ENDBRANCH   4   5
ENDBRANCH   3   4
ENDBRANCH   2   3
ENDBRANCH   1   2
BRANCH   1   9
ATOM      9  C   UNK     1       9.430  -2.086  23.676  0.00  0.00    +0.086 C 
BRANCH   9  10
ATOM     10  N   UNK     1       9.949  -3.410  24.094  0.00  0.00    -0.325 NA
ATOM     11  H   UNK     1       9.679  -4.082  23.368  0.00  0.00    +0.119 HD
ATOM     12  H   UNK     1      10.969  -3.386  24.080  0.00  0.00    +0.119 HD
ENDBRANCH   9  10
BRANCH   9  13
ATOM     13  C   UNK     1      10.424  -1.462  22.681  0.00  0.00    +0.175 C 
BRANCH  13  14
ATOM     14  O   UNK     1       9.773  -1.178  21.445  0.00  0.00    -0.393 OA
ATOM     15  H   UNK     1       8.930  -0.752  21.705  0.00  0.00    +0.209 HD
ENDBRANCH  13  14
ENDBRANCH   9  13
ENDBRANCH   1   9
TORSDOF 9
ENDMDL
MODEL 5
REMARK VINA RESULT:      -3.9      4.732      6.312
REMARK  Name = 
REMARK  9 active torsions:
REMARK  status: ('A' for Active; 'I' for Inactive)
REMARK    1  A    between atoms: N_1  and  C_2
REMARK    2  A    between atoms: C_2  and  C_3
REMARK    3  A    between atoms: C_3  and  C_4
REMARK    4  A    between atoms: C_4  and  S_5
REMARK    5  A    between atoms: S_5  and  C_6
REMARK    6  A    between atoms: C_6  and  C_7
REMARK    7  A    between atoms: C_7  and  N_9
REMARK    8  A    between atoms: C_7  and  C_10
REMARK    9  A    between atoms: C_10  and  O_11
REMARK                            x       y       z     vdW  Elec       q    Type
REMARK                         _______ _______ _______ _____ _____    ______ ____
ROOT
ATOM      1  C   UNK     1       8.225   1.291  23.493  0.00  0.00    +0.089 C 
ENDROOT
BRANCH   1   2
ATOM      2  S   UNK     1       9.928   1.660  24.056  0.00  0.00    -0.159 S 
BRANCH   2   3
ATOM      3  C   UNK     1      10.381   0.005  24.678  0.00  0.00    +0.070 C 
BRANCH   3   4
ATOM      4  C   UNK     1       9.613  -1.051  23.885  0.00  0.00    +0.025 C 
BRANCH   4   5
ATOM      5  C   UNK     1      10.454  -1.688  22.775  0.00  0.00    +0.078 C 
BRANCH   5   6
ATOM      6  N   UNK     1       9.977  -1.314  21.451  0.00  0.00    -0.330 NA
ATOM      7  H   UNK     1      10.362  -1.951  20.754  0.00  0.00    +0.118 HD
ATOM      8  H   UNK     1       8.965  -1.435  21.412  0.00  0.00    +0.118 HD
ENDBRANCH   5   6
ENDBRANCH   4   5
ENDBRANCH   3   4
ENDBRANCH   2   3
ENDBRANCH   1   2
BRANCH   1   9
ATOM      9  C   UNK     1       8.037   1.712  22.019  0.00  0.00    +0.086 C 
BRANCH   9  10
ATOM     10  N   UNK     1       9.351   1.931  21.369  0.00  0.00    -0.325 NA
ATOM     11  H   UNK     1       9.191   1.922  20.356  0.00  0.00    +0.119 HD
ATOM     12  H   UNK     1       9.677   2.873  21.587  0.00  0.00    +0.119 HD
ENDBRANCH   9  10
BRANCH   9  13
ATOM     13  C   UNK     1       7.218   3.010  21.917  0.00  0.00    +0.175 C 
BRANCH  13  14
ATOM     14  O   UNK     1       8.054   4.141  22.152  0.00  0.00    -0.393 OA
ATOM     15  H   UNK     1       7.843   4.757  21.420  0.00  0.00    +0.209 HD
ENDBRANCH  13  14
ENDBRANCH   9  13
ENDBRANCH   1   9
TORSDOF 9
ENDMDL
MODEL 6
REMARK VINA RESULT:      -3.9      2.483      5.938
REMARK  Name = 
REMARK  9 active torsions:
REMARK  status: ('A' for Active; 'I' for Inactive)
REMARK    1  A    between atoms: N_1  and  C_2
REMARK    2  A    between atoms: C_2  and  C_3
REMARK    3  A    between atoms: C_3  and  C_4
REMARK    4  A    between atoms: C_4  and  S_5
REMARK    5  A    between atoms: S_5  and  C_6
REMARK    6  A    between atoms: C_6  and  C_7
REMARK    7  A    between atoms: C_7  and  N_9
REMARK    8  A    between atoms: C_7  and  C_10
REMARK    9  A    between atoms: C_10  and  O_11
REMARK                            x       y       z     vdW  Elec       q    Type
REMARK                         _______ _______ _______ _____ _____    ______ ____
ROOT
ATOM      1  C   UNK     1      10.182  -0.480  22.299  0.00  0.00    +0.089 C 
ENDROOT
BRANCH   1   2
ATOM      2  S   UNK     1       8.853  -1.711  22.573  0.00  0.00    -0.159 S 
BRANCH   2   3
ATOM      3  C   UNK     1       9.570  -2.580  24.009  0.00  0.00    +0.070 C 
BRANCH   3   4
ATOM      4  C   UNK     1       8.782  -3.866  24.255  0.00  0.00    +0.025 C 
BRANCH   4   5
ATOM      5  C   UNK     1       9.191  -4.574  25.549  0.00  0.00    +0.078 C 
BRANCH   5   6
ATOM      6  N   UNK     1      10.274  -5.521  25.329  0.00  0.00    -0.330 NA
ATOM      7  H   UNK     1      10.230  -6.263  26.028  0.00  0.00    +0.118 HD
ATOM      8  H   UNK     1      10.144  -5.978  24.427  0.00  0.00    +0.118 HD
ENDBRANCH   5   6
ENDBRANCH   4   5
ENDBRANCH   3   4
ENDBRANCH   2   3
ENDBRANCH   1   2
BRANCH   1   9
ATOM      9  C   UNK     1       9.727   0.922  22.762  0.00  0.00    +0.086 C 
BRANCH   9  10
ATOM     10  N   UNK     1       9.866   1.904  21.662  0.00  0.00    -0.325 NA
ATOM     11  H   UNK     1       9.650   2.827  22.052  0.00  0.00    +0.119 HD
ATOM     12  H   UNK     1      10.845   1.949  21.377  0.00  0.00    +0.119 HD
ENDBRANCH   9  10
BRANCH   9  13
ATOM     13  C   UNK     1      10.566   1.404  23.958  0.00  0.00    +0.175 C 
BRANCH  13  14
ATOM     14  O   UNK     1       9.932   1.047  25.183  0.00  0.00    -0.393 OA
ATOM     15  H   UNK     1       9.268   0.373  24.928  0.00  0.00    +0.209 HD
ENDBRANCH  13  14
ENDBRANCH   9  13
ENDBRANCH   1   9
TORSDOF 9
ENDMDL
MODEL 7
REMARK VINA RESULT:      -3.8      3.500      4.076
REMARK  Name = 
REMARK  9 active torsions:
REMARK  status: ('A' for Active; 'I' for Inactive)
REMARK    1  A    between atoms: N_1  and  C_2
REMARK    2  A    between atoms: C_2  and  C_3
REMARK    3  A    between atoms: C_3  and  C_4
REMARK    4  A    between atoms: C_4  and  S_5
REMARK    5  A    between atoms: S_5  and  C_6
REMARK    6  A    between atoms: C_6  and  C_7
REMARK    7  A    between atoms: C_7  and  N_9
REMARK    8  A    between atoms: C_7  and  C_10
REMARK    9  A    between atoms: C_10  and  O_11
REMARK                            x       y       z     vdW  Elec       q    Type
REMARK                         _______ _______ _______ _____ _____    ______ ____
ROOT
ATOM      1  C   UNK     1       9.568  -1.569  23.866  0.00  0.00    +0.089 C 
ENDROOT
BRANCH   1   2
ATOM      2  S   UNK     1       9.349  -0.002  24.788  0.00  0.00    -0.159 S 
BRANCH   2   3
ATOM      3  C   UNK     1      10.950   0.780  24.394  0.00  0.00    +0.070 C 
BRANCH   3   4
ATOM      4  C   UNK     1      10.697   2.193  23.869  0.00  0.00    +0.025 C 
BRANCH   4   5
ATOM      5  C   UNK     1       9.492   2.269  22.928  0.00  0.00    +0.078 C 
BRANCH   5   6
ATOM      6  N   UNK     1       9.870   2.035  21.542  0.00  0.00    -0.330 NA
ATOM      7  H   UNK     1      10.881   2.132  21.440  0.00  0.00    +0.118 HD
ATOM      8  H   UNK     1       9.656   1.069  21.293  0.00  0.00    +0.118 HD
ENDBRANCH   5   6
ENDBRANCH   4   5
ENDBRANCH   3   4
ENDBRANCH   2   3
ENDBRANCH   1   2
BRANCH   1   9
ATOM      9  C   UNK     1       8.686  -1.579  22.598  0.00  0.00    +0.086 C 
BRANCH   9  10
ATOM     10  N   UNK     1       9.451  -1.087  21.428  0.00  0.00    -0.325 NA
ATOM     11  H   UNK     1       9.795  -0.150  21.665  0.00  0.00    +0.119 HD
ATOM     12  H   UNK     1      10.284  -1.664  21.308  0.00  0.00    +0.119 HD
ENDBRANCH   9  10
BRANCH   9  13
ATOM     13  C   UNK     1       7.447  -0.688  22.783  0.00  0.00    +0.175 C 
BRANCH  13  14
ATOM     14  O   UNK     1       6.263  -1.483  22.792  0.00  0.00    -0.393 OA
ATOM     15  H   UNK     1       6.457  -2.204  23.425  0.00  0.00    +0.209 HD
ENDBRANCH  13  14
ENDBRANCH   9  13
ENDBRANCH   1   9
TORSDOF 9
ENDMDL
MODEL 8
REMARK VINA RESULT:      -3.8      2.394      2.747
REMARK  Name = 
REMARK  9 active torsions:
REMARK  status: ('A' for Active; 'I' for Inactive)
REMARK    1  A    between atoms: N_1  and  C_2
REMARK    2  A    between atoms: C_2  and  C_3
REMARK    3  A    between atoms: C_3  and  C_4
REMARK    4  A    between atoms: C_4  and  S_5
REMARK    5  A    between atoms: S_5  and  C_6
REMARK    6  A    between atoms: C_6  and  C_7
REMARK    7  A    between atoms: C_7  and  N_9
REMARK    8  A    between atoms: C_7  and  C_10
REMARK    9  A    between atoms: C_10  and  O_11
REMARK                            x       y       z     vdW  Elec       q    Type
REMARK                         _______ _______ _______ _____ _____    ______ ____
ROOT
ATOM      1  C   UNK     1       7.351  -3.690  26.356  0.00  0.00    +0.089 C 
ENDROOT
BRANCH   1   2
ATOM      2  S   UNK     1       7.622  -2.772  24.794  0.00  0.00    -0.159 S 
BRANCH   2   3
ATOM      3  C   UNK     1       8.673  -1.427  25.440  0.00  0.00    +0.070 C 
BRANCH   3   4
ATOM      4  C   UNK     1       9.723  -1.069  24.390  0.00  0.00    +0.025 C 
BRANCH   4   5
ATOM      5  C   UNK     1       9.935  -2.181  23.359  0.00  0.00    +0.078 C 
BRANCH   5   6
ATOM      6  N   UNK     1      10.415  -1.658  22.088  0.00  0.00    -0.330 NA
ATOM      7  H   UNK     1      10.131  -0.683  21.988  0.00  0.00    +0.118 HD
ATOM      8  H   UNK     1      11.435  -1.654  22.089  0.00  0.00    +0.118 HD
ENDBRANCH   5   6
ENDBRANCH   4   5
ENDBRANCH   3   4
ENDBRANCH   2   3
ENDBRANCH   1   2
BRANCH   1   9
ATOM      9  C   UNK     1       8.018  -5.082  26.290  0.00  0.00    +0.086 C 
BRANCH   9  10
ATOM     10  N   UNK     1       7.728  -5.857  27.519  0.00  0.00    -0.325 NA
ATOM     11  H   UNK     1       6.741  -5.699  27.749  0.00  0.00    +0.119 HD
ATOM     12  H   UNK     1       7.805  -6.853  27.310  0.00  0.00    +0.119 HD
ENDBRANCH   9  10
BRANCH   9  13
ATOM     13  C   UNK     1       9.544  -4.953  26.142  0.00  0.00    +0.175 C 
BRANCH  13  14
ATOM     14  O   UNK     1      10.014  -5.813  25.107  0.00  0.00    -0.393 OA
ATOM     15  H   UNK     1       9.847  -6.717  25.445  0.00  0.00    +0.209 HD
ENDBRANCH  13  14
ENDBRANCH   9  13
ENDBRANCH   1   9
TORSDOF 9
ENDMDL
MODEL 9
REMARK VINA RESULT:      -3.7      7.231      8.660
REMARK  Name = 
REMARK  9 active torsions:
REMARK  status: ('A' for Active; 'I' for Inactive)
REMARK    1  A    between atoms: N_1  and  C_2
REMARK    2  A    between atoms: C_2  and  C_3
REMARK    3  A    between atoms: C_3  and  C_4
REMARK    4  A    between atoms: C_4  and  S_5
REMARK    5  A    between atoms: S_5  and  C_6
REMARK    6  A    between atoms: C_6  and  C_7
REMARK    7  A    between atoms: C_7  and  N_9
REMARK    8  A    between atoms: C_7  and  C_10
REMARK    9  A    between atoms: C_10  and  O_11
REMARK                            x       y       z     vdW  Elec       q    Type
REMARK                         _______ _______ _______ _____ _____    ______ ____
ROOT
ATOM      1  C   UNK     1      10.318   5.852  24.216  0.00  0.00    +0.089 C 
ENDROOT
BRANCH   1   2
ATOM      2  S   UNK     1       8.817   6.307  23.270  0.00  0.00    -0.159 S 
BRANCH   2   3
ATOM      3  C   UNK     1       7.793   4.845  23.650  0.00  0.00    +0.070 C 
BRANCH   3   4
ATOM      4  C   UNK     1       7.587   4.037  22.370  0.00  0.00    +0.025 C 
BRANCH   4   5
ATOM      5  C   UNK     1       8.095   2.598  22.489  0.00  0.00    +0.078 C 
BRANCH   5   6
ATOM      6  N   UNK     1       9.222   2.345  21.603  0.00  0.00    -0.330 NA
ATOM      7  H   UNK     1       9.997   1.949  22.137  0.00  0.00    +0.118 HD
ATOM      8  H   UNK     1       8.961   1.634  20.921  0.00  0.00    +0.118 HD
ENDBRANCH   5   6
ENDBRANCH   4   5
ENDBRANCH   3   4
ENDBRANCH   2   3
ENDBRANCH   1   2
BRANCH   1   9
ATOM      9  C   UNK     1      11.449   5.414  23.260  0.00  0.00    +0.086 C 
BRANCH   9  10
ATOM     10  N   UNK     1      11.454   3.941  23.098  0.00  0.00    -0.325 NA
ATOM     11  H   UNK     1      12.424   3.628  23.211  0.00  0.00    +0.119 HD
ATOM     12  H   UNK     1      10.938   3.520  23.872  0.00  0.00    +0.119 HD
ENDBRANCH   9  10
BRANCH   9  13
ATOM     13  C   UNK     1      12.823   5.852  23.797  0.00  0.00    +0.175 C 
BRANCH  13  14
ATOM     14  O   UNK     1      13.855   5.055  23.221  0.00  0.00    -0.393 OA
ATOM     15  H   UNK     1      13.478   4.741  22.374  0.00  0.00    +0.209 HD
ENDBRANCH  13  14
ENDBRANCH   9  13
ENDBRANCH   1   9
TORSDOF 9
ENDMDL
