MODEL 1
REMARK VINA RESULT:      -4.5      0.000      0.000
REMARK  Name = 
REMARK  26 active torsions:
REMARK  status: ('A' for Active; 'I' for Inactive)
REMARK    1  A    between atoms: C_1  and  O_2
REMARK    2  A    between atoms: O_2  and  C_3
REMARK    3  A    between atoms: C_3  and  C_5
REMARK    4  A    between atoms: C_3  and  C_12
REMARK    5  A    between atoms: C_5  and  C_6
REMARK    6  A    between atoms: C_7  and  N_8
REMARK    7  A    between atoms: N_8  and  C_9
REMARK    8  A    between atoms: N_8  and  C_10
REMARK    9  A    between atoms: C_10  and  O_11
REMARK   10  A    between atoms: C_12  and  C_14
REMARK   11  A    between atoms: C_12  and  C_15
REMARK   12  A    between atoms: C_15  and  C_17
REMARK   13  A    between atoms: C_17  and  C_18
REMARK   14  A    between atoms: C_18  and  C_19
REMARK   15  A    between atoms: C_19  and  C_21
REMARK   16  A    between atoms: C_19  and  C_22
REMARK   17  A    between atoms: C_22  and  C_24
REMARK   18  A    between atoms: C_22  and  O_70
REMARK   19  A    between atoms: C_24  and  C_25
REMARK   20  A    between atoms: C_31  and  O_33
REMARK   21  A    between atoms: C_35  and  O_37
REMARK   22  A    between atoms: C_41  and  C_43
REMARK   23  A    between atoms: C_44  and  O_46
REMARK   24  A    between atoms: O_46  and  C_47
REMARK   25  A    between atoms: C_66  and  C_68
REMARK   26  A    between atoms: O_70  and  C_71
REMARK                            x       y       z     vdW  Elec       q    Type
REMARK                         _______ _______ _______ _____ _____    ______ ____
ROOT
ATOM      1  C   UNL     1       7.363   1.801  25.444  0.00  0.00    +0.182 C 
ATOM      2  C   UNL     1       6.631  -0.022  24.844  0.00  0.00    +0.027 C 
ATOM      3  C   UNL     1       6.060   0.675  23.550  0.00  0.00    +0.011 C 
ATOM      4  C   UNL     1       5.913  -1.997  24.818  0.00  0.00    +0.011 C 
ATOM      5  C   UNL     1       5.114  -3.821  24.143  0.00  0.00    +0.028 C 
ATOM      6  C   UNL     1       4.076  -5.476  24.322  0.00  0.00    -0.022 C 
ATOM      7  C   UNL     1       3.397  -6.688  23.599  0.00  0.00    +0.063 C 
ATOM      8  C   UNL     1       2.395  -7.974  24.036  0.00  0.00    +0.220 A 
ATOM      9  N   UNL     1       2.632  -9.019  24.855  0.00  0.00    -0.205 NA
ATOM     10  C   UNL     1       1.403  -9.779  25.040  0.00  0.00    +0.164 A 
ATOM     11  C   UNL     1       0.610  -9.566  23.941  0.00  0.00    +0.230 A 
ATOM     12  C   UNL     1       0.746  -9.617  26.402  0.00  0.00    +0.250 A 
ATOM     13  N   UNL     1       0.653  -8.359  26.758  0.00  0.00    -0.203 NA
ATOM     14  C   UNL     1       0.668  -8.383  28.102  0.00  0.00    +0.164 A 
ATOM     15  C   UNL     1       0.443  -9.653  28.554  0.00  0.00    +0.230 A 
ATOM     16  C   UNL     1       0.947  -7.148  28.847  0.00  0.00    +0.249 A 
ATOM     17  N   UNL     1       1.219  -6.027  28.211  0.00  0.00    -0.210 NA
ATOM     18  C   UNL     1       1.335  -5.093  29.195  0.00  0.00    +0.109 A 
ATOM     19  C   UNL     1       1.209  -5.710  30.415  0.00  0.00    +0.223 A 
ATOM     20  C   UNL     1       1.575  -3.659  28.877  0.00  0.00    +0.179 C 
ATOM     21  C   UNL     1       3.064  -3.344  29.030  0.00  0.00    +0.087 C 
ATOM     22  C   UNL     1       3.666  -3.698  30.398  0.00  0.00    +0.018 C 
ATOM     23  C   UNL     1       3.223  -1.862  28.911  0.00  0.00    +0.141 C 
ATOM     24  O   UNL     1       2.299  -1.078  29.129  0.00  0.00    -0.297 OA
ATOM     25  C   UNL     1       4.634  -1.419  28.714  0.00  0.00    +0.106 C 
ATOM     26  C   UNL     1       4.628   0.050  28.474  0.00  0.00    +0.124 C 
ATOM     27  C   UNL     1       6.000   0.504  28.863  0.00  0.00    +0.063 C 
ATOM     28  C   UNL     1       5.926   1.994  29.046  0.00  0.00    +0.128 C 
ATOM     29  C   UNL     1       7.346   2.491  29.142  0.00  0.00    +0.152 C 
ATOM     30  C   UNL     1       7.389   2.996  27.725  0.00  0.00    +0.310 C 
ATOM     31  O   UNL     1       7.021   4.135  27.474  0.00  0.00    -0.251 OA
ATOM     32  O   UNL     1       0.976  -7.031  30.208  0.00  0.00    -0.442 OA
ATOM     33  O   UNL     1       0.511 -10.493  27.452  0.00  0.00    -0.442 OA
ATOM     34  O   UNL     1       1.185  -8.459  23.251  0.00  0.00    -0.443 OA
ATOM     35  O   UNL     1       7.524   1.874  26.951  0.00  0.00    -0.461 OA
ENDROOT
BRANCH  20  36
ATOM     36  O   UNL     1       1.179  -3.326  27.524  0.00  0.00    -0.373 OA
ATOM     37  C   UNL     1       2.210  -3.585  26.575  0.00  0.00    +0.194 C 
ENDBRANCH  20  36
BRANCH  26  38
ATOM     38  O   UNL     1       4.400   0.312  27.089  0.00  0.00    -0.391 OA
ATOM     39  H   UNL     1       5.201   0.020  26.617  0.00  0.00    +0.210 HD
ENDBRANCH  26  38
BRANCH  28  40
ATOM     40  O   UNL     1       5.159   2.327  30.186  0.00  0.00    -0.391 OA
ATOM     41  H   UNL     1       5.755   2.679  30.866  0.00  0.00    +0.210 HD
ENDBRANCH  28  40
BRANCH   1  42
ATOM     42  C   UNL     1       7.688   3.739  24.992  0.00  0.00    +0.076 C 
BRANCH  42  43
ATOM     43  C   UNL     1       7.214   5.562  23.992  0.00  0.00    +0.124 C 
BRANCH  43  44
ATOM     44  C   UNL     1       5.906   6.119  22.744  0.00  0.00    +0.015 C 
ATOM     45  C   UNL     1       6.060   7.061  21.226  0.00  0.00    +0.010 C 
BRANCH  44  46
ATOM     46  C   UNL     1       4.827   7.106  23.304  0.00  0.00    +0.013 C 
BRANCH  46  47
ATOM     47  C   UNL     1       3.475   6.477  23.785  0.00  0.00    +0.075 C 
BRANCH  47  48
ATOM     48  C   UNL     1       3.779   5.242  24.596  0.00  0.00    +0.139 C 
ATOM     49  O   UNL     1       4.429   5.307  25.640  0.00  0.00    -0.297 OA
BRANCH  48  50
ATOM     50  C   UNL     1       3.213   3.942  24.081  0.00  0.00    +0.081 C 
ATOM     51  C   UNL     1       3.633   2.880  25.093  0.00  0.00    +0.018 C 
BRANCH  50  52
ATOM     52  C   UNL     1       1.687   4.054  23.901  0.00  0.00    +0.132 C 
BRANCH  52  54
ATOM     53  C   UNL     1       0.628   2.759  25.664  0.00  0.00    +0.194 C 
ATOM     54  O   UNL     1       1.018   4.034  25.177  0.00  0.00    -0.379 OA
ENDBRANCH  52  54
BRANCH  52  55
ATOM     55  C   UNL     1       1.140   2.985  22.921  0.00  0.00    +0.060 C 
BRANCH  55  56
ATOM     56  C   UNL     1       1.056   3.493  21.515  0.00  0.00    -0.009 C 
ATOM     57  C   UNL     1       1.568   4.657  21.094  0.00  0.00    +0.068 C 
BRANCH  57  58
ATOM     58  N   UNL     1       1.587   5.150  19.802  0.00  0.00    -0.317 N 
ATOM     59  C   UNL     1       2.172   6.450  19.468  0.00  0.00    +0.131 C 
BRANCH  58  60
ATOM     60  C   UNL     1       1.343   4.281  18.662  0.00  0.00    +0.263 C 
BRANCH  60  61
ATOM     61  O   UNL     1       2.551   4.123  17.954  0.00  0.00    -0.377 OA
ATOM     62  H   UNL     1       2.350   3.402  17.336  0.00  0.00    +0.211 HD
ENDBRANCH  60  61
ENDBRANCH  58  60
ENDBRANCH  57  58
ENDBRANCH  55  56
ENDBRANCH  52  55
ENDBRANCH  50  52
ENDBRANCH  48  50
ENDBRANCH  47  48
ENDBRANCH  46  47
ENDBRANCH  44  46
ENDBRANCH  43  44
BRANCH  43  63
ATOM     63  O   UNL     1       8.514   6.207  23.467  0.00  0.00    -0.379 OA
ATOM     64  C   UNL     1       9.753   6.099  24.280  0.00  0.00    +0.194 C 
ENDBRANCH  43  63
ENDBRANCH  42  43
ENDBRANCH   1  42
TORSDOF 18
ENDMDL
MODEL 2
REMARK VINA RESULT:      -2.5      1.873      3.176
REMARK  Name = 
REMARK  26 active torsions:
REMARK  status: ('A' for Active; 'I' for Inactive)
REMARK    1  A    between atoms: C_1  and  O_2
REMARK    2  A    between atoms: O_2  and  C_3
REMARK    3  A    between atoms: C_3  and  C_5
REMARK    4  A    between atoms: C_3  and  C_12
REMARK    5  A    between atoms: C_5  and  C_6
REMARK    6  A    between atoms: C_7  and  N_8
REMARK    7  A    between atoms: N_8  and  C_9
REMARK    8  A    between atoms: N_8  and  C_10
REMARK    9  A    between atoms: C_10  and  O_11
REMARK   10  A    between atoms: C_12  and  C_14
REMARK   11  A    between atoms: C_12  and  C_15
REMARK   12  A    between atoms: C_15  and  C_17
REMARK   13  A    between atoms: C_17  and  C_18
REMARK   14  A    between atoms: C_18  and  C_19
REMARK   15  A    between atoms: C_19  and  C_21
REMARK   16  A    between atoms: C_19  and  C_22
REMARK   17  A    between atoms: C_22  and  C_24
REMARK   18  A    between atoms: C_22  and  O_70
REMARK   19  A    between atoms: C_24  and  C_25
REMARK   20  A    between atoms: C_31  and  O_33
REMARK   21  A    between atoms: C_35  and  O_37
REMARK   22  A    between atoms: C_41  and  C_43
REMARK   23  A    between atoms: C_44  and  O_46
REMARK   24  A    between atoms: O_46  and  C_47
REMARK   25  A    between atoms: C_66  and  C_68
REMARK   26  A    between atoms: O_70  and  C_71
REMARK                            x       y       z     vdW  Elec       q    Type
REMARK                         _______ _______ _______ _____ _____    ______ ____
ROOT
ATOM      1  C   UNL     1       8.002   2.073  25.676  0.00  0.00    +0.182 C 
ATOM      2  C   UNL     1       7.295   0.249  25.049  0.00  0.00    +0.027 C 
ATOM      3  C   UNL     1       6.902   0.916  23.675  0.00  0.00    +0.011 C 
ATOM      4  C   UNL     1       6.530  -1.707  24.997  0.00  0.00    +0.011 C 
ATOM      5  C   UNL     1       5.766  -3.533  24.288  0.00  0.00    +0.028 C 
ATOM      6  C   UNL     1       4.667  -5.155  24.393  0.00  0.00    -0.022 C 
ATOM      7  C   UNL     1       4.045  -6.374  23.631  0.00  0.00    +0.063 C 
ATOM      8  C   UNL     1       2.963  -7.620  23.985  0.00  0.00    +0.220 A 
ATOM      9  N   UNL     1       3.071  -8.642  24.859  0.00  0.00    -0.205 NA
ATOM     10  C   UNL     1       1.808  -9.365  24.918  0.00  0.00    +0.164 A 
ATOM     11  C   UNL     1       1.158  -9.171  23.726  0.00  0.00    +0.230 A 
ATOM     12  C   UNL     1       1.000  -9.141  26.187  0.00  0.00    +0.250 A 
ATOM     13  N   UNL     1       0.900  -7.871  26.491  0.00  0.00    -0.203 NA
ATOM     14  C   UNL     1       0.756  -7.849  27.827  0.00  0.00    +0.164 A 
ATOM     15  C   UNL     1       0.443  -9.098  28.287  0.00  0.00    +0.230 A 
ATOM     16  C   UNL     1       0.979  -6.597  28.561  0.00  0.00    +0.249 A 
ATOM     17  N   UNL     1       1.356  -5.504  27.928  0.00  0.00    -0.210 NA
ATOM     18  C   UNL     1       1.381  -4.541  28.890  0.00  0.00    +0.109 A 
ATOM     19  C   UNL     1       1.093  -5.113  30.104  0.00  0.00    +0.223 A 
ATOM     20  C   UNL     1       1.697  -3.125  28.559  0.00  0.00    +0.179 C 
ATOM     21  C   UNL     1       3.166  -2.842  28.878  0.00  0.00    +0.087 C 
ATOM     22  C   UNL     1       3.591  -3.163  30.320  0.00  0.00    +0.018 C 
ATOM     23  C   UNL     1       3.379  -1.368  28.734  0.00  0.00    +0.141 C 
ATOM     24  O   UNL     1       2.459  -0.555  28.816  0.00  0.00    -0.297 OA
ATOM     25  C   UNL     1       4.816  -0.966  28.693  0.00  0.00    +0.106 C 
ATOM     26  C   UNL     1       4.880   0.493  28.410  0.00  0.00    +0.124 C 
ATOM     27  C   UNL     1       6.208   0.927  28.946  0.00  0.00    +0.063 C 
ATOM     28  C   UNL     1       6.155   2.423  29.073  0.00  0.00    +0.128 C 
ATOM     29  C   UNL     1       7.567   2.889  29.321  0.00  0.00    +0.152 C 
ATOM     30  C   UNL     1       7.792   3.344  27.905  0.00  0.00    +0.310 C 
ATOM     31  O   UNL     1       7.488   4.482  27.577  0.00  0.00    -0.251 OA
ATOM     32  O   UNL     1       0.849  -6.435  29.912  0.00  0.00    -0.442 OA
ATOM     33  O   UNL     1       0.617  -9.975  27.228  0.00  0.00    -0.442 OA
ATOM     34  O   UNL     1       1.841  -8.101  23.077  0.00  0.00    -0.443 OA
ATOM     35  O   UNL     1       7.986   2.193  27.187  0.00  0.00    -0.461 OA
ENDROOT
BRANCH  20  36
ATOM     36  O   UNL     1       1.474  -2.828  27.159  0.00  0.00    -0.373 OA
ATOM     37  C   UNL     1       0.456  -1.849  26.965  0.00  0.00    +0.194 C 
ENDBRANCH  20  36
BRANCH  26  38
ATOM     38  O   UNL     1       4.824   0.714  27.000  0.00  0.00    -0.391 OA
ATOM     39  H   UNL     1       5.417   0.055  26.594  0.00  0.00    +0.210 HD
ENDBRANCH  26  38
BRANCH  28  40
ATOM     40  O   UNL     1       5.268   2.812  30.102  0.00  0.00    -0.391 OA
ATOM     41  H   UNL     1       5.256   2.117  30.778  0.00  0.00    +0.210 HD
ENDBRANCH  28  40
BRANCH   1  42
ATOM     42  C   UNL     1       8.433   3.986  25.206  0.00  0.00    +0.076 C 
BRANCH  42  43
ATOM     43  C   UNL     1       7.918   6.038  24.931  0.00  0.00    +0.124 C 
BRANCH  43  44
ATOM     44  C   UNL     1       6.347   7.075  25.122  0.00  0.00    +0.015 C 
ATOM     45  C   UNL     1       5.081   7.063  26.391  0.00  0.00    +0.010 C 
BRANCH  44  46
ATOM     46  C   UNL     1       5.282   6.886  23.990  0.00  0.00    +0.013 C 
BRANCH  46  47
ATOM     47  C   UNL     1       5.334   5.542  23.187  0.00  0.00    +0.075 C 
BRANCH  47  48
ATOM     48  C   UNL     1       3.922   5.108  22.879  0.00  0.00    +0.139 C 
ATOM     49  O   UNL     1       3.349   5.478  21.854  0.00  0.00    -0.297 OA
BRANCH  48  50
ATOM     50  C   UNL     1       3.274   4.174  23.871  0.00  0.00    +0.081 C 
ATOM     51  C   UNL     1       4.300   3.975  24.981  0.00  0.00    +0.018 C 
BRANCH  50  52
ATOM     52  C   UNL     1       1.936   4.760  24.363  0.00  0.00    +0.132 C 
BRANCH  52  54
ATOM     53  C   UNL     1       1.393   6.952  25.262  0.00  0.00    +0.194 C 
ATOM     54  O   UNL     1       2.157   5.761  25.376  0.00  0.00    -0.379 OA
ENDBRANCH  52  54
BRANCH  52  55
ATOM     55  C   UNL     1       0.954   3.652  24.821  0.00  0.00    +0.060 C 
BRANCH  55  56
ATOM     56  C   UNL     1       0.775   3.630  26.308  0.00  0.00    -0.009 C 
ATOM     57  C   UNL     1       1.460   2.842  27.146  0.00  0.00    +0.068 C 
BRANCH  57  58
ATOM     58  N   UNL     1       1.395   2.824  28.527  0.00  0.00    -0.317 N 
ATOM     59  C   UNL     1       0.612   1.827  29.262  0.00  0.00    +0.131 C 
BRANCH  58  60
ATOM     60  C   UNL     1       2.351   3.562  29.336  0.00  0.00    +0.263 C 
BRANCH  60  61
ATOM     61  O   UNL     1       2.255   4.928  29.006  0.00  0.00    -0.377 OA
ATOM     62  H   UNL     1       2.869   5.348  29.630  0.00  0.00    +0.211 HD
ENDBRANCH  60  61
ENDBRANCH  58  60
ENDBRANCH  57  58
ENDBRANCH  55  56
ENDBRANCH  52  55
ENDBRANCH  50  52
ENDBRANCH  48  50
ENDBRANCH  47  48
ENDBRANCH  46  47
ENDBRANCH  44  46
ENDBRANCH  43  44
BRANCH  43  63
ATOM     63  O   UNL     1       8.527   6.542  23.606  0.00  0.00    -0.379 OA
ATOM     64  C   UNL     1       9.803   5.953  23.127  0.00  0.00    +0.194 C 
ENDBRANCH  43  63
ENDBRANCH  42  43
ENDBRANCH   1  42
TORSDOF 18
ENDMDL
MODEL 3
REMARK VINA RESULT:      -2.1      1.738      2.892
REMARK  Name = 
REMARK  26 active torsions:
REMARK  status: ('A' for Active; 'I' for Inactive)
REMARK    1  A    between atoms: C_1  and  O_2
REMARK    2  A    between atoms: O_2  and  C_3
REMARK    3  A    between atoms: C_3  and  C_5
REMARK    4  A    between atoms: C_3  and  C_12
REMARK    5  A    between atoms: C_5  and  C_6
REMARK    6  A    between atoms: C_7  and  N_8
REMARK    7  A    between atoms: N_8  and  C_9
REMARK    8  A    between atoms: N_8  and  C_10
REMARK    9  A    between atoms: C_10  and  O_11
REMARK   10  A    between atoms: C_12  and  C_14
REMARK   11  A    between atoms: C_12  and  C_15
REMARK   12  A    between atoms: C_15  and  C_17
REMARK   13  A    between atoms: C_17  and  C_18
REMARK   14  A    between atoms: C_18  and  C_19
REMARK   15  A    between atoms: C_19  and  C_21
REMARK   16  A    between atoms: C_19  and  C_22
REMARK   17  A    between atoms: C_22  and  C_24
REMARK   18  A    between atoms: C_22  and  O_70
REMARK   19  A    between atoms: C_24  and  C_25
REMARK   20  A    between atoms: C_31  and  O_33
REMARK   21  A    between atoms: C_35  and  O_37
REMARK   22  A    between atoms: C_41  and  C_43
REMARK   23  A    between atoms: C_44  and  O_46
REMARK   24  A    between atoms: O_46  and  C_47
REMARK   25  A    between atoms: C_66  and  C_68
REMARK   26  A    between atoms: O_70  and  C_71
REMARK                            x       y       z     vdW  Elec       q    Type
REMARK                         _______ _______ _______ _____ _____    ______ ____
ROOT
ATOM      1  C   UNL     1       7.444   1.914  25.789  0.00  0.00    +0.182 C 
ATOM      2  C   UNL     1       6.728   0.110  25.117  0.00  0.00    +0.027 C 
ATOM      3  C   UNL     1       6.191   0.845  23.829  0.00  0.00    +0.011 C 
ATOM      4  C   UNL     1       6.010  -1.863  25.014  0.00  0.00    +0.011 C 
ATOM      5  C   UNL     1       5.228  -3.665  24.265  0.00  0.00    +0.028 C 
ATOM      6  C   UNL     1       4.186  -5.324  24.370  0.00  0.00    -0.022 C 
ATOM      7  C   UNL     1       3.526  -6.514  23.594  0.00  0.00    +0.063 C 
ATOM      8  C   UNL     1       2.513  -7.811  23.967  0.00  0.00    +0.220 A 
ATOM      9  N   UNL     1       2.727  -8.879  24.761  0.00  0.00    -0.205 NA
ATOM     10  C   UNL     1       1.494  -9.643  24.891  0.00  0.00    +0.164 A 
ATOM     11  C   UNL     1       0.730  -9.398  23.778  0.00  0.00    +0.230 A 
ATOM     12  C   UNL     1       0.802  -9.520  26.240  0.00  0.00    +0.250 A 
ATOM     13  N   UNL     1       0.700  -8.274  26.630  0.00  0.00    -0.203 NA
ATOM     14  C   UNL     1       0.680  -8.336  27.973  0.00  0.00    +0.164 A 
ATOM     15  C   UNL     1       0.443  -9.619  28.381  0.00  0.00    +0.230 A 
ATOM     16  C   UNL     1       0.940  -7.124  28.760  0.00  0.00    +0.249 A 
ATOM     17  N   UNL     1       1.229  -5.985  28.164  0.00  0.00    -0.210 NA
ATOM     18  C   UNL     1       1.319  -5.080  29.178  0.00  0.00    +0.109 A 
ATOM     19  C   UNL     1       1.160  -5.732  30.376  0.00  0.00    +0.223 A 
ATOM     20  C   UNL     1       1.567  -3.638  28.908  0.00  0.00    +0.179 C 
ATOM     21  C   UNL     1       3.052  -3.329  29.109  0.00  0.00    +0.087 C 
ATOM     22  C   UNL     1       3.618  -3.723  30.482  0.00  0.00    +0.018 C 
ATOM     23  C   UNL     1       3.214  -1.844  29.038  0.00  0.00    +0.141 C 
ATOM     24  O   UNL     1       2.285  -1.066  29.254  0.00  0.00    -0.297 OA
ATOM     25  C   UNL     1       4.630  -1.397  28.891  0.00  0.00    +0.106 C 
ATOM     26  C   UNL     1       4.631   0.078  28.694  0.00  0.00    +0.124 C 
ATOM     27  C   UNL     1       5.993   0.519  29.132  0.00  0.00    +0.063 C 
ATOM     28  C   UNL     1       5.914   2.003  29.356  0.00  0.00    +0.128 C 
ATOM     29  C   UNL     1       7.331   2.496  29.503  0.00  0.00    +0.152 C 
ATOM     30  C   UNL     1       7.411   3.042  28.103  0.00  0.00    +0.310 C 
ATOM     31  O   UNL     1       7.049   4.188  27.876  0.00  0.00    -0.251 OA
ATOM     32  O   UNL     1       0.933  -7.047  30.124  0.00  0.00    -0.442 OA
ATOM     33  O   UNL     1       0.540 -10.426  27.258  0.00  0.00    -0.442 OA
ATOM     34  O   UNL     1       1.323  -8.271  23.137  0.00  0.00    -0.443 OA
ATOM     35  O   UNL     1       7.566   1.943  27.300  0.00  0.00    -0.461 OA
ENDROOT
BRANCH  20  36
ATOM     36  O   UNL     1       1.207  -3.265  27.557  0.00  0.00    -0.373 OA
ATOM     37  C   UNL     1       2.306  -3.358  26.653  0.00  0.00    +0.194 C 
ENDBRANCH  20  36
BRANCH  26  38
ATOM     38  O   UNL     1       4.439   0.381  27.312  0.00  0.00    -0.391 OA
ATOM     39  H   UNL     1       3.475   0.398  27.164  0.00  0.00    +0.210 HD
ENDBRANCH  26  38
BRANCH  28  40
ATOM     40  O   UNL     1       5.118   2.303  30.485  0.00  0.00    -0.391 OA
ATOM     41  H   UNL     1       5.636   2.122  31.285  0.00  0.00    +0.210 HD
ENDBRANCH  28  40
BRANCH   1  42
ATOM     42  C   UNL     1       7.781   3.864  25.402  0.00  0.00    +0.076 C 
BRANCH  42  43
ATOM     43  C   UNL     1       7.703   5.939  25.888  0.00  0.00    +0.124 C 
BRANCH  43  44
ATOM     44  C   UNL     1       6.433   7.094  26.685  0.00  0.00    +0.015 C 
ATOM     45  C   UNL     1       5.709   7.088  28.324  0.00  0.00    +0.010 C 
BRANCH  44  46
ATOM     46  C   UNL     1       5.022   7.101  26.008  0.00  0.00    +0.013 C 
BRANCH  46  47
ATOM     47  C   UNL     1       4.907   6.416  24.603  0.00  0.00    +0.075 C 
BRANCH  47  48
ATOM     48  C   UNL     1       4.010   5.209  24.727  0.00  0.00    +0.139 C 
ATOM     49  O   UNL     1       4.087   4.453  25.696  0.00  0.00    -0.297 OA
BRANCH  48  50
ATOM     50  C   UNL     1       2.997   5.007  23.627  0.00  0.00    +0.081 C 
ATOM     51  C   UNL     1       2.590   6.408  23.180  0.00  0.00    +0.018 C 
BRANCH  50  52
ATOM     52  C   UNL     1       3.597   4.148  22.498  0.00  0.00    +0.132 C 
BRANCH  52  54
ATOM     53  C   UNL     1       2.928   2.382  24.029  0.00  0.00    +0.194 C 
ATOM     54  O   UNL     1       3.702   2.769  22.903  0.00  0.00    -0.379 OA
ENDBRANCH  52  54
BRANCH  52  55
ATOM     55  C   UNL     1       4.941   4.724  21.984  0.00  0.00    +0.060 C 
BRANCH  55  56
ATOM     56  C   UNL     1       6.054   3.725  22.062  0.00  0.00    -0.009 C 
ATOM     57  C   UNL     1       7.357   4.034  22.043  0.00  0.00    +0.068 C 
BRANCH  57  58
ATOM     58  N   UNL     1       8.429   3.172  22.181  0.00  0.00    -0.317 N 
ATOM     59  C   UNL     1       8.437   1.830  21.595  0.00  0.00    +0.131 C 
BRANCH  58  60
ATOM     60  C   UNL     1       9.731   3.653  22.615  0.00  0.00    +0.263 C 
BRANCH  60  61
ATOM     61  O   UNL     1      10.538   2.541  22.924  0.00  0.00    -0.377 OA
ATOM     62  H   UNL     1      11.430   2.923  22.966  0.00  0.00    +0.211 HD
ENDBRANCH  60  61
ENDBRANCH  58  60
ENDBRANCH  57  58
ENDBRANCH  55  56
ENDBRANCH  52  55
ENDBRANCH  50  52
ENDBRANCH  48  50
ENDBRANCH  47  48
ENDBRANCH  46  47
ENDBRANCH  44  46
ENDBRANCH  43  44
BRANCH  43  63
ATOM     63  O   UNL     1       8.246   6.761  24.700  0.00  0.00    -0.379 OA
ATOM     64  C   UNL     1       9.681   6.640  24.335  0.00  0.00    +0.194 C 
ENDBRANCH  43  63
ENDBRANCH  42  43
ENDBRANCH   1  42
TORSDOF 18
ENDMDL
MODEL 4
REMARK VINA RESULT:      -1.6      3.154      5.212
REMARK  Name = 
REMARK  26 active torsions:
REMARK  status: ('A' for Active; 'I' for Inactive)
REMARK    1  A    between atoms: C_1  and  O_2
REMARK    2  A    between atoms: O_2  and  C_3
REMARK    3  A    between atoms: C_3  and  C_5
REMARK    4  A    between atoms: C_3  and  C_12
REMARK    5  A    between atoms: C_5  and  C_6
REMARK    6  A    between atoms: C_7  and  N_8
REMARK    7  A    between atoms: N_8  and  C_9
REMARK    8  A    between atoms: N_8  and  C_10
REMARK    9  A    between atoms: C_10  and  O_11
REMARK   10  A    between atoms: C_12  and  C_14
REMARK   11  A    between atoms: C_12  and  C_15
REMARK   12  A    between atoms: C_15  and  C_17
REMARK   13  A    between atoms: C_17  and  C_18
REMARK   14  A    between atoms: C_18  and  C_19
REMARK   15  A    between atoms: C_19  and  C_21
REMARK   16  A    between atoms: C_19  and  C_22
REMARK   17  A    between atoms: C_22  and  C_24
REMARK   18  A    between atoms: C_22  and  O_70
REMARK   19  A    between atoms: C_24  and  C_25
REMARK   20  A    between atoms: C_31  and  O_33
REMARK   21  A    between atoms: C_35  and  O_37
REMARK   22  A    between atoms: C_41  and  C_43
REMARK   23  A    between atoms: C_44  and  O_46
REMARK   24  A    between atoms: O_46  and  C_47
REMARK   25  A    between atoms: C_66  and  C_68
REMARK   26  A    between atoms: O_70  and  C_71
REMARK                            x       y       z     vdW  Elec       q    Type
REMARK                         _______ _______ _______ _____ _____    ______ ____
ROOT
ATOM      1  C   UNL     1       7.199   1.443  25.095  0.00  0.00    +0.182 C 
ATOM      2  C   UNL     1       6.453  -0.385  24.527  0.00  0.00    +0.027 C 
ATOM      3  C   UNL     1       5.833   0.306  23.253  0.00  0.00    +0.011 C 
ATOM      4  C   UNL     1       5.743  -2.363  24.533  0.00  0.00    +0.011 C 
ATOM      5  C   UNL     1       4.927  -4.192  23.892  0.00  0.00    +0.028 C 
ATOM      6  C   UNL     1       3.903  -5.850  24.115  0.00  0.00    -0.022 C 
ATOM      7  C   UNL     1       3.204  -7.067  23.420  0.00  0.00    +0.063 C 
ATOM      8  C   UNL     1       2.224  -8.356  23.897  0.00  0.00    +0.220 A 
ATOM      9  N   UNL     1       2.494  -9.397  24.710  0.00  0.00    -0.205 NA
ATOM     10  C   UNL     1       1.276 -10.162  24.941  0.00  0.00    +0.164 A 
ATOM     11  C   UNL     1       0.443  -9.956  23.871  0.00  0.00    +0.230 A 
ATOM     12  C   UNL     1       0.668  -9.997  26.326  0.00  0.00    +0.250 A 
ATOM     13  N   UNL     1       0.583  -8.740  26.681  0.00  0.00    -0.203 NA
ATOM     14  C   UNL     1       0.647  -8.758  28.024  0.00  0.00    +0.164 A 
ATOM     15  C   UNL     1       0.443 -10.029  28.487  0.00  0.00    +0.230 A 
ATOM     16  C   UNL     1       0.947  -7.521  28.754  0.00  0.00    +0.249 A 
ATOM     17  N   UNL     1       1.191  -6.400  28.105  0.00  0.00    -0.210 NA
ATOM     18  C   UNL     1       1.339  -5.463  29.082  0.00  0.00    +0.109 A 
ATOM     19  C   UNL     1       1.259  -6.076  30.308  0.00  0.00    +0.223 A 
ATOM     20  C   UNL     1       1.561  -4.029  28.751  0.00  0.00    +0.179 C 
ATOM     21  C   UNL     1       3.054  -3.708  28.849  0.00  0.00    +0.087 C 
ATOM     22  C   UNL     1       3.706  -4.055  30.196  0.00  0.00    +0.018 C 
ATOM     23  C   UNL     1       3.202  -2.225  28.720  0.00  0.00    +0.141 C 
ATOM     24  O   UNL     1       2.284  -1.444  28.969  0.00  0.00    -0.297 OA
ATOM     25  C   UNL     1       4.604  -1.777  28.471  0.00  0.00    +0.106 C 
ATOM     26  C   UNL     1       4.583  -0.309  28.227  0.00  0.00    +0.124 C 
ATOM     27  C   UNL     1       5.966   0.152  28.565  0.00  0.00    +0.063 C 
ATOM     28  C   UNL     1       5.893   1.641  28.746  0.00  0.00    +0.128 C 
ATOM     29  C   UNL     1       7.313   2.145  28.788  0.00  0.00    +0.152 C 
ATOM     30  C   UNL     1       7.303   2.645  27.370  0.00  0.00    +0.310 C 
ATOM     31  O   UNL     1       6.921   3.782  27.129  0.00  0.00    -0.251 OA
ATOM     32  O   UNL     1       1.024  -7.399  30.113  0.00  0.00    -0.442 OA
ATOM     33  O   UNL     1       0.475 -10.871  27.386  0.00  0.00    -0.442 OA
ATOM     34  O   UNL     1       0.987  -8.848  23.158  0.00  0.00    -0.443 OA
ATOM     35  O   UNL     1       7.414   1.521  26.594  0.00  0.00    -0.461 OA
ENDROOT
BRANCH  20  36
ATOM     36  O   UNL     1       1.116  -3.702  27.413  0.00  0.00    -0.373 OA
ATOM     37  C   UNL     1       2.133  -3.902  26.435  0.00  0.00    +0.194 C 
ENDBRANCH  20  36
BRANCH  26  38
ATOM     38  O   UNL     1       4.304  -0.052  26.851  0.00  0.00    -0.391 OA
ATOM     39  H   UNL     1       3.820  -0.830  26.517  0.00  0.00    +0.210 HD
ENDBRANCH  26  38
BRANCH  28  40
ATOM     40  O   UNL     1       5.166   1.975  29.912  0.00  0.00    -0.391 OA
ATOM     41  H   UNL     1       5.079   1.179  30.459  0.00  0.00    +0.210 HD
ENDBRANCH  28  40
BRANCH   1  42
ATOM     42  C   UNL     1       7.500   3.381  24.625  0.00  0.00    +0.076 C 
BRANCH  42  43
ATOM     43  C   UNL     1       8.425   5.282  24.903  0.00  0.00    +0.124 C 
BRANCH  43  44
ATOM     44  C   UNL     1       9.782   5.974  26.026  0.00  0.00    +0.015 C 
ATOM     45  C   UNL     1       9.687   7.077  27.436  0.00  0.00    +0.010 C 
BRANCH  44  46
ATOM     46  C   UNL     1      10.830   6.894  25.316  0.00  0.00    +0.013 C 
BRANCH  46  47
ATOM     47  C   UNL     1      11.813   6.201  24.311  0.00  0.00    +0.075 C 
BRANCH  47  48
ATOM     48  C   UNL     1      11.008   5.599  23.186  0.00  0.00    +0.139 C 
ATOM     49  O   UNL     1       9.856   5.968  22.956  0.00  0.00    -0.297 OA
BRANCH  48  50
ATOM     50  C   UNL     1      11.702   4.558  22.344  0.00  0.00    +0.081 C 
ATOM     51  C   UNL     1      13.177   4.637  22.724  0.00  0.00    +0.018 C 
BRANCH  50  52
ATOM     52  C   UNL     1      11.076   3.170  22.584  0.00  0.00    +0.132 C 
BRANCH  52  54
ATOM     53  C   UNL     1       9.109   1.919  21.895  0.00  0.00    +0.194 C 
ATOM     54  O   UNL     1       9.676   3.174  22.241  0.00  0.00    -0.379 OA
ENDBRANCH  52  54
BRANCH  52  55
ATOM     55  C   UNL     1      11.338   2.659  24.023  0.00  0.00    +0.060 C 
BRANCH  55  56
ATOM     56  C   UNL     1      10.521   1.448  24.354  0.00  0.00    -0.009 C 
ATOM     57  C   UNL     1      11.028   0.268  24.734  0.00  0.00    +0.068 C 
BRANCH  57  58
ATOM     58  N   UNL     1      10.331  -0.862  25.120  0.00  0.00    -0.317 N 
ATOM     59  C   UNL     1       9.720  -0.993  26.445  0.00  0.00    +0.131 C 
BRANCH  58  60
ATOM     60  C   UNL     1       9.872  -1.834  24.140  0.00  0.00    +0.263 C 
BRANCH  60  61
ATOM     61  O   UNL     1       9.518  -3.018  24.818  0.00  0.00    -0.377 OA
ATOM     62  H   UNL     1      10.254  -3.142  25.439  0.00  0.00    +0.211 HD
ENDBRANCH  60  61
ENDBRANCH  58  60
ENDBRANCH  57  58
ENDBRANCH  55  56
ENDBRANCH  52  55
ENDBRANCH  50  52
ENDBRANCH  48  50
ENDBRANCH  47  48
ENDBRANCH  46  47
ENDBRANCH  44  46
ENDBRANCH  43  44
BRANCH  43  63
ATOM     63  O   UNL     1       7.340   6.378  24.928  0.00  0.00    -0.379 OA
ATOM     64  C   UNL     1       6.926   7.013  23.650  0.00  0.00    +0.194 C 
ENDBRANCH  43  63
ENDBRANCH  42  43
ENDBRANCH   1  42
TORSDOF 18
ENDMDL
