MODEL 1
REMARK VINA RESULT:      -7.1      0.000      0.000
REMARK  Name = 
REMARK  8 active torsions:
REMARK  status: ('A' for Active; 'I' for Inactive)
REMARK    1  A    between atoms: C_1  and  C_2
REMARK    2  A    between atoms: C_2  and  C_3
REMARK    3  A    between atoms: C_3  and  N_4
REMARK    4  A    between atoms: C_5  and  C_27
REMARK    5  A    between atoms: C_7  and  C_19
REMARK    6  A    between atoms: C_8  and  C_9
REMARK    7  A    between atoms: N_14  and  C_15
REMARK    8  A    between atoms: N_30  and  C_31
REMARK                            x       y       z     vdW  Elec       q    Type
REMARK                         _______ _______ _______ _____ _____    ______ ____
ROOT
ATOM      1  N   UNL     1       9.087   1.121  23.834  0.00  0.00    -0.326 N 
ATOM      2  C   UNL     1       8.243   0.386  24.690  0.00  0.00    +0.095 A 
ATOM      3  C   UNL     1       7.472   1.383  25.294  0.00  0.00    +0.099 A 
ATOM      4  N   UNL     1       7.901   2.638  24.905  0.00  0.00    -0.231 NA
ATOM      5  C   UNL     1       8.923   2.472  24.098  0.00  0.00    +0.114 A 
ENDROOT
BRANCH   2   6
ATOM      6  C   UNL     1       8.292  -1.079  24.934  0.00  0.00    +0.094 A 
ATOM      7  N   UNL     1       7.912  -1.844  23.887  0.00  0.00    -0.213 NA
ATOM      8  C   UNL     1       7.916  -3.184  24.039  0.00  0.00    +0.216 A 
ATOM      9  N   UNL     1       7.689  -3.950  22.897  0.00  0.00    -0.311 N 
ATOM     10  H   UNL     1       7.434  -3.350  22.124  0.00  0.00    +0.149 HD
ATOM     11  N   UNL     1       8.190  -3.791  25.200  0.00  0.00    -0.223 NA
ATOM     12  C   UNL     1       8.577  -3.015  26.217  0.00  0.00    +0.116 A 
ATOM     13  C   UNL     1       8.692  -1.650  26.122  0.00  0.00    +0.050 A 
BRANCH   9  14
ATOM     14  C   UNL     1       7.237  -5.330  22.988  0.00  0.00    +0.073 C 
ATOM     15  C   UNL     1       6.866  -6.089  21.742  0.00  0.00    +0.024 C 
ATOM     16  C   UNL     1       5.803  -5.698  22.727  0.00  0.00    +0.024 C 
ENDBRANCH   9  14
ENDBRANCH   2   6
BRANCH   3  17
ATOM     17  C   UNL     1       6.431   1.245  26.310  0.00  0.00    +0.004 A 
ATOM     18  C   UNL     1       6.721   1.187  27.678  0.00  0.00    +0.031 A 
ATOM     19  C   UNL     1       5.697   1.253  28.630  0.00  0.00    +0.060 A 
ATOM     20 CL   UNL     1       6.154   1.328  30.295  0.00  0.00    -0.082 Cl
ATOM     21  C   UNL     1       4.360   1.297  28.220  0.00  0.00    +0.059 A 
ATOM     22 CL   UNL     1       3.050   1.452  29.336  0.00  0.00    -0.082 Cl
ATOM     23  C   UNL     1       4.055   1.237  26.860  0.00  0.00    +0.022 A 
ATOM     24  C   UNL     1       5.085   1.211  25.913  0.00  0.00    +0.011 A 
ENDBRANCH   3  17
BRANCH   5  25
ATOM     25  C   UNL     1       9.788   3.644  23.669  0.00  0.00    +0.058 C 
ATOM     26  C   UNL     1       9.390   4.967  24.335  0.00  0.00    +0.026 C 
ATOM     27  C   UNL     1      10.105   6.131  23.639  0.00  0.00    +0.085 C 
ATOM     28  N   UNL     1      11.564   5.994  23.566  0.00  0.00    -0.305 NA
ATOM     29  C   UNL     1      12.232   6.377  24.804  0.00  0.00    +0.104 C 
ATOM     30  C   UNL     1      11.988   4.681  23.064  0.00  0.00    +0.085 C 
ATOM     31  C   UNL     1      11.305   3.480  23.743  0.00  0.00    +0.026 C 
ENDBRANCH   5  25
BRANCH   1  32
ATOM     32  C   UNL     1      10.006   0.579  22.845  0.00  0.00    +0.123 C 
BRANCH  32  34
ATOM     33  C   UNL     1       8.334   1.383  21.127  0.00  0.00    +0.005 C 
ATOM     34  C   UNL     1       9.301   0.277  21.517  0.00  0.00    +0.018 C 
ENDBRANCH  32  34
ENDBRANCH   1  32
TORSDOF 6
ENDMDL
MODEL 2
REMARK VINA RESULT:      -7.1      0.699      1.217
REMARK  Name = 
REMARK  8 active torsions:
REMARK  status: ('A' for Active; 'I' for Inactive)
REMARK    1  A    between atoms: C_1  and  C_2
REMARK    2  A    between atoms: C_2  and  C_3
REMARK    3  A    between atoms: C_3  and  N_4
REMARK    4  A    between atoms: C_5  and  C_27
REMARK    5  A    between atoms: C_7  and  C_19
REMARK    6  A    between atoms: C_8  and  C_9
REMARK    7  A    between atoms: N_14  and  C_15
REMARK    8  A    between atoms: N_30  and  C_31
REMARK                            x       y       z     vdW  Elec       q    Type
REMARK                         _______ _______ _______ _____ _____    ______ ____
ROOT
ATOM      1  N   UNL     1       9.091   1.121  23.875  0.00  0.00    -0.326 N 
ATOM      2  C   UNL     1       8.286   0.386  24.766  0.00  0.00    +0.095 A 
ATOM      3  C   UNL     1       7.561   1.384  25.423  0.00  0.00    +0.099 A 
ATOM      4  N   UNL     1       7.983   2.638  25.027  0.00  0.00    -0.231 NA
ATOM      5  C   UNL     1       8.959   2.471  24.163  0.00  0.00    +0.114 A 
ENDROOT
BRANCH   2   6
ATOM      6  C   UNL     1       8.329  -1.082  24.990  0.00  0.00    +0.094 A 
ATOM      7  N   UNL     1       7.942  -1.832  23.934  0.00  0.00    -0.213 NA
ATOM      8  C   UNL     1       7.940  -3.174  24.068  0.00  0.00    +0.216 A 
ATOM      9  N   UNL     1       7.705  -3.922  22.916  0.00  0.00    -0.311 N 
ATOM     10  H   UNL     1       7.450  -3.311  22.153  0.00  0.00    +0.149 HD
ATOM     11  N   UNL     1       8.217  -3.798  25.219  0.00  0.00    -0.223 NA
ATOM     12  C   UNL     1       8.612  -3.038  26.245  0.00  0.00    +0.116 A 
ATOM     13  C   UNL     1       8.732  -1.672  26.168  0.00  0.00    +0.050 A 
BRANCH   9  14
ATOM     14  C   UNL     1       7.248  -5.302  22.990  0.00  0.00    +0.073 C 
ATOM     15  C   UNL     1       6.914  -6.058  21.732  0.00  0.00    +0.024 C 
ATOM     16  C   UNL     1       5.822  -5.666  22.684  0.00  0.00    +0.024 C 
ENDBRANCH   9  14
ENDBRANCH   2   6
BRANCH   3  17
ATOM     17  C   UNL     1       6.575   1.246  26.493  0.00  0.00    +0.004 A 
ATOM     18  C   UNL     1       5.386   0.528  26.329  0.00  0.00    +0.031 A 
ATOM     19  C   UNL     1       4.560   0.250  27.425  0.00  0.00    +0.060 A 
ATOM     20 CL   UNL     1       3.192  -0.772  27.159  0.00  0.00    -0.082 Cl
ATOM     21  C   UNL     1       4.878   0.758  28.689  0.00  0.00    +0.059 A 
ATOM     22 CL   UNL     1       3.946   0.396  30.097  0.00  0.00    -0.082 Cl
ATOM     23  C   UNL     1       6.000   1.573  28.841  0.00  0.00    +0.022 A 
ATOM     24  C   UNL     1       6.841   1.815  27.749  0.00  0.00    +0.011 A 
ENDBRANCH   3  17
BRANCH   5  25
ATOM     25  C   UNL     1       9.813   3.638  23.702  0.00  0.00    +0.058 C 
ATOM     26  C   UNL     1       9.419   4.971  24.350  0.00  0.00    +0.026 C 
ATOM     27  C   UNL     1      10.121   6.125  23.624  0.00  0.00    +0.085 C 
ATOM     28  N   UNL     1      11.579   5.991  23.533  0.00  0.00    -0.305 NA
ATOM     29  C   UNL     1      12.263   6.398  24.755  0.00  0.00    +0.104 C 
ATOM     30  C   UNL     1      12.001   4.671  23.048  0.00  0.00    +0.085 C 
ATOM     31  C   UNL     1      11.332   3.480  23.758  0.00  0.00    +0.026 C 
ENDBRANCH   5  25
BRANCH   1  32
ATOM     32  C   UNL     1       9.949   0.582  22.831  0.00  0.00    +0.123 C 
BRANCH  32  34
ATOM     33  C   UNL     1       8.282   1.497  21.164  0.00  0.00    +0.005 C 
ATOM     34  C   UNL     1       9.172   0.322  21.533  0.00  0.00    +0.018 C 
ENDBRANCH  32  34
ENDBRANCH   1  32
TORSDOF 6
ENDMDL
MODEL 3
REMARK VINA RESULT:      -7.0      1.570      7.318
REMARK  Name = 
REMARK  8 active torsions:
REMARK  status: ('A' for Active; 'I' for Inactive)
REMARK    1  A    between atoms: C_1  and  C_2
REMARK    2  A    between atoms: C_2  and  C_3
REMARK    3  A    between atoms: C_3  and  N_4
REMARK    4  A    between atoms: C_5  and  C_27
REMARK    5  A    between atoms: C_7  and  C_19
REMARK    6  A    between atoms: C_8  and  C_9
REMARK    7  A    between atoms: N_14  and  C_15
REMARK    8  A    between atoms: N_30  and  C_31
REMARK                            x       y       z     vdW  Elec       q    Type
REMARK                         _______ _______ _______ _____ _____    ______ ____
ROOT
ATOM      1  N   UNL     1       7.857  -0.253  23.215  0.00  0.00    -0.326 N 
ATOM      2  C   UNL     1       7.551   0.823  24.071  0.00  0.00    +0.095 A 
ATOM      3  C   UNL     1       7.017   0.183  25.192  0.00  0.00    +0.099 A 
ATOM      4  N   UNL     1       6.909  -1.177  24.977  0.00  0.00    -0.231 NA
ATOM      5  C   UNL     1       7.335  -1.418  23.758  0.00  0.00    +0.114 A 
ENDROOT
BRANCH   2   6
ATOM      6  C   UNL     1       7.680   2.268  23.753  0.00  0.00    +0.094 A 
ATOM      7  N   UNL     1       8.932   2.767  23.858  0.00  0.00    -0.213 NA
ATOM      8  C   UNL     1       9.124   4.076  23.600  0.00  0.00    +0.216 A 
ATOM      9  N   UNL     1      10.443   4.522  23.546  0.00  0.00    -0.311 N 
ATOM     10  H   UNL     1      11.069   3.783  23.834  0.00  0.00    +0.149 HD
ATOM     11  N   UNL     1       8.126   4.926  23.331  0.00  0.00    -0.223 NA
ATOM     12  C   UNL     1       6.898   4.409  23.218  0.00  0.00    +0.116 A 
ATOM     13  C   UNL     1       6.627   3.071  23.372  0.00  0.00    +0.050 A 
BRANCH   9  14
ATOM     14  C   UNL     1      10.774   5.929  23.716  0.00  0.00    +0.073 C 
ATOM     15  C   UNL     1      12.046   6.329  24.415  0.00  0.00    +0.024 C 
ATOM     16  C   UNL     1      10.719   6.583  25.068  0.00  0.00    +0.024 C 
ENDBRANCH   9  14
ENDBRANCH   2   6
BRANCH   3  17
ATOM     17  C   UNL     1       6.483   0.776  26.417  0.00  0.00    +0.004 A 
ATOM     18  C   UNL     1       7.193   0.774  27.623  0.00  0.00    +0.031 A 
ATOM     19  C   UNL     1       6.743   1.518  28.720  0.00  0.00    +0.060 A 
ATOM     20 CL   UNL     1       7.759   1.580  30.117  0.00  0.00    -0.082 Cl
ATOM     21  C   UNL     1       5.530   2.212  28.647  0.00  0.00    +0.059 A 
ATOM     22 CL   UNL     1       4.951   3.208  29.934  0.00  0.00    -0.082 Cl
ATOM     23  C   UNL     1       4.758   2.127  27.489  0.00  0.00    +0.022 A 
ATOM     24  C   UNL     1       5.232   1.412  26.383  0.00  0.00    +0.011 A 
ENDBRANCH   3  17
BRANCH   5  25
ATOM     25  C   UNL     1       7.137  -2.774  23.105  0.00  0.00    +0.058 C 
ATOM     26  C   UNL     1       7.359  -3.948  24.068  0.00  0.00    +0.026 C 
ATOM     27  C   UNL     1       7.430  -5.259  23.276  0.00  0.00    +0.085 C 
ATOM     28  N   UNL     1       6.278  -5.503  22.399  0.00  0.00    -0.305 NA
ATOM     29  C   UNL     1       5.128  -6.044  23.113  0.00  0.00    +0.104 C 
ATOM     30  C   UNL     1       5.945  -4.346  21.560  0.00  0.00    +0.085 C 
ATOM     31  C   UNL     1       5.850  -3.008  22.315  0.00  0.00    +0.026 C 
ENDBRANCH   5  25
BRANCH   1  32
ATOM     32  C   UNL     1       8.576  -0.182  21.952  0.00  0.00    +0.123 C 
BRANCH  32  34
ATOM     33  C   UNL     1      10.554  -1.595  22.650  0.00  0.00    +0.005 C 
ATOM     34  C   UNL     1      10.095  -0.232  22.159  0.00  0.00    +0.018 C 
ENDBRANCH  32  34
ENDBRANCH   1  32
TORSDOF 6
ENDMDL
MODEL 4
REMARK VINA RESULT:      -6.8      1.766      7.284
REMARK  Name = 
REMARK  8 active torsions:
REMARK  status: ('A' for Active; 'I' for Inactive)
REMARK    1  A    between atoms: C_1  and  C_2
REMARK    2  A    between atoms: C_2  and  C_3
REMARK    3  A    between atoms: C_3  and  N_4
REMARK    4  A    between atoms: C_5  and  C_27
REMARK    5  A    between atoms: C_7  and  C_19
REMARK    6  A    between atoms: C_8  and  C_9
REMARK    7  A    between atoms: N_14  and  C_15
REMARK    8  A    between atoms: N_30  and  C_31
REMARK                            x       y       z     vdW  Elec       q    Type
REMARK                         _______ _______ _______ _____ _____    ______ ____
ROOT
ATOM      1  N   UNL     1       8.535  -0.651  24.850  0.00  0.00    -0.326 N 
ATOM      2  C   UNL     1       8.120   0.649  25.201  0.00  0.00    +0.095 A 
ATOM      3  C   UNL     1       7.399   0.436  26.378  0.00  0.00    +0.099 A 
ATOM      4  N   UNL     1       7.297  -0.914  26.654  0.00  0.00    -0.231 NA
ATOM      5  C   UNL     1       7.907  -1.561  25.687  0.00  0.00    +0.114 A 
ENDROOT
BRANCH   2   6
ATOM      6  C   UNL     1       8.330   1.887  24.407  0.00  0.00    +0.094 A 
ATOM      7  N   UNL     1       9.611   2.313  24.343  0.00  0.00    -0.213 NA
ATOM      8  C   UNL     1       9.877   3.441  23.653  0.00  0.00    +0.216 A 
ATOM      9  N   UNL     1      11.220   3.760  23.459  0.00  0.00    -0.311 N 
ATOM     10  H   UNL     1      11.805   3.128  23.987  0.00  0.00    +0.149 HD
ATOM     11  N   UNL     1       8.928   4.206  23.102  0.00  0.00    -0.223 NA
ATOM     12  C   UNL     1       7.670   3.757  23.164  0.00  0.00    +0.116 A 
ATOM     13  C   UNL     1       7.322   2.573  23.766  0.00  0.00    +0.050 A 
BRANCH   9  14
ATOM     14  C   UNL     1      11.637   5.117  23.138  0.00  0.00    +0.073 C 
ATOM     15  C   UNL     1      13.095   5.436  22.945  0.00  0.00    +0.024 C 
ATOM     16  C   UNL     1      12.363   5.965  24.144  0.00  0.00    +0.024 C 
ENDBRANCH   9  14
ENDBRANCH   2   6
BRANCH   3  17
ATOM     17  C   UNL     1       6.689   1.409  27.206  0.00  0.00    +0.004 A 
ATOM     18  C   UNL     1       5.496   2.014  26.797  0.00  0.00    +0.031 A 
ATOM     19  C   UNL     1       4.743   2.788  27.688  0.00  0.00    +0.060 A 
ATOM     20 CL   UNL     1       3.209   3.370  27.146  0.00  0.00    -0.082 Cl
ATOM     21  C   UNL     1       5.220   3.032  28.981  0.00  0.00    +0.059 A 
ATOM     22 CL   UNL     1       4.312   3.915  30.155  0.00  0.00    -0.082 Cl
ATOM     23  C   UNL     1       6.465   2.530  29.361  0.00  0.00    +0.022 A 
ATOM     24  C   UNL     1       7.194   1.726  28.478  0.00  0.00    +0.011 A 
ENDBRANCH   3  17
BRANCH   5  25
ATOM     25  C   UNL     1       7.785  -3.068  25.546  0.00  0.00    +0.058 C 
ATOM     26  C   UNL     1       7.505  -3.780  26.875  0.00  0.00    +0.026 C 
ATOM     27  C   UNL     1       7.688  -5.292  26.699  0.00  0.00    +0.085 C 
ATOM     28  N   UNL     1       6.901  -5.878  25.608  0.00  0.00    -0.305 NA
ATOM     29  C   UNL     1       5.514  -6.130  25.981  0.00  0.00    +0.104 C 
ATOM     30  C   UNL     1       7.033  -5.136  24.348  0.00  0.00    +0.085 C 
ATOM     31  C   UNL     1       6.844  -3.614  24.474  0.00  0.00    +0.026 C 
ENDBRANCH   5  25
BRANCH   1  32
ATOM     32  C   UNL     1       9.448  -1.012  23.777  0.00  0.00    +0.123 C 
BRANCH  32  34
ATOM     33  C   UNL     1       9.330  -0.003  21.462  0.00  0.00    +0.005 C 
ATOM     34  C   UNL     1       8.746  -1.034  22.414  0.00  0.00    +0.018 C 
ENDBRANCH  32  34
ENDBRANCH   1  32
TORSDOF 6
ENDMDL
MODEL 5
REMARK VINA RESULT:      -6.6      2.026      7.322
REMARK  Name = 
REMARK  8 active torsions:
REMARK  status: ('A' for Active; 'I' for Inactive)
REMARK    1  A    between atoms: C_1  and  C_2
REMARK    2  A    between atoms: C_2  and  C_3
REMARK    3  A    between atoms: C_3  and  N_4
REMARK    4  A    between atoms: C_5  and  C_27
REMARK    5  A    between atoms: C_7  and  C_19
REMARK    6  A    between atoms: C_8  and  C_9
REMARK    7  A    between atoms: N_14  and  C_15
REMARK    8  A    between atoms: N_30  and  C_31
REMARK                            x       y       z     vdW  Elec       q    Type
REMARK                         _______ _______ _______ _____ _____    ______ ____
ROOT
ATOM      1  N   UNL     1       8.022  -2.220  24.898  0.00  0.00    -0.326 N 
ATOM      2  C   UNL     1       7.987  -0.922  25.442  0.00  0.00    +0.095 A 
ATOM      3  C   UNL     1       7.047  -1.043  26.469  0.00  0.00    +0.099 A 
ATOM      4  N   UNL     1       6.480  -2.302  26.470  0.00  0.00    -0.231 NA
ATOM      5  C   UNL     1       7.008  -2.973  25.471  0.00  0.00    +0.114 A 
ENDROOT
BRANCH   2   6
ATOM      6  C   UNL     1       8.707   0.271  24.927  0.00  0.00    +0.094 A 
ATOM      7  N   UNL     1       7.913   1.270  24.483  0.00  0.00    -0.213 NA
ATOM      8  C   UNL     1       8.497   2.379  23.986  0.00  0.00    +0.216 A 
ATOM      9  N   UNL     1       7.661   3.457  23.698  0.00  0.00    -0.311 N 
ATOM     10  H   UNL     1       6.694   3.183  23.807  0.00  0.00    +0.149 HD
ATOM     11  N   UNL     1       9.820   2.506  23.828  0.00  0.00    -0.223 NA
ATOM     12  C   UNL     1      10.586   1.513  24.289  0.00  0.00    +0.116 A 
ATOM     13  C   UNL     1      10.080   0.389  24.894  0.00  0.00    +0.050 A 
BRANCH   9  14
ATOM     14  C   UNL     1       8.070   4.508  22.779  0.00  0.00    +0.073 C 
ATOM     15  C   UNL     1       8.105   5.943  23.235  0.00  0.00    +0.024 C 
ATOM     16  C   UNL     1       7.077   5.497  22.236  0.00  0.00    +0.024 C 
ENDBRANCH   9  14
ENDBRANCH   2   6
BRANCH   3  17
ATOM     17  C   UNL     1       6.553  -0.015  27.383  0.00  0.00    +0.004 A 
ATOM     18  C   UNL     1       7.322   0.482  28.441  0.00  0.00    +0.031 A 
ATOM     19  C   UNL     1       6.898   1.598  29.172  0.00  0.00    +0.060 A 
ATOM     20 CL   UNL     1       7.981   2.236  30.359  0.00  0.00    -0.082 Cl
ATOM     21  C   UNL     1       5.656   2.182  28.903  0.00  0.00    +0.059 A 
ATOM     22 CL   UNL     1       5.102   3.602  29.715  0.00  0.00    -0.082 Cl
ATOM     23  C   UNL     1       4.830   1.623  27.929  0.00  0.00    +0.022 A 
ATOM     24  C   UNL     1       5.276   0.532  27.175  0.00  0.00    +0.011 A 
ENDBRANCH   3  17
BRANCH   5  25
ATOM     25  C   UNL     1       6.443  -4.312  25.033  0.00  0.00    +0.058 C 
ATOM     26  C   UNL     1       5.539  -4.962  26.088  0.00  0.00    +0.026 C 
ATOM     27  C   UNL     1       5.253  -6.417  25.696  0.00  0.00    +0.085 C 
ATOM     28  N   UNL     1       4.701  -6.588  24.347  0.00  0.00    -0.305 NA
ATOM     29  C   UNL     1       3.267  -6.332  24.285  0.00  0.00    +0.104 C 
ATOM     30  C   UNL     1       5.462  -5.859  23.324  0.00  0.00    +0.085 C 
ATOM     31  C   UNL     1       5.760  -4.389  23.668  0.00  0.00    +0.026 C 
ENDBRANCH   5  25
BRANCH   1  32
ATOM     32  C   UNL     1       8.942  -2.714  23.885  0.00  0.00    +0.123 C 
BRANCH  32  34
ATOM     33  C   UNL     1       9.479  -1.442  21.766  0.00  0.00    +0.005 C 
ATOM     34  C   UNL     1       8.480  -2.346  22.469  0.00  0.00    +0.018 C 
ENDBRANCH  32  34
ENDBRANCH   1  32
TORSDOF 6
ENDMDL
MODEL 6
REMARK VINA RESULT:      -6.5      2.360      7.717
REMARK  Name = 
REMARK  8 active torsions:
REMARK  status: ('A' for Active; 'I' for Inactive)
REMARK    1  A    between atoms: C_1  and  C_2
REMARK    2  A    between atoms: C_2  and  C_3
REMARK    3  A    between atoms: C_3  and  N_4
REMARK    4  A    between atoms: C_5  and  C_27
REMARK    5  A    between atoms: C_7  and  C_19
REMARK    6  A    between atoms: C_8  and  C_9
REMARK    7  A    between atoms: N_14  and  C_15
REMARK    8  A    between atoms: N_30  and  C_31
REMARK                            x       y       z     vdW  Elec       q    Type
REMARK                         _______ _______ _______ _____ _____    ______ ____
ROOT
ATOM      1  N   UNL     1       7.662  -2.640  24.519  0.00  0.00    -0.326 N 
ATOM      2  C   UNL     1       7.671  -1.233  24.454  0.00  0.00    +0.095 A 
ATOM      3  C   UNL     1       6.695  -0.875  25.389  0.00  0.00    +0.099 A 
ATOM      4  N   UNL     1       6.069  -1.996  25.899  0.00  0.00    -0.231 NA
ATOM      5  C   UNL     1       6.596  -3.045  25.309  0.00  0.00    +0.114 A 
ENDROOT
BRANCH   2   6
ATOM      6  C   UNL     1       8.462  -0.397  23.515  0.00  0.00    +0.094 A 
ATOM      7  N   UNL     1       8.990   0.724  24.055  0.00  0.00    -0.213 NA
ATOM      8  C   UNL     1       9.708   1.541  23.259  0.00  0.00    +0.216 A 
ATOM      9  N   UNL     1      10.383   2.592  23.878  0.00  0.00    -0.311 N 
ATOM     10  H   UNL     1      10.122   2.643  24.853  0.00  0.00    +0.149 HD
ATOM     11  N   UNL     1       9.852   1.345  21.943  0.00  0.00    -0.223 NA
ATOM     12  C   UNL     1       9.334   0.223  21.434  0.00  0.00    +0.116 A 
ATOM     13  C   UNL     1       8.669  -0.711  22.190  0.00  0.00    +0.050 A 
BRANCH   9  14
ATOM     14  C   UNL     1      10.810   3.764  23.128  0.00  0.00    +0.073 C 
ATOM     15  C   UNL     1      12.152   4.389  23.398  0.00  0.00    +0.024 C 
ATOM     16  C   UNL     1      10.896   5.116  23.779  0.00  0.00    +0.024 C 
ENDBRANCH   9  14
ENDBRANCH   2   6
BRANCH   3  17
ATOM     17  C   UNL     1       6.222   0.459  25.752  0.00  0.00    +0.004 A 
ATOM     18  C   UNL     1       6.624   1.104  26.926  0.00  0.00    +0.031 A 
ATOM     19  C   UNL     1       6.310   2.450  27.147  0.00  0.00    +0.060 A 
ATOM     20 CL   UNL     1       6.976   3.208  28.551  0.00  0.00    -0.082 Cl
ATOM     21  C   UNL     1       5.519   3.146  26.227  0.00  0.00    +0.059 A 
ATOM     22 CL   UNL     1       5.154   4.826  26.399  0.00  0.00    -0.082 Cl
ATOM     23  C   UNL     1       5.015   2.479  25.110  0.00  0.00    +0.022 A 
ATOM     24  C   UNL     1       5.364   1.145  24.876  0.00  0.00    +0.011 A 
ENDBRANCH   3  17
BRANCH   5  25
ATOM     25  C   UNL     1       5.982  -4.425  25.456  0.00  0.00    +0.058 C 
ATOM     26  C   UNL     1       5.614  -4.773  26.904  0.00  0.00    +0.026 C 
ATOM     27  C   UNL     1       5.282  -6.266  27.008  0.00  0.00    +0.085 C 
ATOM     28  N   UNL     1       4.248  -6.727  26.073  0.00  0.00    -0.305 NA
ATOM     29  C   UNL     1       2.897  -6.436  26.535  0.00  0.00    +0.104 C 
ATOM     30  C   UNL     1       4.494  -6.291  24.693  0.00  0.00    +0.085 C 
ATOM     31  C   UNL     1       4.818  -4.794  24.538  0.00  0.00    +0.026 C 
ENDBRANCH   5  25
BRANCH   1  32
ATOM     32  C   UNL     1       8.589  -3.547  23.858  0.00  0.00    +0.123 C 
BRANCH  32  34
ATOM     33  C   UNL     1       9.511  -5.337  25.387  0.00  0.00    +0.005 C 
ATOM     34  C   UNL     1       9.739  -3.960  24.785  0.00  0.00    +0.018 C 
ENDBRANCH  32  34
ENDBRANCH   1  32
TORSDOF 6
ENDMDL
MODEL 7
REMARK VINA RESULT:      -6.4      2.280      7.606
REMARK  Name = 
REMARK  8 active torsions:
REMARK  status: ('A' for Active; 'I' for Inactive)
REMARK    1  A    between atoms: C_1  and  C_2
REMARK    2  A    between atoms: C_2  and  C_3
REMARK    3  A    between atoms: C_3  and  N_4
REMARK    4  A    between atoms: C_5  and  C_27
REMARK    5  A    between atoms: C_7  and  C_19
REMARK    6  A    between atoms: C_8  and  C_9
REMARK    7  A    between atoms: N_14  and  C_15
REMARK    8  A    between atoms: N_30  and  C_31
REMARK                            x       y       z     vdW  Elec       q    Type
REMARK                         _______ _______ _______ _____ _____    ______ ____
ROOT
ATOM      1  N   UNL     1       6.795  -0.389  23.730  0.00  0.00    -0.326 N 
ATOM      2  C   UNL     1       6.452   0.913  24.144  0.00  0.00    +0.095 A 
ATOM      3  C   UNL     1       5.559   0.679  25.192  0.00  0.00    +0.099 A 
ATOM      4  N   UNL     1       5.302  -0.672  25.326  0.00  0.00    -0.231 NA
ATOM      5  C   UNL     1       5.981  -1.297  24.391  0.00  0.00    +0.114 A 
ENDROOT
BRANCH   2   6
ATOM      6  C   UNL     1       6.877   2.184  23.502  0.00  0.00    +0.094 A 
ATOM      7  N   UNL     1       8.074   2.658  23.915  0.00  0.00    -0.213 NA
ATOM      8  C   UNL     1       8.519   3.817  23.388  0.00  0.00    +0.216 A 
ATOM      9  N   UNL     1       9.825   4.191  23.699  0.00  0.00    -0.311 N 
ATOM     10  H   UNL     1      10.208   3.563  24.392  0.00  0.00    +0.149 HD
ATOM     11  N   UNL     1       7.799   4.566  22.545  0.00  0.00    -0.223 NA
ATOM     12  C   UNL     1       6.626   4.070  22.139  0.00  0.00    +0.116 A 
ATOM     13  C   UNL     1       6.138   2.854  22.552  0.00  0.00    +0.050 A 
BRANCH   9  14
ATOM     14  C   UNL     1      10.267   5.572  23.576  0.00  0.00    +0.073 C 
ATOM     15  C   UNL     1      11.680   5.950  23.933  0.00  0.00    +0.024 C 
ATOM     16  C   UNL     1      10.539   6.413  24.792  0.00  0.00    +0.024 C 
ENDBRANCH   9  14
ENDBRANCH   2   6
BRANCH   3  17
ATOM     17  C   UNL     1       4.830   1.649  26.008  0.00  0.00    +0.004 A 
ATOM     18  C   UNL     1       3.835   2.477  25.478  0.00  0.00    +0.031 A 
ATOM     19  C   UNL     1       3.025   3.251  26.319  0.00  0.00    +0.060 A 
ATOM     20 CL   UNL     1       1.723   4.126  25.593  0.00  0.00    -0.082 Cl
ATOM     21  C   UNL     1       3.257   3.263  27.698  0.00  0.00    +0.059 A 
ATOM     22 CL   UNL     1       2.253   4.136  28.800  0.00  0.00    -0.082 Cl
ATOM     23  C   UNL     1       4.321   2.531  28.224  0.00  0.00    +0.022 A 
ATOM     24  C   UNL     1       5.102   1.731  27.383  0.00  0.00    +0.011 A 
ENDBRANCH   3  17
BRANCH   5  25
ATOM     25  C   UNL     1       5.748  -2.767  24.095  0.00  0.00    +0.058 C 
ATOM     26  C   UNL     1       6.850  -3.679  24.650  0.00  0.00    +0.026 C 
ATOM     27  C   UNL     1       6.698  -5.088  24.066  0.00  0.00    +0.085 C 
ATOM     28  N   UNL     1       5.371  -5.686  24.255  0.00  0.00    -0.305 NA
ATOM     29  C   UNL     1       5.193  -6.261  25.582  0.00  0.00    +0.104 C 
ATOM     30  C   UNL     1       4.279  -4.784  23.866  0.00  0.00    +0.085 C 
ATOM     31  C   UNL     1       4.383  -3.361  24.441  0.00  0.00    +0.026 C 
ENDBRANCH   5  25
BRANCH   1  32
ATOM     32  C   UNL     1       7.813  -0.752  22.756  0.00  0.00    +0.123 C 
BRANCH  32  34
ATOM     33  C   UNL     1      10.217  -1.476  22.452  0.00  0.00    +0.005 C 
ATOM     34  C   UNL     1       9.204  -0.849  23.396  0.00  0.00    +0.018 C 
ENDBRANCH  32  34
ENDBRANCH   1  32
TORSDOF 6
ENDMDL
MODEL 8
REMARK VINA RESULT:      -6.3      3.197      8.323
REMARK  Name = 
REMARK  8 active torsions:
REMARK  status: ('A' for Active; 'I' for Inactive)
REMARK    1  A    between atoms: C_1  and  C_2
REMARK    2  A    between atoms: C_2  and  C_3
REMARK    3  A    between atoms: C_3  and  N_4
REMARK    4  A    between atoms: C_5  and  C_27
REMARK    5  A    between atoms: C_7  and  C_19
REMARK    6  A    between atoms: C_8  and  C_9
REMARK    7  A    between atoms: N_14  and  C_15
REMARK    8  A    between atoms: N_30  and  C_31
REMARK                            x       y       z     vdW  Elec       q    Type
REMARK                         _______ _______ _______ _____ _____    ______ ____
ROOT
ATOM      1  N   UNL     1       5.980  -1.371  25.201  0.00  0.00    -0.326 N 
ATOM      2  C   UNL     1       6.614  -0.130  25.398  0.00  0.00    +0.095 A 
ATOM      3  C   UNL     1       7.436  -0.021  24.273  0.00  0.00    +0.099 A 
ATOM      4  N   UNL     1       7.378  -1.171  23.510  0.00  0.00    -0.231 NA
ATOM      5  C   UNL     1       6.569  -2.007  24.118  0.00  0.00    +0.114 A 
ENDROOT
BRANCH   2   6
ATOM      6  C   UNL     1       6.487   0.748  26.590  0.00  0.00    +0.094 A 
ATOM      7  N   UNL     1       5.666   1.810  26.432  0.00  0.00    -0.213 NA
ATOM      8  C   UNL     1       5.513   2.660  27.467  0.00  0.00    +0.216 A 
ATOM      9  N   UNL     1       4.532   3.642  27.337  0.00  0.00    -0.311 N 
ATOM     10  H   UNL     1       4.154   3.630  26.400  0.00  0.00    +0.149 HD
ATOM     11  N   UNL     1       6.199   2.557  28.612  0.00  0.00    -0.223 NA
ATOM     12  C   UNL     1       6.993   1.491  28.751  0.00  0.00    +0.116 A 
ATOM     13  C   UNL     1       7.136   0.526  27.785  0.00  0.00    +0.050 A 
BRANCH   9  14
ATOM     14  C   UNL     1       4.560   4.852  28.147  0.00  0.00    +0.073 C 
ATOM     15  C   UNL     1       3.901   6.111  27.650  0.00  0.00    +0.024 C 
ATOM     16  C   UNL     1       5.396   6.035  27.748  0.00  0.00    +0.024 C 
ENDBRANCH   9  14
ENDBRANCH   2   6
BRANCH   3  17
ATOM     17  C   UNL     1       8.372   1.046  23.924  0.00  0.00    +0.004 A 
ATOM     18  C   UNL     1       7.947   2.327  23.557  0.00  0.00    +0.031 A 
ATOM     19  C   UNL     1       8.865   3.375  23.420  0.00  0.00    +0.060 A 
ATOM     20 CL   UNL     1       8.238   4.956  23.115  0.00  0.00    -0.082 Cl
ATOM     21  C   UNL     1      10.235   3.131  23.571  0.00  0.00    +0.059 A 
ATOM     22 CL   UNL     1      11.417   4.388  23.488  0.00  0.00    -0.082 Cl
ATOM     23  C   UNL     1      10.679   1.833  23.822  0.00  0.00    +0.022 A 
ATOM     24  C   UNL     1       9.753   0.798  23.995  0.00  0.00    +0.011 A 
ENDBRANCH   3  17
BRANCH   5  25
ATOM     25  C   UNL     1       6.457  -3.457  23.681  0.00  0.00    +0.058 C 
ATOM     26  C   UNL     1       5.167  -3.759  22.908  0.00  0.00    +0.026 C 
ATOM     27  C   UNL     1       4.995  -5.276  22.764  0.00  0.00    +0.085 C 
ATOM     28  N   UNL     1       6.144  -5.965  22.166  0.00  0.00    -0.305 NA
ATOM     29  C   UNL     1       6.168  -5.870  20.711  0.00  0.00    +0.104 C 
ATOM     30  C   UNL     1       7.420  -5.591  22.790  0.00  0.00    +0.085 C 
ATOM     31  C   UNL     1       7.643  -4.076  22.943  0.00  0.00    +0.026 C 
ENDBRANCH   5  25
BRANCH   1  32
ATOM     32  C   UNL     1       4.900  -1.932  25.998  0.00  0.00    +0.123 C 
BRANCH  32  34
ATOM     33  C   UNL     1       4.860  -4.253  27.003  0.00  0.00    +0.005 C 
ATOM     34  C   UNL     1       5.429  -2.848  27.110  0.00  0.00    +0.018 C 
ENDBRANCH  32  34
ENDBRANCH   1  32
TORSDOF 6
ENDMDL
MODEL 9
REMARK VINA RESULT:      -6.2      3.335      6.661
REMARK  Name = 
REMARK  8 active torsions:
REMARK  status: ('A' for Active; 'I' for Inactive)
REMARK    1  A    between atoms: C_1  and  C_2
REMARK    2  A    between atoms: C_2  and  C_3
REMARK    3  A    between atoms: C_3  and  N_4
REMARK    4  A    between atoms: C_5  and  C_27
REMARK    5  A    between atoms: C_7  and  C_19
REMARK    6  A    between atoms: C_8  and  C_9
REMARK    7  A    between atoms: N_14  and  C_15
REMARK    8  A    between atoms: N_30  and  C_31
REMARK                            x       y       z     vdW  Elec       q    Type
REMARK                         _______ _______ _______ _____ _____    ______ ____
ROOT
ATOM      1  N   UNL     1       5.953  -1.946  27.206  0.00  0.00    -0.326 N 
ATOM      2  C   UNL     1       7.002  -1.817  26.276  0.00  0.00    +0.095 A 
ATOM      3  C   UNL     1       7.191  -0.434  26.213  0.00  0.00    +0.099 A 
ATOM      4  N   UNL     1       6.245   0.226  26.972  0.00  0.00    -0.231 NA
ATOM      5  C   UNL     1       5.454  -0.684  27.495  0.00  0.00    +0.114 A 
ENDROOT
BRANCH   2   6
ATOM      6  C   UNL     1       7.632  -2.915  25.497  0.00  0.00    +0.094 A 
ATOM      7  N   UNL     1       7.076  -3.148  24.287  0.00  0.00    -0.213 NA
ATOM      8  C   UNL     1       7.585  -4.140  23.530  0.00  0.00    +0.216 A 
ATOM      9  N   UNL     1       7.110  -4.243  22.223  0.00  0.00    -0.311 N 
ATOM     10  H   UNL     1       6.343  -3.600  22.083  0.00  0.00    +0.149 HD
ATOM     11  N   UNL     1       8.552  -4.964  23.950  0.00  0.00    -0.223 NA
ATOM     12  C   UNL     1       9.097  -4.706  25.143  0.00  0.00    +0.116 A 
ATOM     13  C   UNL     1       8.704  -3.658  25.939  0.00  0.00    +0.050 A 
BRANCH   9  14
ATOM     14  C   UNL     1       7.229  -5.483  21.470  0.00  0.00    +0.073 C 
ATOM     15  C   UNL     1       6.090  -5.959  20.609  0.00  0.00    +0.024 C 
ATOM     16  C   UNL     1       6.450  -6.708  21.859  0.00  0.00    +0.024 C 
ENDBRANCH   9  14
ENDBRANCH   2   6
BRANCH   3  17
ATOM     17  C   UNL     1       8.129   0.325  25.388  0.00  0.00    +0.004 A 
ATOM     18  C   UNL     1       7.723   1.384  24.569  0.00  0.00    +0.031 A 
ATOM     19  C   UNL     1       8.666   2.211  23.948  0.00  0.00    +0.060 A 
ATOM     20 CL   UNL     1       8.077   3.585  23.080  0.00  0.00    -0.082 Cl
ATOM     21  C   UNL     1      10.031   1.937  24.076  0.00  0.00    +0.059 A 
ATOM     22 CL   UNL     1      11.251   2.956  23.397  0.00  0.00    -0.082 Cl
ATOM     23  C   UNL     1      10.444   0.815  24.794  0.00  0.00    +0.022 A 
ATOM     24  C   UNL     1       9.498   0.015  25.444  0.00  0.00    +0.011 A 
ENDBRANCH   3  17
BRANCH   5  25
ATOM     25  C   UNL     1       4.163  -0.300  28.195  0.00  0.00    +0.058 C 
ATOM     26  C   UNL     1       4.376   0.647  29.383  0.00  0.00    +0.026 C 
ATOM     27  C   UNL     1       3.082   0.747  30.200  0.00  0.00    +0.085 C 
ATOM     28  N   UNL     1       1.898   1.130  29.423  0.00  0.00    -0.305 NA
ATOM     29  C   UNL     1       1.815   2.567  29.189  0.00  0.00    +0.104 C 
ATOM     30  C   UNL     1       1.740   0.336  28.198  0.00  0.00    +0.085 C 
ATOM     31  C   UNL     1       3.010   0.218  27.337  0.00  0.00    +0.026 C 
ENDBRANCH   5  25
BRANCH   1  32
ATOM     32  C   UNL     1       5.437  -3.184  27.769  0.00  0.00    +0.123 C 
BRANCH  32  34
ATOM     33  C   UNL     1       2.982  -3.725  27.492  0.00  0.00    +0.005 C 
ATOM     34  C   UNL     1       4.366  -3.816  26.871  0.00  0.00    +0.018 C 
ENDBRANCH  32  34
ENDBRANCH   1  32
TORSDOF 6
ENDMDL
