MODEL 1
REMARK VINA RESULT:      -6.3      0.000      0.000
REMARK  Name = 
REMARK  15 active torsions:
REMARK  status: ('A' for Active; 'I' for Inactive)
REMARK    1  A    between atoms: O_1  and  C_2
REMARK    2  A    between atoms: C_2  and  C_4
REMARK    3  A    between atoms: C_4  and  C_5
REMARK    4  A    between atoms: C_9  and  O_10
REMARK    5  A    between atoms: O_10  and  C_11
REMARK    6  A    between atoms: C_11  and  C_12
REMARK    7  A    between atoms: C_12  and  C_13
REMARK    8  A    between atoms: C_13  and  N_14
REMARK    9  A    between atoms: N_14  and  C_15
REMARK   10  A    between atoms: N_14  and  C_30
REMARK   11  A    between atoms: C_15  and  C_16
REMARK   12  A    between atoms: C_16  and  C_18
REMARK   13  A    between atoms: C_16  and  C_24
REMARK   14  A    between atoms: C_30  and  C_31
REMARK   15  A    between atoms: C_35  and  C_38
REMARK                            x       y       z     vdW  Elec       q    Type
REMARK                         _______ _______ _______ _____ _____    ______ ____
ROOT
ATOM      1  N   UNL     1       6.604   2.141  26.799  0.00  0.00    -0.297 NA
ENDROOT
BRANCH   1   2
ATOM      2  C   UNL     1       5.514   2.088  27.801  0.00  0.00    +0.088 C 
BRANCH   2   3
ATOM      3  C   UNL     1       4.938   0.843  28.566  0.00  0.00    +0.056 C 
BRANCH   3   4
ATOM      4  C   UNL     1       4.106  -0.260  27.843  0.00  0.00    +0.230 C 
BRANCH   4   5
ATOM      5  O   UNL     1       4.782  -1.543  27.999  0.00  0.00    -0.492 OA
BRANCH   5   8
ATOM      6  C   UNL     1       6.425  -3.782  25.573  0.00  0.00    -0.033 A 
ATOM      7  C   UNL     1       6.153  -2.990  26.712  0.00  0.00    +0.049 A 
ATOM      8  C   UNL     1       4.892  -2.385  26.910  0.00  0.00    +0.121 A 
ATOM      9  C   UNL     1       3.877  -2.652  25.992  0.00  0.00    +0.045 A 
ATOM     10  C   UNL     1       4.122  -3.483  24.889  0.00  0.00    +0.004 A 
ATOM     11  C   UNL     1       5.384  -4.044  24.678  0.00  0.00    +0.004 A 
BRANCH   6  12
ATOM     12  C   UNL     1       7.832  -4.245  25.237  0.00  0.00    +0.155 C 
BRANCH  12  13
ATOM     13  C   UNL     1       8.394  -5.380  26.069  0.00  0.00    +0.309 C 
ATOM     14  O   UNL     1       7.763  -5.969  26.924  0.00  0.00    -0.251 OA
BRANCH  13  15
ATOM     15  O   UNL     1       9.650  -5.750  25.709  0.00  0.00    -0.480 OA
ATOM     16  H   UNL     1      10.107  -6.280  26.392  0.00  0.00    +0.295 HD
ENDBRANCH  13  15
ENDBRANCH  12  13
ENDBRANCH   6  12
ENDBRANCH   5   8
ENDBRANCH   4   5
ENDBRANCH   3   4
ENDBRANCH   2   3
ENDBRANCH   1   2
BRANCH   1  17
ATOM     17  C   UNL     1       7.489   0.979  26.645  0.00  0.00    +0.121 C 
BRANCH  17  18
ATOM     18  C   UNL     1       7.440   0.121  25.385  0.00  0.00    -0.015 A 
ATOM     19  C   UNL     1       8.626  -0.384  24.788  0.00  0.00    +0.057 A 
ATOM     20 CL   UNL     1      10.174  -0.127  25.542  0.00  0.00    -0.083 Cl
ATOM     21  C   UNL     1       8.599  -1.065  23.557  0.00  0.00    +0.073 A 
ATOM     22  C   UNL     1       7.380  -1.170  22.872  0.00  0.00    +0.014 A 
ATOM     23  C   UNL     1       6.206  -0.677  23.438  0.00  0.00    +0.001 A 
ATOM     24  C   UNL     1       6.228  -0.054  24.690  0.00  0.00    +0.006 A 
BRANCH  21  25
ATOM     25  C   UNL     1       9.843  -1.703  22.986  0.00  0.00    +0.419 C 
ATOM     26  F   UNL     1       9.644  -2.182  21.725  0.00  0.00    -0.166 F 
ATOM     27  F   UNL     1      10.309  -2.749  23.724  0.00  0.00    -0.166 F 
ATOM     28  F   UNL     1      10.893  -0.841  22.880  0.00  0.00    -0.166 F 
ENDBRANCH  21  25
ENDBRANCH  17  18
ENDBRANCH   1  17
BRANCH   1  29
ATOM     29  C   UNL     1       7.213   3.459  26.366  0.00  0.00    +0.093 C 
BRANCH  29  30
ATOM     30  C   UNL     1       7.317   3.986  24.838  0.00  0.00    +0.036 C 
BRANCH  30  31
ATOM     31  C   UNL     1       8.215   3.205  23.862  0.00  0.00    -0.043 A 
ATOM     32  C   UNL     1       9.597   3.052  23.999  0.00  0.00    +0.004 A 
ATOM     33  C   UNL     1      10.364   2.425  22.998  0.00  0.00    +0.000 A 
ATOM     34  C   UNL     1       9.758   1.947  21.843  0.00  0.00    +0.000 A 
ATOM     35  C   UNL     1       8.382   2.088  21.676  0.00  0.00    +0.000 A 
ATOM     36  C   UNL     1       7.628   2.716  22.670  0.00  0.00    +0.004 A 
ENDBRANCH  30  31
BRANCH  30  37
ATOM     37  C   UNL     1       7.506   5.548  24.728  0.00  0.00    -0.002 C 
ATOM     38  C   UNL     1       6.118   6.144  24.604  0.00  0.00    +0.004 C 
ATOM     39  C   UNL     1       5.466   5.870  23.262  0.00  0.00    +0.000 C 
ATOM     40  C   UNL     1       6.160   6.695  22.222  0.00  0.00    +0.000 C 
ATOM     41  C   UNL     1       7.661   6.445  22.244  0.00  0.00    +0.000 C 
ATOM     42  C   UNL     1       8.318   6.269  23.628  0.00  0.00    +0.004 C 
ENDBRANCH  30  37
ENDBRANCH  29  30
ENDBRANCH   1  29
TORSDOF 15
ENDMDL
MODEL 2
REMARK VINA RESULT:      -6.3      2.175      2.998
REMARK  Name = 
REMARK  15 active torsions:
REMARK  status: ('A' for Active; 'I' for Inactive)
REMARK    1  A    between atoms: O_1  and  C_2
REMARK    2  A    between atoms: C_2  and  C_4
REMARK    3  A    between atoms: C_4  and  C_5
REMARK    4  A    between atoms: C_9  and  O_10
REMARK    5  A    between atoms: O_10  and  C_11
REMARK    6  A    between atoms: C_11  and  C_12
REMARK    7  A    between atoms: C_12  and  C_13
REMARK    8  A    between atoms: C_13  and  N_14
REMARK    9  A    between atoms: N_14  and  C_15
REMARK   10  A    between atoms: N_14  and  C_30
REMARK   11  A    between atoms: C_15  and  C_16
REMARK   12  A    between atoms: C_16  and  C_18
REMARK   13  A    between atoms: C_16  and  C_24
REMARK   14  A    between atoms: C_30  and  C_31
REMARK   15  A    between atoms: C_35  and  C_38
REMARK                            x       y       z     vdW  Elec       q    Type
REMARK                         _______ _______ _______ _____ _____    ______ ____
ROOT
ATOM      1  N   UNL     1       5.181  -0.203  26.491  0.00  0.00    -0.297 NA
ENDROOT
BRANCH   1   2
ATOM      2  C   UNL     1       4.184  -0.967  27.277  0.00  0.00    +0.088 C 
BRANCH   2   3
ATOM      3  C   UNL     1       4.208  -2.482  27.691  0.00  0.00    +0.056 C 
BRANCH   3   4
ATOM      4  C   UNL     1       4.154  -3.629  26.637  0.00  0.00    +0.230 C 
BRANCH   4   5
ATOM      5  O   UNL     1       5.182  -4.614  26.954  0.00  0.00    -0.492 OA
BRANCH   5   8
ATOM      6  C   UNL     1       7.259  -5.208  23.965  0.00  0.00    -0.033 A 
ATOM      7  C   UNL     1       6.155  -5.014  24.828  0.00  0.00    +0.049 A 
ATOM      8  C   UNL     1       6.328  -4.666  26.185  0.00  0.00    +0.121 A 
ATOM      9  C   UNL     1       7.622  -4.432  26.650  0.00  0.00    +0.045 A 
ATOM     10  C   UNL     1       8.719  -4.568  25.787  0.00  0.00    +0.004 A 
ATOM     11  C   UNL     1       8.543  -4.953  24.456  0.00  0.00    +0.004 A 
BRANCH   6  12
ATOM     12  C   UNL     1       7.095  -5.801  22.577  0.00  0.00    +0.155 C 
BRANCH  12  13
ATOM     13  C   UNL     1       5.790  -5.515  21.862  0.00  0.00    +0.309 C 
ATOM     14  O   UNL     1       4.698  -5.822  22.298  0.00  0.00    -0.251 OA
BRANCH  13  15
ATOM     15  O   UNL     1       5.939  -4.794  20.721  0.00  0.00    -0.480 OA
ATOM     16  H   UNL     1       6.773  -4.987  20.249  0.00  0.00    +0.295 HD
ENDBRANCH  13  15
ENDBRANCH  12  13
ENDBRANCH   6  12
ENDBRANCH   5   8
ENDBRANCH   4   5
ENDBRANCH   3   4
ENDBRANCH   2   3
ENDBRANCH   1   2
BRANCH   1  17
ATOM     17  C   UNL     1       6.529  -0.759  26.313  0.00  0.00    +0.121 C 
BRANCH  17  18
ATOM     18  C   UNL     1       6.996  -1.251  24.947  0.00  0.00    -0.015 A 
ATOM     19  C   UNL     1       8.355  -1.141  24.548  0.00  0.00    +0.057 A 
ATOM     20 CL   UNL     1       9.556  -0.537  25.655  0.00  0.00    -0.083 Cl
ATOM     21  C   UNL     1       8.770  -1.471  23.245  0.00  0.00    +0.073 A 
ATOM     22  C   UNL     1       7.799  -1.838  22.301  0.00  0.00    +0.014 A 
ATOM     23  C   UNL     1       6.459  -1.946  22.671  0.00  0.00    +0.001 A 
ATOM     24  C   UNL     1       6.061  -1.675  23.984  0.00  0.00    +0.006 A 
BRANCH  21  25
ATOM     25  C   UNL     1      10.231  -1.467  22.861  0.00  0.00    +0.419 C 
ATOM     26  F   UNL     1      10.905  -2.529  23.388  0.00  0.00    -0.166 F 
ATOM     27  F   UNL     1      10.898  -0.350  23.263  0.00  0.00    -0.166 F 
ATOM     28  F   UNL     1      10.436  -1.545  21.516  0.00  0.00    -0.166 F 
ENDBRANCH  21  25
ENDBRANCH  17  18
ENDBRANCH   1  17
BRANCH   1  29
ATOM     29  C   UNL     1       5.101   1.306  26.371  0.00  0.00    +0.093 C 
BRANCH  29  30
ATOM     30  C   UNL     1       5.183   2.141  24.985  0.00  0.00    +0.036 C 
BRANCH  30  31
ATOM     31  C   UNL     1       6.504   2.107  24.197  0.00  0.00    -0.043 A 
ATOM     32  C   UNL     1       7.749   2.478  24.712  0.00  0.00    +0.004 A 
ATOM     33  C   UNL     1       8.891   2.534  23.889  0.00  0.00    +0.000 A 
ATOM     34  C   UNL     1       8.800   2.226  22.538  0.00  0.00    +0.000 A 
ATOM     35  C   UNL     1       7.572   1.856  21.995  0.00  0.00    +0.000 A 
ATOM     36  C   UNL     1       6.442   1.808  22.814  0.00  0.00    +0.004 A 
ENDBRANCH  30  31
BRANCH  30  37
ATOM     37  C   UNL     1       4.570   3.590  25.093  0.00  0.00    -0.002 C 
ATOM     38  C   UNL     1       3.149   3.499  24.574  0.00  0.00    +0.004 C 
ATOM     39  C   UNL     1       3.072   3.299  23.073  0.00  0.00    +0.000 C 
ATOM     40  C   UNL     1       3.475   4.578  22.405  0.00  0.00    +0.000 C 
ATOM     41  C   UNL     1       4.838   5.042  22.898  0.00  0.00    +0.000 C 
ATOM     42  C   UNL     1       5.139   4.848  24.399  0.00  0.00    +0.004 C 
ENDBRANCH  30  37
ENDBRANCH  29  30
ENDBRANCH   1  29
TORSDOF 15
ENDMDL
MODEL 3
REMARK VINA RESULT:      -6.2      2.989      4.443
REMARK  Name = 
REMARK  15 active torsions:
REMARK  status: ('A' for Active; 'I' for Inactive)
REMARK    1  A    between atoms: O_1  and  C_2
REMARK    2  A    between atoms: C_2  and  C_4
REMARK    3  A    between atoms: C_4  and  C_5
REMARK    4  A    between atoms: C_9  and  O_10
REMARK    5  A    between atoms: O_10  and  C_11
REMARK    6  A    between atoms: C_11  and  C_12
REMARK    7  A    between atoms: C_12  and  C_13
REMARK    8  A    between atoms: C_13  and  N_14
REMARK    9  A    between atoms: N_14  and  C_15
REMARK   10  A    between atoms: N_14  and  C_30
REMARK   11  A    between atoms: C_15  and  C_16
REMARK   12  A    between atoms: C_16  and  C_18
REMARK   13  A    between atoms: C_16  and  C_24
REMARK   14  A    between atoms: C_30  and  C_31
REMARK   15  A    between atoms: C_35  and  C_38
REMARK                            x       y       z     vdW  Elec       q    Type
REMARK                         _______ _______ _______ _____ _____    ______ ____
ROOT
ATOM      1  N   UNL     1       5.476  -0.750  26.635  0.00  0.00    -0.297 NA
ENDROOT
BRANCH   1   2
ATOM      2  C   UNL     1       4.898  -0.921  27.988  0.00  0.00    +0.088 C 
BRANCH   2   3
ATOM      3  C   UNL     1       3.595  -1.690  28.413  0.00  0.00    +0.056 C 
BRANCH   3   4
ATOM      4  C   UNL     1       3.558  -3.242  28.549  0.00  0.00    +0.230 C 
BRANCH   4   5
ATOM      5  O   UNL     1       2.822  -3.800  27.420  0.00  0.00    -0.492 OA
BRANCH   5   8
ATOM      6  C   UNL     1       3.440  -5.955  24.492  0.00  0.00    -0.033 A 
ATOM      7  C   UNL     1       3.016  -4.892  25.323  0.00  0.00    +0.049 A 
ATOM      8  C   UNL     1       3.389  -4.821  26.683  0.00  0.00    +0.121 A 
ATOM      9  C   UNL     1       4.263  -5.786  27.182  0.00  0.00    +0.045 A 
ATOM     10  C   UNL     1       4.734  -6.813  26.350  0.00  0.00    +0.004 A 
ATOM     11  C   UNL     1       4.327  -6.900  25.016  0.00  0.00    +0.004 A 
BRANCH   6  12
ATOM     12  C   UNL     1       2.864  -6.163  23.103  0.00  0.00    +0.155 C 
BRANCH  12  13
ATOM     13  C   UNL     1       1.724  -7.154  22.978  0.00  0.00    +0.309 C 
ATOM     14  O   UNL     1       0.770  -7.186  23.731  0.00  0.00    -0.251 OA
BRANCH  13  15
ATOM     15  O   UNL     1       1.813  -7.954  21.885  0.00  0.00    -0.480 OA
ATOM     16  H   UNL     1       1.285  -8.774  21.963  0.00  0.00    +0.295 HD
ENDBRANCH  13  15
ENDBRANCH  12  13
ENDBRANCH   6  12
ENDBRANCH   5   8
ENDBRANCH   4   5
ENDBRANCH   3   4
ENDBRANCH   2   3
ENDBRANCH   1   2
BRANCH   1  17
ATOM     17  C   UNL     1       5.231  -1.781  25.617  0.00  0.00    +0.121 C 
BRANCH  17  18
ATOM     18  C   UNL     1       6.226  -2.915  25.399  0.00  0.00    -0.015 A 
ATOM     19  C   UNL     1       6.280  -3.623  24.168  0.00  0.00    +0.057 A 
ATOM     20 CL   UNL     1       5.279  -3.143  22.827  0.00  0.00    -0.083 Cl
ATOM     21  C   UNL     1       7.103  -4.752  24.003  0.00  0.00    +0.073 A 
ATOM     22  C   UNL     1       7.820  -5.231  25.109  0.00  0.00    +0.014 A 
ATOM     23  C   UNL     1       7.776  -4.553  26.327  0.00  0.00    +0.001 A 
ATOM     24  C   UNL     1       7.004  -3.396  26.469  0.00  0.00    +0.006 A 
BRANCH  21  25
ATOM     25  C   UNL     1       7.248  -5.429  22.660  0.00  0.00    +0.419 C 
ATOM     26  F   UNL     1       6.113  -6.086  22.290  0.00  0.00    -0.166 F 
ATOM     27  F   UNL     1       8.254  -6.346  22.617  0.00  0.00    -0.166 F 
ATOM     28  F   UNL     1       7.508  -4.560  21.643  0.00  0.00    -0.166 F 
ENDBRANCH  21  25
ENDBRANCH  17  18
ENDBRANCH   1  17
BRANCH   1  29
ATOM     29  C   UNL     1       6.733   0.067  26.413  0.00  0.00    +0.093 C 
BRANCH  29  30
ATOM     30  C   UNL     1       7.238   0.640  24.984  0.00  0.00    +0.036 C 
BRANCH  30  31
ATOM     31  C   UNL     1       8.117  -0.271  24.108  0.00  0.00    -0.043 A 
ATOM     32  C   UNL     1       7.893  -0.532  22.754  0.00  0.00    +0.004 A 
ATOM     33  C   UNL     1       8.673  -1.472  22.054  0.00  0.00    +0.000 A 
ATOM     34  C   UNL     1       9.685  -2.169  22.702  0.00  0.00    +0.000 A 
ATOM     35  C   UNL     1       9.931  -1.932  24.053  0.00  0.00    +0.000 A 
ATOM     36  C   UNL     1       9.149  -1.003  24.744  0.00  0.00    +0.004 A 
ENDBRANCH  30  31
BRANCH  30  37
ATOM     37  C   UNL     1       7.775   2.120  25.060  0.00  0.00    -0.002 C 
ATOM     38  C   UNL     1       6.651   3.014  24.573  0.00  0.00    +0.004 C 
ATOM     39  C   UNL     1       6.405   2.906  23.080  0.00  0.00    +0.000 C 
ATOM     40  C   UNL     1       7.544   3.566  22.365  0.00  0.00    +0.000 C 
ATOM     41  C   UNL     1       8.876   2.986  22.815  0.00  0.00    +0.000 C 
ATOM     42  C   UNL     1       9.020   2.652  24.315  0.00  0.00    +0.004 C 
ENDBRANCH  30  37
ENDBRANCH  29  30
ENDBRANCH   1  29
TORSDOF 15
ENDMDL
MODEL 4
REMARK VINA RESULT:      -6.2      3.579      6.862
REMARK  Name = 
REMARK  15 active torsions:
REMARK  status: ('A' for Active; 'I' for Inactive)
REMARK    1  A    between atoms: O_1  and  C_2
REMARK    2  A    between atoms: C_2  and  C_4
REMARK    3  A    between atoms: C_4  and  C_5
REMARK    4  A    between atoms: C_9  and  O_10
REMARK    5  A    between atoms: O_10  and  C_11
REMARK    6  A    between atoms: C_11  and  C_12
REMARK    7  A    between atoms: C_12  and  C_13
REMARK    8  A    between atoms: C_13  and  N_14
REMARK    9  A    between atoms: N_14  and  C_15
REMARK   10  A    between atoms: N_14  and  C_30
REMARK   11  A    between atoms: C_15  and  C_16
REMARK   12  A    between atoms: C_16  and  C_18
REMARK   13  A    between atoms: C_16  and  C_24
REMARK   14  A    between atoms: C_30  and  C_31
REMARK   15  A    between atoms: C_35  and  C_38
REMARK                            x       y       z     vdW  Elec       q    Type
REMARK                         _______ _______ _______ _____ _____    ______ ____
ROOT
ATOM      1  N   UNL     1       6.837  -1.258  26.657  0.00  0.00    -0.297 NA
ENDROOT
BRANCH   1   2
ATOM      2  C   UNL     1       6.385  -0.083  27.437  0.00  0.00    +0.088 C 
BRANCH   2   3
ATOM      3  C   UNL     1       7.150   1.257  27.732  0.00  0.00    +0.056 C 
BRANCH   3   4
ATOM      4  C   UNL     1       6.722   2.612  27.091  0.00  0.00    +0.230 C 
BRANCH   4   5
ATOM      5  O   UNL     1       5.777   2.349  26.012  0.00  0.00    -0.492 OA
BRANCH   5   8
ATOM      6  C   UNL     1       7.005   4.070  22.991  0.00  0.00    -0.033 A 
ATOM      7  C   UNL     1       6.658   3.769  24.328  0.00  0.00    +0.049 A 
ATOM      8  C   UNL     1       6.191   2.490  24.702  0.00  0.00    +0.121 A 
ATOM      9  C   UNL     1       6.155   1.488  23.734  0.00  0.00    +0.045 A 
ATOM     10  C   UNL     1       6.550   1.762  22.416  0.00  0.00    +0.004 A 
ATOM     11  C   UNL     1       6.971   3.041  22.045  0.00  0.00    +0.004 A 
BRANCH   6  12
ATOM     12  C   UNL     1       7.286   5.492  22.537  0.00  0.00    +0.155 C 
BRANCH  12  13
ATOM     13  C   UNL     1       8.397   6.230  23.257  0.00  0.00    +0.309 C 
ATOM     14  O   UNL     1       8.211   7.003  24.176  0.00  0.00    -0.251 OA
BRANCH  13  15
ATOM     15  O   UNL     1       9.642   5.879  22.844  0.00  0.00    -0.480 OA
ATOM     16  H   UNL     1      10.355   6.307  23.359  0.00  0.00    +0.295 HD
ENDBRANCH  13  15
ENDBRANCH  12  13
ENDBRANCH   6  12
ENDBRANCH   5   8
ENDBRANCH   4   5
ENDBRANCH   3   4
ENDBRANCH   2   3
ENDBRANCH   1   2
BRANCH   1  17
ATOM     17  C   UNL     1       6.394  -2.599  27.063  0.00  0.00    +0.121 C 
BRANCH  17  18
ATOM     18  C   UNL     1       5.237  -3.289  26.349  0.00  0.00    -0.015 A 
ATOM     19  C   UNL     1       5.366  -4.608  25.837  0.00  0.00    +0.057 A 
ATOM     20 CL   UNL     1       6.823  -5.523  26.107  0.00  0.00    -0.083 Cl
ATOM     21  C   UNL     1       4.351  -5.202  25.065  0.00  0.00    +0.073 A 
ATOM     22  C   UNL     1       3.225  -4.436  24.730  0.00  0.00    +0.014 A 
ATOM     23  C   UNL     1       3.082  -3.138  25.217  0.00  0.00    +0.001 A 
ATOM     24  C   UNL     1       4.066  -2.574  26.035  0.00  0.00    +0.006 A 
BRANCH  21  25
ATOM     25  C   UNL     1       4.440  -6.644  24.625  0.00  0.00    +0.419 C 
ATOM     26  F   UNL     1       3.306  -7.061  23.994  0.00  0.00    -0.166 F 
ATOM     27  F   UNL     1       4.652  -7.516  25.650  0.00  0.00    -0.166 F 
ATOM     28  F   UNL     1       5.449  -6.876  23.739  0.00  0.00    -0.166 F 
ENDBRANCH  21  25
ENDBRANCH  17  18
ENDBRANCH   1  17
BRANCH   1  29
ATOM     29  C   UNL     1       8.135  -1.234  25.875  0.00  0.00    +0.093 C 
BRANCH  29  30
ATOM     30  C   UNL     1       8.258  -1.282  24.261  0.00  0.00    +0.036 C 
BRANCH  30  31
ATOM     31  C   UNL     1       7.523  -2.409  23.512  0.00  0.00    -0.043 A 
ATOM     32  C   UNL     1       8.051  -3.679  23.266  0.00  0.00    +0.004 A 
ATOM     33  C   UNL     1       7.362  -4.613  22.468  0.00  0.00    +0.000 A 
ATOM     34  C   UNL     1       6.137  -4.286  21.902  0.00  0.00    +0.000 A 
ATOM     35  C   UNL     1       5.586  -3.026  22.127  0.00  0.00    +0.000 A 
ATOM     36  C   UNL     1       6.277  -2.102  22.914  0.00  0.00    +0.004 A 
ENDBRANCH  30  31
BRANCH  30  37
ATOM     37  C   UNL     1       9.729  -1.059  23.740  0.00  0.00    -0.002 C 
ATOM     38  C   UNL     1      10.345   0.006  24.625  0.00  0.00    +0.004 C 
ATOM     39  C   UNL     1       9.774   1.390  24.382  0.00  0.00    +0.000 C 
ATOM     40  C   UNL     1      10.273   1.881  23.057  0.00  0.00    +0.000 C 
ATOM     41  C   UNL     1       9.960   0.881  21.955  0.00  0.00    +0.000 C 
ATOM     42  C   UNL     1      10.107  -0.614  22.308  0.00  0.00    +0.004 C 
ENDBRANCH  30  37
ENDBRANCH  29  30
ENDBRANCH   1  29
TORSDOF 15
ENDMDL
MODEL 5
REMARK VINA RESULT:      -6.2      3.880      7.839
REMARK  Name = 
REMARK  15 active torsions:
REMARK  status: ('A' for Active; 'I' for Inactive)
REMARK    1  A    between atoms: O_1  and  C_2
REMARK    2  A    between atoms: C_2  and  C_4
REMARK    3  A    between atoms: C_4  and  C_5
REMARK    4  A    between atoms: C_9  and  O_10
REMARK    5  A    between atoms: O_10  and  C_11
REMARK    6  A    between atoms: C_11  and  C_12
REMARK    7  A    between atoms: C_12  and  C_13
REMARK    8  A    between atoms: C_13  and  N_14
REMARK    9  A    between atoms: N_14  and  C_15
REMARK   10  A    between atoms: N_14  and  C_30
REMARK   11  A    between atoms: C_15  and  C_16
REMARK   12  A    between atoms: C_16  and  C_18
REMARK   13  A    between atoms: C_16  and  C_24
REMARK   14  A    between atoms: C_30  and  C_31
REMARK   15  A    between atoms: C_35  and  C_38
REMARK                            x       y       z     vdW  Elec       q    Type
REMARK                         _______ _______ _______ _____ _____    ______ ____
ROOT
ATOM      1  N   UNL     1       8.816  -3.173  24.311  0.00  0.00    -0.297 NA
ENDROOT
BRANCH   1   2
ATOM      2  C   UNL     1       8.704  -2.573  22.961  0.00  0.00    +0.088 C 
BRANCH   2   3
ATOM      3  C   UNL     1       9.642  -1.518  22.271  0.00  0.00    +0.056 C 
BRANCH   3   4
ATOM      4  C   UNL     1       9.078  -0.338  21.425  0.00  0.00    +0.230 C 
BRANCH   4   5
ATOM      5  O   UNL     1       9.988   0.798  21.529  0.00  0.00    -0.492 OA
BRANCH   5   8
ATOM      6  C   UNL     1       7.901   3.552  22.818  0.00  0.00    -0.033 A 
ATOM      7  C   UNL     1       8.338   2.388  22.144  0.00  0.00    +0.049 A 
ATOM      8  C   UNL     1       9.639   1.871  22.326  0.00  0.00    +0.121 A 
ATOM      9  C   UNL     1      10.473   2.488  23.257  0.00  0.00    +0.045 A 
ATOM     10  C   UNL     1      10.028   3.610  23.972  0.00  0.00    +0.004 A 
ATOM     11  C   UNL     1       8.754   4.140  23.756  0.00  0.00    +0.004 A 
BRANCH   6  12
ATOM     12  C   UNL     1       6.597   4.242  22.460  0.00  0.00    +0.155 C 
BRANCH  12  13
ATOM     13  C   UNL     1       6.649   5.746  22.274  0.00  0.00    +0.309 C 
ATOM     14  O   UNL     1       6.023   6.534  22.954  0.00  0.00    -0.251 OA
BRANCH  13  15
ATOM     15  O   UNL     1       7.538   6.148  21.329  0.00  0.00    -0.480 OA
ATOM     16  H   UNL     1       7.771   7.095  21.396  0.00  0.00    +0.295 HD
ENDBRANCH  13  15
ENDBRANCH  12  13
ENDBRANCH   6  12
ENDBRANCH   5   8
ENDBRANCH   4   5
ENDBRANCH   3   4
ENDBRANCH   2   3
ENDBRANCH   1   2
BRANCH   1  17
ATOM     17  C   UNL     1       8.581  -4.614  24.474  0.00  0.00    +0.121 C 
BRANCH  17  18
ATOM     18  C   UNL     1       7.164  -5.167  24.584  0.00  0.00    -0.015 A 
ATOM     19  C   UNL     1       6.610  -5.533  25.839  0.00  0.00    +0.057 A 
ATOM     20 CL   UNL     1       7.497  -5.258  27.312  0.00  0.00    -0.083 Cl
ATOM     21  C   UNL     1       5.356  -6.163  25.936  0.00  0.00    +0.073 A 
ATOM     22  C   UNL     1       4.683  -6.509  24.755  0.00  0.00    +0.014 A 
ATOM     23  C   UNL     1       5.213  -6.164  23.513  0.00  0.00    +0.001 A 
ATOM     24  C   UNL     1       6.431  -5.483  23.425  0.00  0.00    +0.006 A 
BRANCH  21  25
ATOM     25  C   UNL     1       4.718  -6.441  27.277  0.00  0.00    +0.419 C 
ATOM     26  F   UNL     1       5.335  -7.460  27.939  0.00  0.00    -0.166 F 
ATOM     27  F   UNL     1       3.401  -6.779  27.195  0.00  0.00    -0.166 F 
ATOM     28  F   UNL     1       4.765  -5.378  28.128  0.00  0.00    -0.166 F 
ENDBRANCH  21  25
ENDBRANCH  17  18
ENDBRANCH   1  17
BRANCH   1  29
ATOM     29  C   UNL     1       8.576  -2.351  25.561  0.00  0.00    +0.093 C 
BRANCH  29  30
ATOM     30  C   UNL     1       7.325  -1.349  25.797  0.00  0.00    +0.036 C 
BRANCH  30  31
ATOM     31  C   UNL     1       5.922  -1.965  25.952  0.00  0.00    -0.043 A 
ATOM     32  C   UNL     1       5.156  -2.475  24.901  0.00  0.00    +0.004 A 
ATOM     33  C   UNL     1       3.833  -2.911  25.108  0.00  0.00    +0.000 A 
ATOM     34  C   UNL     1       3.257  -2.836  26.370  0.00  0.00    +0.000 A 
ATOM     35  C   UNL     1       3.995  -2.329  27.437  0.00  0.00    +0.000 A 
ATOM     36  C   UNL     1       5.305  -1.892  27.224  0.00  0.00    +0.004 A 
ENDBRANCH  30  31
BRANCH  30  37
ATOM     37  C   UNL     1       7.341  -0.095  24.842  0.00  0.00    -0.002 C 
ATOM     38  C   UNL     1       8.000   1.030  25.615  0.00  0.00    +0.004 C 
ATOM     39  C   UNL     1       7.134   1.573  26.735  0.00  0.00    +0.000 C 
ATOM     40  C   UNL     1       6.005   2.348  26.127  0.00  0.00    +0.000 C 
ATOM     41  C   UNL     1       5.248   1.500  25.116  0.00  0.00    +0.000 C 
ATOM     42  C   UNL     1       6.089   0.566  24.221  0.00  0.00    +0.004 C 
ENDBRANCH  30  37
ENDBRANCH  29  30
ENDBRANCH   1  29
TORSDOF 15
ENDMDL
MODEL 6
REMARK VINA RESULT:      -6.2      2.899      5.713
REMARK  Name = 
REMARK  15 active torsions:
REMARK  status: ('A' for Active; 'I' for Inactive)
REMARK    1  A    between atoms: O_1  and  C_2
REMARK    2  A    between atoms: C_2  and  C_4
REMARK    3  A    between atoms: C_4  and  C_5
REMARK    4  A    between atoms: C_9  and  O_10
REMARK    5  A    between atoms: O_10  and  C_11
REMARK    6  A    between atoms: C_11  and  C_12
REMARK    7  A    between atoms: C_12  and  C_13
REMARK    8  A    between atoms: C_13  and  N_14
REMARK    9  A    between atoms: N_14  and  C_15
REMARK   10  A    between atoms: N_14  and  C_30
REMARK   11  A    between atoms: C_15  and  C_16
REMARK   12  A    between atoms: C_16  and  C_18
REMARK   13  A    between atoms: C_16  and  C_24
REMARK   14  A    between atoms: C_30  and  C_31
REMARK   15  A    between atoms: C_35  and  C_38
REMARK                            x       y       z     vdW  Elec       q    Type
REMARK                         _______ _______ _______ _____ _____    ______ ____
ROOT
ATOM      1  N   UNL     1       8.218  -2.199  26.126  0.00  0.00    -0.297 NA
ENDROOT
BRANCH   1   2
ATOM      2  C   UNL     1       6.783  -2.394  26.441  0.00  0.00    +0.088 C 
BRANCH   2   3
ATOM      3  C   UNL     1       5.540  -1.596  25.906  0.00  0.00    +0.056 C 
BRANCH   3   4
ATOM      4  C   UNL     1       4.086  -1.931  26.357  0.00  0.00    +0.230 C 
BRANCH   4   5
ATOM      5  O   UNL     1       3.409  -2.648  25.282  0.00  0.00    -0.492 OA
BRANCH   5   8
ATOM      6  C   UNL     1       4.452  -6.041  26.279  0.00  0.00    -0.033 A 
ATOM      7  C   UNL     1       4.149  -4.661  26.297  0.00  0.00    +0.049 A 
ATOM      8  C   UNL     1       3.553  -4.018  25.189  0.00  0.00    +0.121 A 
ATOM      9  C   UNL     1       3.188  -4.795  24.090  0.00  0.00    +0.045 A 
ATOM     10  C   UNL     1       3.434  -6.176  24.086  0.00  0.00    +0.004 A 
ATOM     11  C   UNL     1       4.061  -6.797  25.169  0.00  0.00    +0.004 A 
BRANCH   6  12
ATOM     12  C   UNL     1       5.293  -6.691  27.364  0.00  0.00    +0.155 C 
BRANCH  12  13
ATOM     13  C   UNL     1       6.270  -5.794  28.098  0.00  0.00    +0.309 C 
ATOM     14  O   UNL     1       5.944  -5.003  28.962  0.00  0.00    -0.251 OA
BRANCH  13  15
ATOM     15  O   UNL     1       7.569  -6.017  27.771  0.00  0.00    -0.480 OA
ATOM     16  H   UNL     1       8.057  -6.523  28.451  0.00  0.00    +0.295 HD
ENDBRANCH  13  15
ENDBRANCH  12  13
ENDBRANCH   6  12
ENDBRANCH   5   8
ENDBRANCH   4   5
ENDBRANCH   3   4
ENDBRANCH   2   3
ENDBRANCH   1   2
BRANCH   1  17
ATOM     17  C   UNL     1       8.935  -1.068  26.729  0.00  0.00    +0.121 C 
BRANCH  17  18
ATOM     18  C   UNL     1       9.411   0.101  25.873  0.00  0.00    -0.015 A 
ATOM     19  C   UNL     1       8.624   1.274  25.721  0.00  0.00    +0.057 A 
ATOM     20 CL   UNL     1       7.132   1.458  26.600  0.00  0.00    -0.083 Cl
ATOM     21  C   UNL     1       8.994   2.300  24.833  0.00  0.00    +0.073 A 
ATOM     22  C   UNL     1      10.123   2.115  24.022  0.00  0.00    +0.014 A 
ATOM     23  C   UNL     1      10.906   0.968  24.152  0.00  0.00    +0.001 A 
ATOM     24  C   UNL     1      10.567  -0.021  25.080  0.00  0.00    +0.006 A 
BRANCH  21  25
ATOM     25  C   UNL     1       8.220   3.595  24.762  0.00  0.00    +0.419 C 
ATOM     26  F   UNL     1       6.911   3.396  24.435  0.00  0.00    -0.166 F 
ATOM     27  F   UNL     1       8.714   4.478  23.850  0.00  0.00    -0.166 F 
ATOM     28  F   UNL     1       8.194   4.274  25.944  0.00  0.00    -0.166 F 
ENDBRANCH  21  25
ENDBRANCH  17  18
ENDBRANCH   1  17
BRANCH   1  29
ATOM     29  C   UNL     1       8.814  -2.702  24.827  0.00  0.00    +0.093 C 
BRANCH  29  30
ATOM     30  C   UNL     1       8.082  -2.660  23.382  0.00  0.00    +0.036 C 
BRANCH  30  31
ATOM     31  C   UNL     1       8.089  -1.331  22.605  0.00  0.00    -0.043 A 
ATOM     32  C   UNL     1       9.071  -0.948  21.688  0.00  0.00    +0.004 A 
ATOM     33  C   UNL     1       9.068   0.336  21.110  0.00  0.00    +0.000 A 
ATOM     34  C   UNL     1       8.084   1.256  21.446  0.00  0.00    +0.000 A 
ATOM     35  C   UNL     1       7.092   0.905  22.359  0.00  0.00    +0.000 A 
ATOM     36  C   UNL     1       7.104  -0.368  22.934  0.00  0.00    +0.004 A 
ENDBRANCH  30  31
BRANCH  30  37
ATOM     37  C   UNL     1       6.673  -3.366  23.377  0.00  0.00    -0.002 C 
ATOM     38  C   UNL     1       6.904  -4.799  23.813  0.00  0.00    +0.004 C 
ATOM     39  C   UNL     1       7.614  -5.636  22.765  0.00  0.00    +0.000 C 
ATOM     40  C   UNL     1       6.660  -5.894  21.640  0.00  0.00    +0.000 C 
ATOM     41  C   UNL     1       6.087  -4.590  21.105  0.00  0.00    +0.000 C 
ATOM     42  C   UNL     1       5.750  -3.499  22.143  0.00  0.00    +0.004 C 
ENDBRANCH  30  37
ENDBRANCH  29  30
ENDBRANCH   1  29
TORSDOF 15
ENDMDL
MODEL 7
REMARK VINA RESULT:      -6.1      2.090      2.758
REMARK  Name = 
REMARK  15 active torsions:
REMARK  status: ('A' for Active; 'I' for Inactive)
REMARK    1  A    between atoms: O_1  and  C_2
REMARK    2  A    between atoms: C_2  and  C_4
REMARK    3  A    between atoms: C_4  and  C_5
REMARK    4  A    between atoms: C_9  and  O_10
REMARK    5  A    between atoms: O_10  and  C_11
REMARK    6  A    between atoms: C_11  and  C_12
REMARK    7  A    between atoms: C_12  and  C_13
REMARK    8  A    between atoms: C_13  and  N_14
REMARK    9  A    between atoms: N_14  and  C_15
REMARK   10  A    between atoms: N_14  and  C_30
REMARK   11  A    between atoms: C_15  and  C_16
REMARK   12  A    between atoms: C_16  and  C_18
REMARK   13  A    between atoms: C_16  and  C_24
REMARK   14  A    between atoms: C_30  and  C_31
REMARK   15  A    between atoms: C_35  and  C_38
REMARK                            x       y       z     vdW  Elec       q    Type
REMARK                         _______ _______ _______ _____ _____    ______ ____
ROOT
ATOM      1  N   UNL     1       6.334   1.048  25.889  0.00  0.00    -0.297 NA
ENDROOT
BRANCH   1   2
ATOM      2  C   UNL     1       4.866   0.976  26.071  0.00  0.00    +0.088 C 
BRANCH   2   3
ATOM      3  C   UNL     1       4.049   0.285  27.221  0.00  0.00    +0.056 C 
BRANCH   3   4
ATOM      4  C   UNL     1       3.493  -1.165  27.086  0.00  0.00    +0.230 C 
BRANCH   4   5
ATOM      5  O   UNL     1       3.824  -1.678  25.761  0.00  0.00    -0.492 OA
BRANCH   5   8
ATOM      6  C   UNL     1       4.768  -4.840  24.116  0.00  0.00    -0.033 A 
ATOM      7  C   UNL     1       4.350  -3.510  24.348  0.00  0.00    +0.049 A 
ATOM      8  C   UNL     1       4.360  -2.945  25.643  0.00  0.00    +0.121 A 
ATOM      9  C   UNL     1       4.873  -3.705  26.693  0.00  0.00    +0.045 A 
ATOM     10  C   UNL     1       5.342  -5.007  26.463  0.00  0.00    +0.004 A 
ATOM     11  C   UNL     1       5.290  -5.573  25.186  0.00  0.00    +0.004 A 
BRANCH   6  12
ATOM     12  C   UNL     1       4.548  -5.527  22.780  0.00  0.00    +0.155 C 
BRANCH  12  13
ATOM     13  C   UNL     1       5.759  -5.672  21.880  0.00  0.00    +0.309 C 
ATOM     14  O   UNL     1       6.546  -6.596  21.949  0.00  0.00    -0.251 OA
BRANCH  13  15
ATOM     15  O   UNL     1       5.841  -4.719  20.917  0.00  0.00    -0.480 OA
ATOM     16  H   UNL     1       5.455  -3.862  21.188  0.00  0.00    +0.295 HD
ENDBRANCH  13  15
ENDBRANCH  12  13
ENDBRANCH   6  12
ENDBRANCH   5   8
ENDBRANCH   4   5
ENDBRANCH   3   4
ENDBRANCH   2   3
ENDBRANCH   1   2
BRANCH   1  17
ATOM     17  C   UNL     1       7.148  -0.144  26.166  0.00  0.00    +0.121 C 
BRANCH  17  18
ATOM     18  C   UNL     1       7.329  -1.229  25.110  0.00  0.00    -0.015 A 
ATOM     19  C   UNL     1       8.023  -2.434  25.401  0.00  0.00    +0.057 A 
ATOM     20 CL   UNL     1       8.598  -2.757  27.012  0.00  0.00    -0.083 Cl
ATOM     21  C   UNL     1       8.306  -3.381  24.399  0.00  0.00    +0.073 A 
ATOM     22  C   UNL     1       7.965  -3.082  23.073  0.00  0.00    +0.014 A 
ATOM     23  C   UNL     1       7.288  -1.902  22.766  0.00  0.00    +0.001 A 
ATOM     24  C   UNL     1       6.954  -0.992  23.774  0.00  0.00    +0.006 A 
BRANCH  21  25
ATOM     25  C   UNL     1       8.938  -4.712  24.733  0.00  0.00    +0.419 C 
ATOM     26  F   UNL     1       8.413  -5.261  25.865  0.00  0.00    -0.166 F 
ATOM     27  F   UNL     1      10.284  -4.645  24.928  0.00  0.00    -0.166 F 
ATOM     28  F   UNL     1       8.760  -5.652  23.763  0.00  0.00    -0.166 F 
ENDBRANCH  21  25
ENDBRANCH  17  18
ENDBRANCH   1  17
BRANCH   1  29
ATOM     29  C   UNL     1       7.080   2.362  26.009  0.00  0.00    +0.093 C 
BRANCH  29  30
ATOM     30  C   UNL     1       7.692   3.208  24.770  0.00  0.00    +0.036 C 
BRANCH  30  31
ATOM     31  C   UNL     1       8.435   2.438  23.663  0.00  0.00    -0.043 A 
ATOM     32  C   UNL     1       8.021   2.362  22.331  0.00  0.00    +0.004 A 
ATOM     33  C   UNL     1       8.691   1.537  21.406  0.00  0.00    +0.000 A 
ATOM     34  C   UNL     1       9.781   0.774  21.804  0.00  0.00    +0.000 A 
ATOM     35  C   UNL     1      10.215   0.827  23.127  0.00  0.00    +0.000 A 
ATOM     36  C   UNL     1       9.543   1.642  24.041  0.00  0.00    +0.004 A 
ENDBRANCH  30  31
BRANCH  30  37
ATOM     37  C   UNL     1       8.450   4.514  25.222  0.00  0.00    -0.002 C 
ATOM     38  C   UNL     1       7.390   5.575  25.445  0.00  0.00    +0.004 C 
ATOM     39  C   UNL     1       6.763   6.074  24.157  0.00  0.00    +0.000 C 
ATOM     40  C   UNL     1       7.773   6.913  23.434  0.00  0.00    +0.000 C 
ATOM     41  C   UNL     1       9.071   6.145  23.233  0.00  0.00    +0.000 C 
ATOM     42  C   UNL     1       9.535   5.243  24.395  0.00  0.00    +0.004 C 
ENDBRANCH  30  37
ENDBRANCH  29  30
ENDBRANCH   1  29
TORSDOF 15
ENDMDL
MODEL 8
REMARK VINA RESULT:      -6.1      3.069      7.512
REMARK  Name = 
REMARK  15 active torsions:
REMARK  status: ('A' for Active; 'I' for Inactive)
REMARK    1  A    between atoms: O_1  and  C_2
REMARK    2  A    between atoms: C_2  and  C_4
REMARK    3  A    between atoms: C_4  and  C_5
REMARK    4  A    between atoms: C_9  and  O_10
REMARK    5  A    between atoms: O_10  and  C_11
REMARK    6  A    between atoms: C_11  and  C_12
REMARK    7  A    between atoms: C_12  and  C_13
REMARK    8  A    between atoms: C_13  and  N_14
REMARK    9  A    between atoms: N_14  and  C_15
REMARK   10  A    between atoms: N_14  and  C_30
REMARK   11  A    between atoms: C_15  and  C_16
REMARK   12  A    between atoms: C_16  and  C_18
REMARK   13  A    between atoms: C_16  and  C_24
REMARK   14  A    between atoms: C_30  and  C_31
REMARK   15  A    between atoms: C_35  and  C_38
REMARK                            x       y       z     vdW  Elec       q    Type
REMARK                         _______ _______ _______ _____ _____    ______ ____
ROOT
ATOM      1  N   UNL     1       5.081  -0.343  26.380  0.00  0.00    -0.297 NA
ENDROOT
BRANCH   1   2
ATOM      2  C   UNL     1       4.666   0.807  27.218  0.00  0.00    +0.088 C 
BRANCH   2   3
ATOM      3  C   UNL     1       5.008   2.330  27.039  0.00  0.00    +0.056 C 
BRANCH   3   4
ATOM      4  C   UNL     1       6.467   2.869  27.150  0.00  0.00    +0.230 C 
BRANCH   4   5
ATOM      5  O   UNL     1       6.695   3.842  26.088  0.00  0.00    -0.492 OA
BRANCH   5   8
ATOM      6  C   UNL     1       9.280   2.906  23.629  0.00  0.00    -0.033 A 
ATOM      7  C   UNL     1       8.615   3.233  24.833  0.00  0.00    +0.049 A 
ATOM      8  C   UNL     1       7.215   3.414  24.882  0.00  0.00    +0.121 A 
ATOM      9  C   UNL     1       6.476   3.182  23.722  0.00  0.00    +0.045 A 
ATOM     10  C   UNL     1       7.122   2.803  22.536  0.00  0.00    +0.004 A 
ATOM     11  C   UNL     1       8.511   2.666  22.486  0.00  0.00    +0.004 A 
BRANCH   6  12
ATOM     12  C   UNL     1      10.794   2.934  23.517  0.00  0.00    +0.155 C 
BRANCH  12  13
ATOM     13  C   UNL     1      11.441   4.295  23.358  0.00  0.00    +0.309 C 
ATOM     14  O   UNL     1      12.642   4.480  23.381  0.00  0.00    -0.251 OA
BRANCH  13  15
ATOM     15  O   UNL     1      10.558   5.292  23.092  0.00  0.00    -0.480 OA
ATOM     16  H   UNL     1       9.885   5.044  22.428  0.00  0.00    +0.295 HD
ENDBRANCH  13  15
ENDBRANCH  12  13
ENDBRANCH   6  12
ENDBRANCH   5   8
ENDBRANCH   4   5
ENDBRANCH   3   4
ENDBRANCH   2   3
ENDBRANCH   1   2
BRANCH   1  17
ATOM     17  C   UNL     1       5.726  -0.087  25.085  0.00  0.00    +0.121 C 
BRANCH  17  18
ATOM     18  C   UNL     1       7.236  -0.229  24.923  0.00  0.00    -0.015 A 
ATOM     19  C   UNL     1       7.809  -0.669  23.701  0.00  0.00    +0.057 A 
ATOM     20 CL   UNL     1       6.806  -0.958  22.307  0.00  0.00    -0.083 Cl
ATOM     21  C   UNL     1       9.187  -0.926  23.583  0.00  0.00    +0.073 A 
ATOM     22  C   UNL     1       9.992  -0.823  24.727  0.00  0.00    +0.014 A 
ATOM     23  C   UNL     1       9.447  -0.398  25.938  0.00  0.00    +0.001 A 
ATOM     24  C   UNL     1       8.088  -0.085  26.034  0.00  0.00    +0.006 A 
BRANCH  21  25
ATOM     25  C   UNL     1       9.810  -1.278  22.253  0.00  0.00    +0.419 C 
ATOM     26  F   UNL     1      10.036  -0.176  21.483  0.00  0.00    -0.166 F 
ATOM     27  F   UNL     1       9.052  -2.123  21.501  0.00  0.00    -0.166 F 
ATOM     28  F   UNL     1      11.023  -1.888  22.369  0.00  0.00    -0.166 F 
ENDBRANCH  21  25
ENDBRANCH  17  18
ENDBRANCH   1  17
BRANCH   1  29
ATOM     29  C   UNL     1       4.385  -1.685  26.484  0.00  0.00    +0.093 C 
BRANCH  29  30
ATOM     30  C   UNL     1       5.116  -3.098  26.786  0.00  0.00    +0.036 C 
BRANCH  30  31
ATOM     31  C   UNL     1       6.301  -3.507  25.892  0.00  0.00    -0.043 A 
ATOM     32  C   UNL     1       6.207  -3.802  24.530  0.00  0.00    +0.004 A 
ATOM     33  C   UNL     1       7.317  -4.285  23.810  0.00  0.00    +0.000 A 
ATOM     34  C   UNL     1       8.536  -4.484  24.447  0.00  0.00    +0.000 A 
ATOM     35  C   UNL     1       8.660  -4.201  25.805  0.00  0.00    +0.000 A 
ATOM     36  C   UNL     1       7.553  -3.728  26.515  0.00  0.00    +0.004 A 
ENDBRANCH  30  31
BRANCH  30  37
ATOM     37  C   UNL     1       4.105  -4.281  27.041  0.00  0.00    -0.002 C 
ATOM     38  C   UNL     1       4.072  -4.506  28.539  0.00  0.00    +0.004 C 
ATOM     39  C   UNL     1       5.343  -5.135  29.079  0.00  0.00    +0.000 C 
ATOM     40  C   UNL     1       5.388  -6.565  28.636  0.00  0.00    +0.000 C 
ATOM     41  C   UNL     1       5.238  -6.671  27.126  0.00  0.00    +0.000 C 
ATOM     42  C   UNL     1       4.239  -5.705  26.455  0.00  0.00    +0.004 C 
ENDBRANCH  30  37
ENDBRANCH  29  30
ENDBRANCH   1  29
TORSDOF 15
ENDMDL
MODEL 9
REMARK VINA RESULT:      -6.0      3.870      7.674
REMARK  Name = 
REMARK  15 active torsions:
REMARK  status: ('A' for Active; 'I' for Inactive)
REMARK    1  A    between atoms: O_1  and  C_2
REMARK    2  A    between atoms: C_2  and  C_4
REMARK    3  A    between atoms: C_4  and  C_5
REMARK    4  A    between atoms: C_9  and  O_10
REMARK    5  A    between atoms: O_10  and  C_11
REMARK    6  A    between atoms: C_11  and  C_12
REMARK    7  A    between atoms: C_12  and  C_13
REMARK    8  A    between atoms: C_13  and  N_14
REMARK    9  A    between atoms: N_14  and  C_15
REMARK   10  A    between atoms: N_14  and  C_30
REMARK   11  A    between atoms: C_15  and  C_16
REMARK   12  A    between atoms: C_16  and  C_18
REMARK   13  A    between atoms: C_16  and  C_24
REMARK   14  A    between atoms: C_30  and  C_31
REMARK   15  A    between atoms: C_35  and  C_38
REMARK                            x       y       z     vdW  Elec       q    Type
REMARK                         _______ _______ _______ _____ _____    ______ ____
ROOT
ATOM      1  N   UNL     1       9.063  -3.108  24.849  0.00  0.00    -0.297 NA
ENDROOT
BRANCH   1   2
ATOM      2  C   UNL     1       8.953  -2.633  23.450  0.00  0.00    +0.088 C 
BRANCH   2   3
ATOM      3  C   UNL     1       9.909  -1.670  22.658  0.00  0.00    +0.056 C 
BRANCH   3   4
ATOM      4  C   UNL     1       9.384  -0.709  21.550  0.00  0.00    +0.230 C 
BRANCH   4   5
ATOM      5  O   UNL     1       9.967   0.613  21.751  0.00  0.00    -0.492 OA
BRANCH   5   8
ATOM      6  C   UNL     1       8.844   3.745  23.339  0.00  0.00    -0.033 A 
ATOM      7  C   UNL     1       9.639   2.660  22.904  0.00  0.00    +0.049 A 
ATOM      8  C   UNL     1       9.137   1.684  22.014  0.00  0.00    +0.121 A 
ATOM      9  C   UNL     1       7.853   1.855  21.500  0.00  0.00    +0.045 A 
ATOM     10  C   UNL     1       7.077   2.959  21.883  0.00  0.00    +0.004 A 
ATOM     11  C   UNL     1       7.566   3.898  22.795  0.00  0.00    +0.004 A 
BRANCH   6  12
ATOM     12  C   UNL     1       9.291   4.665  24.462  0.00  0.00    +0.155 C 
BRANCH  12  13
ATOM     13  C   UNL     1       9.818   6.028  24.059  0.00  0.00    +0.309 C 
ATOM     14  O   UNL     1       9.561   7.056  24.654  0.00  0.00    -0.251 OA
BRANCH  13  15
ATOM     15  O   UNL     1      10.687   5.991  23.016  0.00  0.00    -0.480 OA
ATOM     16  H   UNL     1      10.882   6.874  22.645  0.00  0.00    +0.295 HD
ENDBRANCH  13  15
ENDBRANCH  12  13
ENDBRANCH   6  12
ENDBRANCH   5   8
ENDBRANCH   4   5
ENDBRANCH   3   4
ENDBRANCH   2   3
ENDBRANCH   1   2
BRANCH   1  17
ATOM     17  C   UNL     1       8.999  -4.551  25.120  0.00  0.00    +0.121 C 
BRANCH  17  18
ATOM     18  C   UNL     1       7.769  -5.168  25.777  0.00  0.00    -0.015 A 
ATOM     19  C   UNL     1       6.647  -5.575  25.007  0.00  0.00    +0.057 A 
ATOM     20 CL   UNL     1       6.685  -5.481  23.269  0.00  0.00    -0.083 Cl
ATOM     21  C   UNL     1       5.460  -6.024  25.615  0.00  0.00    +0.073 A 
ATOM     22  C   UNL     1       5.363  -5.986  27.013  0.00  0.00    +0.014 A 
ATOM     23  C   UNL     1       6.451  -5.585  27.787  0.00  0.00    +0.001 A 
ATOM     24  C   UNL     1       7.650  -5.197  27.179  0.00  0.00    +0.006 A 
BRANCH  21  25
ATOM     25  C   UNL     1       4.314  -6.568  24.794  0.00  0.00    +0.419 C 
ATOM     26  F   UNL     1       3.730  -5.606  24.025  0.00  0.00    -0.166 F 
ATOM     27  F   UNL     1       3.319  -7.118  25.543  0.00  0.00    -0.166 F 
ATOM     28  F   UNL     1       4.692  -7.545  23.922  0.00  0.00    -0.166 F 
ENDBRANCH  21  25
ENDBRANCH  17  18
ENDBRANCH   1  17
BRANCH   1  29
ATOM     29  C   UNL     1       8.654  -2.229  26.014  0.00  0.00    +0.093 C 
BRANCH  29  30
ATOM     30  C   UNL     1       7.350  -1.269  26.050  0.00  0.00    +0.036 C 
BRANCH  30  31
ATOM     31  C   UNL     1       5.965  -1.932  26.163  0.00  0.00    -0.043 A 
ATOM     32  C   UNL     1       5.212  -2.393  25.080  0.00  0.00    +0.004 A 
ATOM     33  C   UNL     1       3.902  -2.877  25.256  0.00  0.00    +0.000 A 
ATOM     34  C   UNL     1       3.325  -2.901  26.520  0.00  0.00    +0.000 A 
ATOM     35  C   UNL     1       4.050  -2.445  27.619  0.00  0.00    +0.000 A 
ATOM     36  C   UNL     1       5.347  -1.960  27.436  0.00  0.00    +0.004 A 
ENDBRANCH  30  31
BRANCH  30  37
ATOM     37  C   UNL     1       7.393  -0.118  24.973  0.00  0.00    -0.002 C 
ATOM     38  C   UNL     1       8.050   1.074  25.639  0.00  0.00    +0.004 C 
ATOM     39  C   UNL     1       7.173   1.735  26.686  0.00  0.00    +0.000 C 
ATOM     40  C   UNL     1       6.061   2.453  25.984  0.00  0.00    +0.000 C 
ATOM     41  C   UNL     1       5.311   1.513  25.053  0.00  0.00    +0.000 C 
ATOM     42  C   UNL     1       6.156   0.487  24.270  0.00  0.00    +0.004 C 
ENDBRANCH  30  37
ENDBRANCH  29  30
ENDBRANCH   1  29
TORSDOF 15
ENDMDL
