MODEL 1
REMARK VINA RESULT:      -4.8      0.000      0.000
REMARK  Name = 
REMARK  45 active torsions:
REMARK  status: ('A' for Active; 'I' for Inactive)
REMARK    1  A    between atoms: C_1  and  C_2
REMARK    2  A    between atoms: C_2  and  C_3
REMARK    3  A    between atoms: C_3  and  C_4
REMARK    4  A    between atoms: C_4  and  C_5
REMARK    5  A    between atoms: C_5  and  C_6
REMARK    6  A    between atoms: C_6  and  C_7
REMARK    7  A    between atoms: C_7  and  C_8
REMARK    8  A    between atoms: C_8  and  C_9
REMARK    9  A    between atoms: C_9  and  C_10
REMARK   10  A    between atoms: C_10  and  C_11
REMARK   11  A    between atoms: C_11  and  C_12
REMARK   12  A    between atoms: C_12  and  C_13
REMARK   13  A    between atoms: C_13  and  C_14
REMARK   14  A    between atoms: C_14  and  C_15
REMARK   15  A    between atoms: C_15  and  C_16
REMARK   16  A    between atoms: C_16  and  O_18
REMARK   17  A    between atoms: O_18  and  C_19
REMARK   18  A    between atoms: C_19  and  C_20
REMARK   19  A    between atoms: C_20  and  C_22
REMARK   20  A    between atoms: C_20  and  O_34
REMARK   21  A    between atoms: C_22  and  O_23
REMARK   22  A    between atoms: O_23  and  P_24
REMARK   23  A    between atoms: P_24  and  O_27
REMARK   24  A    between atoms: O_27  and  C_28
REMARK   25  A    between atoms: C_28  and  C_29
REMARK   26  A    between atoms: C_29  and  N_30
REMARK   27  A    between atoms: N_30  and  C_31
REMARK   28  A    between atoms: N_30  and  C_32
REMARK   29  A    between atoms: N_30  and  C_33
REMARK   30  A    between atoms: O_34  and  C_35
REMARK   31  A    between atoms: C_35  and  C_37
REMARK   32  A    between atoms: C_37  and  C_38
REMARK   33  A    between atoms: C_38  and  C_39
REMARK   34  A    between atoms: C_39  and  C_40
REMARK   35  A    between atoms: C_40  and  C_41
REMARK   36  A    between atoms: C_41  and  C_42
REMARK   37  A    between atoms: C_42  and  C_43
REMARK   38  A    between atoms: C_43  and  C_44
REMARK   39  A    between atoms: C_45  and  C_46
REMARK   40  A    between atoms: C_46  and  C_47
REMARK   41  A    between atoms: C_48  and  C_49
REMARK   42  A    between atoms: C_49  and  C_50
REMARK   43  A    between atoms: C_50  and  C_51
REMARK   44  A    between atoms: C_51  and  C_52
REMARK   45  A    between atoms: C_52  and  C_53
REMARK                            x       y       z     vdW  Elec       q    Type
REMARK                         _______ _______ _______ _____ _____    ______ ____
ROOT
ATOM      1  C   UNL     1       6.453  -4.814  27.345  0.00  0.00    +0.240 C 
ENDROOT
BRANCH   1   2
ATOM      2  C   UNL     1       5.247  -5.449  26.665  0.00  0.00    +0.216 C 
BRANCH   2   3
ATOM      3  O   UNL     1       4.399  -4.434  26.143  0.00  0.00    -0.324 OA
BRANCH   3   4
ATOM      4  P   UNL     1       2.913  -4.953  25.754  0.00  0.00    +0.213 P 
ATOM      5  O   UNL     1       2.149  -3.858  25.069  0.00  0.00    -0.517 OA
ATOM      6  O   UNL     1       2.373  -5.734  26.923  0.00  0.00    -0.437 OA
BRANCH   4   7
ATOM      7  O   UNL     1       3.363  -6.036  24.638  0.00  0.00    -0.322 OA
BRANCH   7   8
ATOM      8  C   UNL     1       3.754  -5.514  23.392  0.00  0.00    +0.218 C 
BRANCH   8   9
ATOM      9  C   UNL     1       5.072  -6.158  22.970  0.00  0.00    +0.161 C 
BRANCH   9  10
ATOM     10  N   UNL     1       6.077  -5.249  22.202  0.00  0.00    +0.239 N 
ATOM     11  C   UNL     1       6.171  -5.643  20.731  0.00  0.00    +0.192 C 
ATOM     12  C   UNL     1       7.442  -5.428  22.842  0.00  0.00    +0.192 C 
ATOM     13  C   UNL     1       5.666  -3.783  22.278  0.00  0.00    +0.192 C 
ENDBRANCH   9  10
ENDBRANCH   8   9
ENDBRANCH   7   8
ENDBRANCH   4   7
ENDBRANCH   3   4
ENDBRANCH   2   3
ENDBRANCH   1   2
BRANCH   1  14
ATOM     14  C   UNL     1       7.749  -5.262  26.658  0.00  0.00    +0.279 C 
BRANCH  14  15
ATOM     15  O   UNL     1       8.751  -4.230  26.726  0.00  0.00    -0.461 OA
BRANCH  15  16
ATOM     16  C   UNL     1       9.194  -3.734  25.539  0.00  0.00    +0.307 C 
ATOM     17  O   UNL     1       9.901  -4.333  24.740  0.00  0.00    -0.251 OA
BRANCH  16  18
ATOM     18  C   UNL     1       8.628  -2.358  25.291  0.00  0.00    +0.120 C 
BRANCH  18  19
ATOM     19  C   UNL     1       9.568  -1.424  24.537  0.00  0.00    +0.011 C 
BRANCH  19  20
ATOM     20  C   UNL     1       9.873  -0.123  25.286  0.00  0.00    +0.001 C 
BRANCH  20  21
ATOM     21  C   UNL     1      10.853   0.735  24.482  0.00  0.00    +0.000 C 
BRANCH  21  22
ATOM     22  C   UNL     1      10.195   1.988  23.908  0.00  0.00    +0.000 C 
BRANCH  22  23
ATOM     23  C   UNL     1      10.237   1.966  22.379  0.00  0.00    +0.000 C 
BRANCH  23  24
ATOM     24  C   UNL     1       8.989   1.309  21.792  0.00  0.00    -0.000 C 
BRANCH  24  25
ATOM     25  C   UNL     1       7.818   1.385  22.770  0.00  0.00    -0.000 C 
BRANCH  25  26
ATOM     26  C   UNL     1       6.612   2.073  22.133  0.00  0.00    -0.000 C 
BRANCH  26  27
ATOM     27  C   UNL     1       6.756   3.593  22.179  0.00  0.00    -0.000 C 
BRANCH  27  28
ATOM     28  C   UNL     1       5.509   4.242  22.774  0.00  0.00    -0.000 C 
BRANCH  28  29
ATOM     29  C   UNL     1       4.678   3.226  23.555  0.00  0.00    -0.000 C 
BRANCH  29  30
ATOM     30  C   UNL     1       3.188   3.399  23.266  0.00  0.00    -0.000 C 
BRANCH  30  32
ATOM     31  C   UNL     1       1.404   3.301  21.497  0.00  0.00    +0.004 C 
ATOM     32  C   UNL     1       2.899   3.285  21.771  0.00  0.00    -0.003 C 
ENDBRANCH  30  32
ENDBRANCH  29  30
ENDBRANCH  28  29
ENDBRANCH  27  28
ENDBRANCH  26  27
ENDBRANCH  25  26
ENDBRANCH  24  25
ENDBRANCH  23  24
ENDBRANCH  22  23
ENDBRANCH  21  22
ENDBRANCH  20  21
ENDBRANCH  19  20
ENDBRANCH  18  19
ENDBRANCH  16  18
ENDBRANCH  15  16
ENDBRANCH  14  15
ENDBRANCH   1  14
BRANCH   1  33
ATOM     33  O   UNL     1       6.408  -5.174  28.743  0.00  0.00    -0.456 OA
BRANCH  33  34
ATOM     34  C   UNL     1       5.611  -6.230  29.030  0.00  0.00    +0.308 C 
ATOM     35  O   UNL     1       5.905  -7.401  28.817  0.00  0.00    -0.251 OA
BRANCH  34  36
ATOM     36  C   UNL     1       4.350  -5.783  29.719  0.00  0.00    +0.120 C 
BRANCH  36  37
ATOM     37  C   UNL     1       4.451  -4.324  30.175  0.00  0.00    +0.011 C 
BRANCH  37  38
ATOM     38  C   UNL     1       3.416  -3.420  29.494  0.00  0.00    +0.001 C 
BRANCH  38  39
ATOM     39  C   UNL     1       4.076  -2.193  28.865  0.00  0.00    +0.000 C 
BRANCH  39  40
ATOM     40  C   UNL     1       3.200  -1.606  27.757  0.00  0.00    +0.000 C 
BRANCH  40  41
ATOM     41  C   UNL     1       3.810  -0.323  27.192  0.00  0.00    +0.004 C 
BRANCH  41  42
ATOM     42  C   UNL     1       5.153  -0.603  26.516  0.00  0.00    +0.027 C 
BRANCH  42  43
ATOM     43  C   UNL     1       6.186   0.401  26.934  0.00  0.00    -0.031 C 
ATOM     44  C   UNL     1       6.184   1.684  26.538  0.00  0.00    -0.027 C 
BRANCH  44  45
ATOM     45  C   UNL     1       7.224   2.688  26.947  0.00  0.00    +0.053 C 
BRANCH  45  46
ATOM     46  C   UNL     1       7.644   3.534  25.780  0.00  0.00    -0.027 C 
ATOM     47  C   UNL     1       7.976   4.830  25.877  0.00  0.00    -0.031 C 
BRANCH  47  48
ATOM     48  C   UNL     1       8.386   5.680  24.709  0.00  0.00    +0.027 C 
BRANCH  48  49
ATOM     49  C   UNL     1       9.821   6.184  24.870  0.00  0.00    +0.004 C 
BRANCH  49  50
ATOM     50  C   UNL     1      10.697   5.728  23.703  0.00  0.00    +0.000 C 
BRANCH  50  51
ATOM     51  C   UNL     1      12.182   5.909  24.013  0.00  0.00    -0.003 C 
ATOM     52  C   UNL     1      13.047   5.098  23.061  0.00  0.00    +0.004 C 
ENDBRANCH  50  51
ENDBRANCH  49  50
ENDBRANCH  48  49
ENDBRANCH  47  48
ENDBRANCH  45  46
ENDBRANCH  44  45
ENDBRANCH  42  43
ENDBRANCH  41  42
ENDBRANCH  40  41
ENDBRANCH  39  40
ENDBRANCH  38  39
ENDBRANCH  37  38
ENDBRANCH  36  37
ENDBRANCH  34  36
ENDBRANCH  33  34
ENDBRANCH   1  33
TORSDOF 40
ENDMDL
MODEL 2
REMARK VINA RESULT:      -4.7      4.192      9.015
REMARK  Name = 
REMARK  45 active torsions:
REMARK  status: ('A' for Active; 'I' for Inactive)
REMARK    1  A    between atoms: C_1  and  C_2
REMARK    2  A    between atoms: C_2  and  C_3
REMARK    3  A    between atoms: C_3  and  C_4
REMARK    4  A    between atoms: C_4  and  C_5
REMARK    5  A    between atoms: C_5  and  C_6
REMARK    6  A    between atoms: C_6  and  C_7
REMARK    7  A    between atoms: C_7  and  C_8
REMARK    8  A    between atoms: C_8  and  C_9
REMARK    9  A    between atoms: C_9  and  C_10
REMARK   10  A    between atoms: C_10  and  C_11
REMARK   11  A    between atoms: C_11  and  C_12
REMARK   12  A    between atoms: C_12  and  C_13
REMARK   13  A    between atoms: C_13  and  C_14
REMARK   14  A    between atoms: C_14  and  C_15
REMARK   15  A    between atoms: C_15  and  C_16
REMARK   16  A    between atoms: C_16  and  O_18
REMARK   17  A    between atoms: O_18  and  C_19
REMARK   18  A    between atoms: C_19  and  C_20
REMARK   19  A    between atoms: C_20  and  C_22
REMARK   20  A    between atoms: C_20  and  O_34
REMARK   21  A    between atoms: C_22  and  O_23
REMARK   22  A    between atoms: O_23  and  P_24
REMARK   23  A    between atoms: P_24  and  O_27
REMARK   24  A    between atoms: O_27  and  C_28
REMARK   25  A    between atoms: C_28  and  C_29
REMARK   26  A    between atoms: C_29  and  N_30
REMARK   27  A    between atoms: N_30  and  C_31
REMARK   28  A    between atoms: N_30  and  C_32
REMARK   29  A    between atoms: N_30  and  C_33
REMARK   30  A    between atoms: O_34  and  C_35
REMARK   31  A    between atoms: C_35  and  C_37
REMARK   32  A    between atoms: C_37  and  C_38
REMARK   33  A    between atoms: C_38  and  C_39
REMARK   34  A    between atoms: C_39  and  C_40
REMARK   35  A    between atoms: C_40  and  C_41
REMARK   36  A    between atoms: C_41  and  C_42
REMARK   37  A    between atoms: C_42  and  C_43
REMARK   38  A    between atoms: C_43  and  C_44
REMARK   39  A    between atoms: C_45  and  C_46
REMARK   40  A    between atoms: C_46  and  C_47
REMARK   41  A    between atoms: C_48  and  C_49
REMARK   42  A    between atoms: C_49  and  C_50
REMARK   43  A    between atoms: C_50  and  C_51
REMARK   44  A    between atoms: C_51  and  C_52
REMARK   45  A    between atoms: C_52  and  C_53
REMARK                            x       y       z     vdW  Elec       q    Type
REMARK                         _______ _______ _______ _____ _____    ______ ____
ROOT
ATOM      1  C   UNL     1       9.846   1.753  23.201  0.00  0.00    +0.240 C 
ENDROOT
BRANCH   1   2
ATOM      2  C   UNL     1      10.235   3.212  23.005  0.00  0.00    +0.216 C 
BRANCH   2   3
ATOM      3  O   UNL     1       9.408   4.042  23.811  0.00  0.00    -0.324 OA
BRANCH   3   4
ATOM      4  P   UNL     1      10.006   5.530  24.054  0.00  0.00    +0.213 P 
ATOM      5  O   UNL     1      11.452   5.573  23.654  0.00  0.00    -0.517 OA
ATOM      6  O   UNL     1       9.498   6.024  25.383  0.00  0.00    -0.437 OA
BRANCH   4   7
ATOM      7  O   UNL     1       9.139   6.285  22.913  0.00  0.00    -0.322 OA
BRANCH   7   8
ATOM      8  C   UNL     1       7.949   6.895  23.345  0.00  0.00    +0.218 C 
BRANCH   8   9
ATOM      9  C   UNL     1       6.777   6.332  22.542  0.00  0.00    +0.161 C 
BRANCH   9  10
ATOM     10  N   UNL     1       5.687   5.566  23.347  0.00  0.00    +0.239 N 
ATOM     11  C   UNL     1       5.939   4.061  23.333  0.00  0.00    +0.192 C 
ATOM     12  C   UNL     1       4.347   5.840  22.687  0.00  0.00    +0.192 C 
ATOM     13  C   UNL     1       5.643   6.028  24.799  0.00  0.00    +0.192 C 
ENDBRANCH   9  10
ENDBRANCH   8   9
ENDBRANCH   7   8
ENDBRANCH   4   7
ENDBRANCH   3   4
ENDBRANCH   2   3
ENDBRANCH   1   2
BRANCH   1  14
ATOM     14  C   UNL     1       8.982   1.269  22.029  0.00  0.00    +0.279 C 
BRANCH  14  15
ATOM     15  O   UNL     1       9.594   0.146  21.367  0.00  0.00    -0.461 OA
BRANCH  15  16
ATOM     16  C   UNL     1       9.536  -1.047  22.018  0.00  0.00    +0.307 C 
ATOM     17  O   UNL     1      10.498  -1.753  22.290  0.00  0.00    -0.251 OA
BRANCH  16  18
ATOM     18  C   UNL     1       8.122  -1.358  22.439  0.00  0.00    +0.120 C 
BRANCH  18  19
ATOM     19  C   UNL     1       7.651  -2.757  22.060  0.00  0.00    +0.011 C 
BRANCH  19  20
ATOM     20  C   UNL     1       7.840  -3.792  23.173  0.00  0.00    +0.001 C 
BRANCH  20  21
ATOM     21  C   UNL     1       7.235  -5.136  22.757  0.00  0.00    +0.000 C 
BRANCH  21  22
ATOM     22  C   UNL     1       5.846  -4.982  22.140  0.00  0.00    +0.000 C 
BRANCH  22  23
ATOM     23  C   UNL     1       4.858  -5.951  22.793  0.00  0.00    +0.000 C 
BRANCH  23  24
ATOM     24  C   UNL     1       3.474  -5.323  22.948  0.00  0.00    -0.000 C 
BRANCH  24  25
ATOM     25  C   UNL     1       2.529  -6.257  23.703  0.00  0.00    -0.000 C 
BRANCH  25  26
ATOM     26  C   UNL     1       3.308  -7.248  24.565  0.00  0.00    -0.000 C 
BRANCH  26  27
ATOM     27  C   UNL     1       2.732  -7.323  25.977  0.00  0.00    -0.000 C 
BRANCH  27  28
ATOM     28  C   UNL     1       1.751  -6.181  26.229  0.00  0.00    -0.000 C 
BRANCH  28  29
ATOM     29  C   UNL     1       1.341  -6.122  27.700  0.00  0.00    -0.000 C 
BRANCH  29  30
ATOM     30  C   UNL     1       1.999  -4.937  28.404  0.00  0.00    -0.000 C 
BRANCH  30  32
ATOM     31  C   UNL     1       4.139  -4.335  29.581  0.00  0.00    +0.004 C 
ATOM     32  C   UNL     1       3.077  -5.403  29.380  0.00  0.00    -0.003 C 
ENDBRANCH  30  32
ENDBRANCH  29  30
ENDBRANCH  28  29
ENDBRANCH  27  28
ENDBRANCH  26  27
ENDBRANCH  25  26
ENDBRANCH  24  25
ENDBRANCH  23  24
ENDBRANCH  22  23
ENDBRANCH  21  22
ENDBRANCH  20  21
ENDBRANCH  19  20
ENDBRANCH  18  19
ENDBRANCH  16  18
ENDBRANCH  15  16
ENDBRANCH  14  15
ENDBRANCH   1  14
BRANCH   1  33
ATOM     33  O   UNL     1       9.171   1.645  24.473  0.00  0.00    -0.456 OA
BRANCH  33  34
ATOM     34  C   UNL     1       9.463   0.525  25.176  0.00  0.00    +0.308 C 
ATOM     35  O   UNL     1      10.578   0.018  25.244  0.00  0.00    -0.251 OA
BRANCH  34  36
ATOM     36  C   UNL     1       8.257   0.029  25.927  0.00  0.00    +0.120 C 
BRANCH  36  37
ATOM     37  C   UNL     1       8.629  -1.097  26.898  0.00  0.00    +0.011 C 
BRANCH  37  38
ATOM     38  C   UNL     1       8.151  -2.473  26.416  0.00  0.00    +0.001 C 
BRANCH  38  39
ATOM     39  C   UNL     1       9.279  -3.503  26.465  0.00  0.00    +0.000 C 
BRANCH  39  40
ATOM     40  C   UNL     1       8.724  -4.927  26.442  0.00  0.00    +0.000 C 
BRANCH  40  41
ATOM     41  C   UNL     1       7.394  -5.014  27.191  0.00  0.00    +0.004 C 
BRANCH  41  42
ATOM     42  C   UNL     1       6.304  -5.623  26.307  0.00  0.00    +0.027 C 
BRANCH  42  43
ATOM     43  C   UNL     1       5.089  -4.743  26.267  0.00  0.00    -0.031 C 
ATOM     44  C   UNL     1       5.049  -3.552  25.648  0.00  0.00    -0.027 C 
BRANCH  44  45
ATOM     45  C   UNL     1       3.837  -2.666  25.615  0.00  0.00    +0.053 C 
BRANCH  45  46
ATOM     46  C   UNL     1       3.761  -1.811  26.847  0.00  0.00    -0.027 C 
ATOM     47  C   UNL     1       4.813  -1.167  27.377  0.00  0.00    -0.031 C 
BRANCH  47  48
ATOM     48  C   UNL     1       4.740  -0.322  28.614  0.00  0.00    +0.027 C 
BRANCH  48  49
ATOM     49  C   UNL     1       5.643   0.908  28.497  0.00  0.00    +0.004 C 
BRANCH  49  50
ATOM     50  C   UNL     1       5.275   1.743  27.270  0.00  0.00    +0.000 C 
BRANCH  50  51
ATOM     51  C   UNL     1       5.745   3.190  27.417  0.00  0.00    -0.003 C 
ATOM     52  C   UNL     1       7.156   3.367  26.879  0.00  0.00    +0.004 C 
ENDBRANCH  50  51
ENDBRANCH  49  50
ENDBRANCH  48  49
ENDBRANCH  47  48
ENDBRANCH  45  46
ENDBRANCH  44  45
ENDBRANCH  42  43
ENDBRANCH  41  42
ENDBRANCH  40  41
ENDBRANCH  39  40
ENDBRANCH  38  39
ENDBRANCH  37  38
ENDBRANCH  36  37
ENDBRANCH  34  36
ENDBRANCH  33  34
ENDBRANCH   1  33
TORSDOF 40
ENDMDL
MODEL 3
REMARK VINA RESULT:      -4.7      4.096      8.959
REMARK  Name = 
REMARK  45 active torsions:
REMARK  status: ('A' for Active; 'I' for Inactive)
REMARK    1  A    between atoms: C_1  and  C_2
REMARK    2  A    between atoms: C_2  and  C_3
REMARK    3  A    between atoms: C_3  and  C_4
REMARK    4  A    between atoms: C_4  and  C_5
REMARK    5  A    between atoms: C_5  and  C_6
REMARK    6  A    between atoms: C_6  and  C_7
REMARK    7  A    between atoms: C_7  and  C_8
REMARK    8  A    between atoms: C_8  and  C_9
REMARK    9  A    between atoms: C_9  and  C_10
REMARK   10  A    between atoms: C_10  and  C_11
REMARK   11  A    between atoms: C_11  and  C_12
REMARK   12  A    between atoms: C_12  and  C_13
REMARK   13  A    between atoms: C_13  and  C_14
REMARK   14  A    between atoms: C_14  and  C_15
REMARK   15  A    between atoms: C_15  and  C_16
REMARK   16  A    between atoms: C_16  and  O_18
REMARK   17  A    between atoms: O_18  and  C_19
REMARK   18  A    between atoms: C_19  and  C_20
REMARK   19  A    between atoms: C_20  and  C_22
REMARK   20  A    between atoms: C_20  and  O_34
REMARK   21  A    between atoms: C_22  and  O_23
REMARK   22  A    between atoms: O_23  and  P_24
REMARK   23  A    between atoms: P_24  and  O_27
REMARK   24  A    between atoms: O_27  and  C_28
REMARK   25  A    between atoms: C_28  and  C_29
REMARK   26  A    between atoms: C_29  and  N_30
REMARK   27  A    between atoms: N_30  and  C_31
REMARK   28  A    between atoms: N_30  and  C_32
REMARK   29  A    between atoms: N_30  and  C_33
REMARK   30  A    between atoms: O_34  and  C_35
REMARK   31  A    between atoms: C_35  and  C_37
REMARK   32  A    between atoms: C_37  and  C_38
REMARK   33  A    between atoms: C_38  and  C_39
REMARK   34  A    between atoms: C_39  and  C_40
REMARK   35  A    between atoms: C_40  and  C_41
REMARK   36  A    between atoms: C_41  and  C_42
REMARK   37  A    between atoms: C_42  and  C_43
REMARK   38  A    between atoms: C_43  and  C_44
REMARK   39  A    between atoms: C_45  and  C_46
REMARK   40  A    between atoms: C_46  and  C_47
REMARK   41  A    between atoms: C_48  and  C_49
REMARK   42  A    between atoms: C_49  and  C_50
REMARK   43  A    between atoms: C_50  and  C_51
REMARK   44  A    between atoms: C_51  and  C_52
REMARK   45  A    between atoms: C_52  and  C_53
REMARK                            x       y       z     vdW  Elec       q    Type
REMARK                         _______ _______ _______ _____ _____    ______ ____
ROOT
ATOM      1  C   UNL     1       9.346   1.962  23.451  0.00  0.00    +0.240 C 
ENDROOT
BRANCH   1   2
ATOM      2  C   UNL     1       9.876   3.390  23.416  0.00  0.00    +0.216 C 
BRANCH   2   3
ATOM      3  O   UNL     1       8.789   4.305  23.369  0.00  0.00    -0.324 OA
BRANCH   3   4
ATOM      4  P   UNL     1       8.657   5.237  24.689  0.00  0.00    +0.213 P 
ATOM      5  O   UNL     1       9.957   5.937  24.957  0.00  0.00    -0.517 OA
ATOM      6  O   UNL     1       7.905   4.457  25.736  0.00  0.00    -0.437 OA
BRANCH   4   7
ATOM      7  O   UNL     1       7.615   6.314  24.073  0.00  0.00    -0.322 OA
BRANCH   7   8
ATOM      8  C   UNL     1       6.334   6.334  24.650  0.00  0.00    +0.218 C 
BRANCH   8   9
ATOM      9  C   UNL     1       5.288   6.446  23.542  0.00  0.00    +0.161 C 
BRANCH   9  10
ATOM     10  N   UNL     1       4.346   5.221  23.349  0.00  0.00    +0.239 N 
ATOM     11  C   UNL     1       3.721   4.785  24.672  0.00  0.00    +0.192 C 
ATOM     12  C   UNL     1       5.184   4.076  22.806  0.00  0.00    +0.192 C 
ATOM     13  C   UNL     1       3.220   5.536  22.371  0.00  0.00    +0.192 C 
ENDBRANCH   9  10
ENDBRANCH   8   9
ENDBRANCH   7   8
ENDBRANCH   4   7
ENDBRANCH   3   4
ENDBRANCH   2   3
ENDBRANCH   1   2
BRANCH   1  14
ATOM     14  C   UNL     1      10.182   1.060  22.534  0.00  0.00    +0.279 C 
BRANCH  14  15
ATOM     15  O   UNL     1      10.783  -0.015  23.279  0.00  0.00    -0.461 OA
BRANCH  15  16
ATOM     16  C   UNL     1      10.159  -1.222  23.216  0.00  0.00    +0.307 C 
ATOM     17  O   UNL     1      10.017  -1.893  22.202  0.00  0.00    -0.251 OA
BRANCH  16  18
ATOM     18  C   UNL     1       9.727  -1.674  24.588  0.00  0.00    +0.120 C 
BRANCH  18  19
ATOM     19  C   UNL     1       8.787  -2.873  24.583  0.00  0.00    +0.011 C 
BRANCH  19  20
ATOM     20  C   UNL     1       9.488  -4.205  24.871  0.00  0.00    +0.001 C 
BRANCH  20  21
ATOM     21  C   UNL     1       8.647  -5.050  25.831  0.00  0.00    +0.000 C 
BRANCH  21  22
ATOM     22  C   UNL     1       7.741  -4.196  26.718  0.00  0.00    +0.000 C 
BRANCH  22  23
ATOM     23  C   UNL     1       6.578  -5.029  27.259  0.00  0.00    +0.000 C 
BRANCH  23  24
ATOM     24  C   UNL     1       6.006  -5.959  26.190  0.00  0.00    -0.000 C 
BRANCH  24  25
ATOM     25  C   UNL     1       4.832  -6.768  26.738  0.00  0.00    -0.000 C 
BRANCH  25  26
ATOM     26  C   UNL     1       3.944  -5.910  27.638  0.00  0.00    -0.000 C 
BRANCH  26  27
ATOM     27  C   UNL     1       2.481  -6.336  27.538  0.00  0.00    -0.000 C 
BRANCH  27  28
ATOM     28  C   UNL     1       1.762  -5.566  26.434  0.00  0.00    -0.000 C 
BRANCH  28  29
ATOM     29  C   UNL     1       1.144  -6.519  25.412  0.00  0.00    -0.000 C 
BRANCH  29  30
ATOM     30  C   UNL     1       0.702  -5.765  24.159  0.00  0.00    -0.000 C 
BRANCH  30  32
ATOM     31  C   UNL     1       2.959  -6.482  23.314  0.00  0.00    +0.004 C 
ATOM     32  C   UNL     1       1.899  -5.394  23.286  0.00  0.00    -0.003 C 
ENDBRANCH  30  32
ENDBRANCH  29  30
ENDBRANCH  28  29
ENDBRANCH  27  28
ENDBRANCH  26  27
ENDBRANCH  25  26
ENDBRANCH  24  25
ENDBRANCH  23  24
ENDBRANCH  22  23
ENDBRANCH  21  22
ENDBRANCH  20  21
ENDBRANCH  19  20
ENDBRANCH  18  19
ENDBRANCH  16  18
ENDBRANCH  15  16
ENDBRANCH  14  15
ENDBRANCH   1  14
BRANCH   1  33
ATOM     33  O   UNL     1       7.952   2.003  23.075  0.00  0.00    -0.456 OA
BRANCH  33  34
ATOM     34  C   UNL     1       7.211   0.967  23.535  0.00  0.00    +0.308 C 
ATOM     35  O   UNL     1       6.813   0.036  22.843  0.00  0.00    -0.251 OA
BRANCH  34  36
ATOM     36  C   UNL     1       7.007   1.068  25.022  0.00  0.00    +0.120 C 
BRANCH  36  37
ATOM     37  C   UNL     1       6.489  -0.251  25.605  0.00  0.00    +0.011 C 
BRANCH  37  38
ATOM     38  C   UNL     1       7.003  -0.510  27.027  0.00  0.00    +0.001 C 
BRANCH  38  39
ATOM     39  C   UNL     1       7.137   0.791  27.817  0.00  0.00    +0.000 C 
BRANCH  39  40
ATOM     40  C   UNL     1       6.004   0.935  28.834  0.00  0.00    +0.000 C 
BRANCH  40  41
ATOM     41  C   UNL     1       4.888   1.830  28.295  0.00  0.00    +0.004 C 
BRANCH  41  42
ATOM     42  C   UNL     1       3.520   1.169  28.471  0.00  0.00    +0.027 C 
BRANCH  42  43
ATOM     43  C   UNL     1       3.302   0.097  27.444  0.00  0.00    -0.031 C 
ATOM     44  C   UNL     1       2.990  -1.174  27.744  0.00  0.00    -0.027 C 
BRANCH  44  45
ATOM     45  C   UNL     1       2.782  -2.250  26.719  0.00  0.00    +0.053 C 
BRANCH  45  46
ATOM     46  C   UNL     1       4.064  -2.569  26.005  0.00  0.00    -0.027 C 
ATOM     47  C   UNL     1       4.123  -3.144  24.794  0.00  0.00    -0.031 C 
BRANCH  47  48
ATOM     48  C   UNL     1       5.403  -3.474  24.084  0.00  0.00    +0.027 C 
BRANCH  48  49
ATOM     49  C   UNL     1       5.242  -3.352  22.567  0.00  0.00    +0.004 C 
BRANCH  49  50
ATOM     50  C   UNL     1       6.573  -3.585  21.853  0.00  0.00    +0.000 C 
BRANCH  50  51
ATOM     51  C   UNL     1       7.081  -5.010  22.068  0.00  0.00    -0.003 C 
ATOM     52  C   UNL     1       6.136  -6.029  21.450  0.00  0.00    +0.004 C 
ENDBRANCH  50  51
ENDBRANCH  49  50
ENDBRANCH  48  49
ENDBRANCH  47  48
ENDBRANCH  45  46
ENDBRANCH  44  45
ENDBRANCH  42  43
ENDBRANCH  41  42
ENDBRANCH  40  41
ENDBRANCH  39  40
ENDBRANCH  38  39
ENDBRANCH  37  38
ENDBRANCH  36  37
ENDBRANCH  34  36
ENDBRANCH  33  34
ENDBRANCH   1  33
TORSDOF 40
ENDMDL
MODEL 4
REMARK VINA RESULT:      -4.7      2.639      6.602
REMARK  Name = 
REMARK  45 active torsions:
REMARK  status: ('A' for Active; 'I' for Inactive)
REMARK    1  A    between atoms: C_1  and  C_2
REMARK    2  A    between atoms: C_2  and  C_3
REMARK    3  A    between atoms: C_3  and  C_4
REMARK    4  A    between atoms: C_4  and  C_5
REMARK    5  A    between atoms: C_5  and  C_6
REMARK    6  A    between atoms: C_6  and  C_7
REMARK    7  A    between atoms: C_7  and  C_8
REMARK    8  A    between atoms: C_8  and  C_9
REMARK    9  A    between atoms: C_9  and  C_10
REMARK   10  A    between atoms: C_10  and  C_11
REMARK   11  A    between atoms: C_11  and  C_12
REMARK   12  A    between atoms: C_12  and  C_13
REMARK   13  A    between atoms: C_13  and  C_14
REMARK   14  A    between atoms: C_14  and  C_15
REMARK   15  A    between atoms: C_15  and  C_16
REMARK   16  A    between atoms: C_16  and  O_18
REMARK   17  A    between atoms: O_18  and  C_19
REMARK   18  A    between atoms: C_19  and  C_20
REMARK   19  A    between atoms: C_20  and  C_22
REMARK   20  A    between atoms: C_20  and  O_34
REMARK   21  A    between atoms: C_22  and  O_23
REMARK   22  A    between atoms: O_23  and  P_24
REMARK   23  A    between atoms: P_24  and  O_27
REMARK   24  A    between atoms: O_27  and  C_28
REMARK   25  A    between atoms: C_28  and  C_29
REMARK   26  A    between atoms: C_29  and  N_30
REMARK   27  A    between atoms: N_30  and  C_31
REMARK   28  A    between atoms: N_30  and  C_32
REMARK   29  A    between atoms: N_30  and  C_33
REMARK   30  A    between atoms: O_34  and  C_35
REMARK   31  A    between atoms: C_35  and  C_37
REMARK   32  A    between atoms: C_37  and  C_38
REMARK   33  A    between atoms: C_38  and  C_39
REMARK   34  A    between atoms: C_39  and  C_40
REMARK   35  A    between atoms: C_40  and  C_41
REMARK   36  A    between atoms: C_41  and  C_42
REMARK   37  A    between atoms: C_42  and  C_43
REMARK   38  A    between atoms: C_43  and  C_44
REMARK   39  A    between atoms: C_45  and  C_46
REMARK   40  A    between atoms: C_46  and  C_47
REMARK   41  A    between atoms: C_48  and  C_49
REMARK   42  A    between atoms: C_49  and  C_50
REMARK   43  A    between atoms: C_50  and  C_51
REMARK   44  A    between atoms: C_51  and  C_52
REMARK   45  A    between atoms: C_52  and  C_53
REMARK                            x       y       z     vdW  Elec       q    Type
REMARK                         _______ _______ _______ _____ _____    ______ ____
ROOT
ATOM      1  C   UNL     1       7.215   0.276  27.878  0.00  0.00    +0.240 C 
ENDROOT
BRANCH   1   2
ATOM      2  C   UNL     1       5.793   0.101  27.361  0.00  0.00    +0.216 C 
BRANCH   2   3
ATOM      3  O   UNL     1       5.346  -1.223  27.625  0.00  0.00    -0.324 OA
BRANCH   3   4
ATOM      4  P   UNL     1       3.736  -1.356  27.775  0.00  0.00    +0.213 P 
ATOM      5  O   UNL     1       3.061  -0.844  26.537  0.00  0.00    -0.517 OA
ATOM      6  O   UNL     1       3.361  -0.916  29.165  0.00  0.00    -0.437 OA
BRANCH   4   7
ATOM      7  O   UNL     1       3.666  -2.974  27.763  0.00  0.00    -0.322 OA
BRANCH   7   8
ATOM      8  C   UNL     1       4.546  -3.624  26.881  0.00  0.00    +0.218 C 
BRANCH   8   9
ATOM      9  C   UNL     1       3.766  -4.646  26.056  0.00  0.00    +0.161 C 
BRANCH   9  10
ATOM     10  N   UNL     1       3.850  -6.129  26.526  0.00  0.00    +0.239 N 
ATOM     11  C   UNL     1       4.074  -7.073  25.348  0.00  0.00    +0.192 C 
ATOM     12  C   UNL     1       2.527  -6.480  27.185  0.00  0.00    +0.192 C 
ATOM     13  C   UNL     1       4.985  -6.331  27.522  0.00  0.00    +0.192 C 
ENDBRANCH   9  10
ENDBRANCH   8   9
ENDBRANCH   7   8
ENDBRANCH   4   7
ENDBRANCH   3   4
ENDBRANCH   2   3
ENDBRANCH   1   2
BRANCH   1  14
ATOM     14  C   UNL     1       7.320   1.547  28.731  0.00  0.00    +0.279 C 
BRANCH  14  15
ATOM     15  O   UNL     1       6.444   2.575  28.232  0.00  0.00    -0.461 OA
BRANCH  15  16
ATOM     16  C   UNL     1       6.921   3.848  28.267  0.00  0.00    +0.307 C 
ATOM     17  O   UNL     1       7.458   4.378  29.231  0.00  0.00    -0.251 OA
BRANCH  16  18
ATOM     18  C   UNL     1       6.774   4.511  26.921  0.00  0.00    +0.120 C 
BRANCH  18  19
ATOM     19  C   UNL     1       6.910   3.559  25.738  0.00  0.00    +0.011 C 
BRANCH  19  20
ATOM     20  C   UNL     1       8.311   3.544  25.120  0.00  0.00    +0.001 C 
BRANCH  20  21
ATOM     21  C   UNL     1       8.890   4.960  25.081  0.00  0.00    +0.000 C 
BRANCH  21  22
ATOM     22  C   UNL     1       9.371   5.355  23.685  0.00  0.00    +0.000 C 
BRANCH  22  23
ATOM     23  C   UNL     1       8.419   6.373  23.055  0.00  0.00    +0.000 C 
BRANCH  23  24
ATOM     24  C   UNL     1       7.364   5.694  22.185  0.00  0.00    -0.000 C 
BRANCH  24  25
ATOM     25  C   UNL     1       5.978   5.804  22.818  0.00  0.00    -0.000 C 
BRANCH  25  26
ATOM     26  C   UNL     1       5.207   4.492  22.688  0.00  0.00    -0.000 C 
BRANCH  26  27
ATOM     27  C   UNL     1       3.814   4.607  23.303  0.00  0.00    -0.000 C 
BRANCH  27  28
ATOM     28  C   UNL     1       2.988   3.354  23.024  0.00  0.00    -0.000 C 
BRANCH  28  29
ATOM     29  C   UNL     1       1.774   3.676  22.155  0.00  0.00    -0.000 C 
BRANCH  29  30
ATOM     30  C   UNL     1       0.893   2.443  21.966  0.00  0.00    -0.000 C 
BRANCH  30  32
ATOM     31  C   UNL     1       1.518   3.026  19.600  0.00  0.00    +0.004 C 
ATOM     32  C   UNL     1       0.615   2.184  20.487  0.00  0.00    -0.003 C 
ENDBRANCH  30  32
ENDBRANCH  29  30
ENDBRANCH  28  29
ENDBRANCH  27  28
ENDBRANCH  26  27
ENDBRANCH  25  26
ENDBRANCH  24  25
ENDBRANCH  23  24
ENDBRANCH  22  23
ENDBRANCH  21  22
ENDBRANCH  20  21
ENDBRANCH  19  20
ENDBRANCH  18  19
ENDBRANCH  16  18
ENDBRANCH  15  16
ENDBRANCH  14  15
ENDBRANCH   1  14
BRANCH   1  33
ATOM     33  O   UNL     1       8.098   0.296  26.734  0.00  0.00    -0.456 OA
BRANCH  33  34
ATOM     34  C   UNL     1       8.733  -0.875  26.490  0.00  0.00    +0.308 C 
ATOM     35  O   UNL     1       8.608  -1.889  27.167  0.00  0.00    -0.251 OA
BRANCH  34  36
ATOM     36  C   UNL     1       9.552  -0.791  25.230  0.00  0.00    +0.120 C 
BRANCH  36  37
ATOM     37  C   UNL     1      10.324   0.531  25.154  0.00  0.00    +0.011 C 
BRANCH  37  38
ATOM     38  C   UNL     1      10.662   0.935  23.713  0.00  0.00    +0.001 C 
BRANCH  38  39
ATOM     39  C   UNL     1      10.336  -0.188  22.729  0.00  0.00    +0.000 C 
BRANCH  39  40
ATOM     40  C   UNL     1       9.478   0.327  21.573  0.00  0.00    +0.000 C 
BRANCH  40  41
ATOM     41  C   UNL     1       9.173   1.816  21.732  0.00  0.00    +0.004 C 
BRANCH  41  42
ATOM     42  C   UNL     1       7.666   2.064  21.811  0.00  0.00    +0.027 C 
BRANCH  42  43
ATOM     43  C   UNL     1       6.946   0.850  22.320  0.00  0.00    -0.031 C 
ATOM     44  C   UNL     1       6.696   0.619  23.619  0.00  0.00    -0.027 C 
BRANCH  44  45
ATOM     45  C   UNL     1       5.984  -0.600  24.131  0.00  0.00    +0.053 C 
BRANCH  45  46
ATOM     46  C   UNL     1       6.264  -1.792  23.261  0.00  0.00    -0.027 C 
ATOM     47  C   UNL     1       7.256  -2.666  23.488  0.00  0.00    -0.031 C 
BRANCH  47  48
ATOM     48  C   UNL     1       7.544  -3.852  22.613  0.00  0.00    +0.027 C 
BRANCH  48  49
ATOM     49  C   UNL     1       7.953  -5.068  23.448  0.00  0.00    +0.004 C 
BRANCH  49  50
ATOM     50  C   UNL     1       7.233  -5.074  24.796  0.00  0.00    +0.000 C 
BRANCH  50  51
ATOM     51  C   UNL     1       8.220  -5.206  25.956  0.00  0.00    -0.003 C 
ATOM     52  C   UNL     1       9.657  -5.124  25.467  0.00  0.00    +0.004 C 
ENDBRANCH  50  51
ENDBRANCH  49  50
ENDBRANCH  48  49
ENDBRANCH  47  48
ENDBRANCH  45  46
ENDBRANCH  44  45
ENDBRANCH  42  43
ENDBRANCH  41  42
ENDBRANCH  40  41
ENDBRANCH  39  40
ENDBRANCH  38  39
ENDBRANCH  37  38
ENDBRANCH  36  37
ENDBRANCH  34  36
ENDBRANCH  33  34
ENDBRANCH   1  33
TORSDOF 40
ENDMDL
MODEL 5
REMARK VINA RESULT:      -4.6      2.233      5.977
REMARK  Name = 
REMARK  45 active torsions:
REMARK  status: ('A' for Active; 'I' for Inactive)
REMARK    1  A    between atoms: C_1  and  C_2
REMARK    2  A    between atoms: C_2  and  C_3
REMARK    3  A    between atoms: C_3  and  C_4
REMARK    4  A    between atoms: C_4  and  C_5
REMARK    5  A    between atoms: C_5  and  C_6
REMARK    6  A    between atoms: C_6  and  C_7
REMARK    7  A    between atoms: C_7  and  C_8
REMARK    8  A    between atoms: C_8  and  C_9
REMARK    9  A    between atoms: C_9  and  C_10
REMARK   10  A    between atoms: C_10  and  C_11
REMARK   11  A    between atoms: C_11  and  C_12
REMARK   12  A    between atoms: C_12  and  C_13
REMARK   13  A    between atoms: C_13  and  C_14
REMARK   14  A    between atoms: C_14  and  C_15
REMARK   15  A    between atoms: C_15  and  C_16
REMARK   16  A    between atoms: C_16  and  O_18
REMARK   17  A    between atoms: O_18  and  C_19
REMARK   18  A    between atoms: C_19  and  C_20
REMARK   19  A    between atoms: C_20  and  C_22
REMARK   20  A    between atoms: C_20  and  O_34
REMARK   21  A    between atoms: C_22  and  O_23
REMARK   22  A    between atoms: O_23  and  P_24
REMARK   23  A    between atoms: P_24  and  O_27
REMARK   24  A    between atoms: O_27  and  C_28
REMARK   25  A    between atoms: C_28  and  C_29
REMARK   26  A    between atoms: C_29  and  N_30
REMARK   27  A    between atoms: N_30  and  C_31
REMARK   28  A    between atoms: N_30  and  C_32
REMARK   29  A    between atoms: N_30  and  C_33
REMARK   30  A    between atoms: O_34  and  C_35
REMARK   31  A    between atoms: C_35  and  C_37
REMARK   32  A    between atoms: C_37  and  C_38
REMARK   33  A    between atoms: C_38  and  C_39
REMARK   34  A    between atoms: C_39  and  C_40
REMARK   35  A    between atoms: C_40  and  C_41
REMARK   36  A    between atoms: C_41  and  C_42
REMARK   37  A    between atoms: C_42  and  C_43
REMARK   38  A    between atoms: C_43  and  C_44
REMARK   39  A    between atoms: C_45  and  C_46
REMARK   40  A    between atoms: C_46  and  C_47
REMARK   41  A    between atoms: C_48  and  C_49
REMARK   42  A    between atoms: C_49  and  C_50
REMARK   43  A    between atoms: C_50  and  C_51
REMARK   44  A    between atoms: C_51  and  C_52
REMARK   45  A    between atoms: C_52  and  C_53
REMARK                            x       y       z     vdW  Elec       q    Type
REMARK                         _______ _______ _______ _____ _____    ______ ____
ROOT
ATOM      1  C   UNL     1       7.701  -3.897  26.161  0.00  0.00    +0.240 C 
ENDROOT
BRANCH   1   2
ATOM      2  C   UNL     1       7.483  -5.292  26.732  0.00  0.00    +0.216 C 
BRANCH   2   3
ATOM      3  O   UNL     1       6.953  -5.195  28.048  0.00  0.00    -0.324 OA
BRANCH   3   4
ATOM      4  P   UNL     1       5.751  -6.240  28.352  0.00  0.00    +0.213 P 
ATOM      5  O   UNL     1       4.551  -5.505  28.874  0.00  0.00    -0.517 OA
ATOM      6  O   UNL     1       6.344  -7.446  29.030  0.00  0.00    -0.437 OA
BRANCH   4   7
ATOM      7  O   UNL     1       5.459  -6.664  26.816  0.00  0.00    -0.322 OA
BRANCH   7   8
ATOM      8  C   UNL     1       4.126  -6.985  26.506  0.00  0.00    +0.218 C 
BRANCH   8   9
ATOM      9  C   UNL     1       3.994  -7.173  24.996  0.00  0.00    +0.161 C 
BRANCH   9  10
ATOM     10  N   UNL     1       3.593  -5.915  24.171  0.00  0.00    +0.239 N 
ATOM     11  C   UNL     1       2.568  -6.260  23.094  0.00  0.00    +0.192 C 
ATOM     12  C   UNL     1       4.847  -5.387  23.496  0.00  0.00    +0.192 C 
ATOM     13  C   UNL     1       3.001  -4.832  25.064  0.00  0.00    +0.192 C 
ENDBRANCH   9  10
ENDBRANCH   8   9
ENDBRANCH   7   8
ENDBRANCH   4   7
ENDBRANCH   3   4
ENDBRANCH   2   3
ENDBRANCH   1   2
BRANCH   1  14
ATOM     14  C   UNL     1       6.626  -2.934  26.681  0.00  0.00    +0.279 C 
BRANCH  14  15
ATOM     15  O   UNL     1       6.819  -1.611  26.147  0.00  0.00    -0.461 OA
BRANCH  15  16
ATOM     16  C   UNL     1       5.861  -1.154  25.296  0.00  0.00    +0.307 C 
ATOM     17  O   UNL     1       4.916  -1.809  24.875  0.00  0.00    -0.251 OA
BRANCH  16  18
ATOM     18  C   UNL     1       6.067   0.309  24.995  0.00  0.00    +0.120 C 
BRANCH  18  19
ATOM     19  C   UNL     1       6.576   1.124  26.178  0.00  0.00    +0.011 C 
BRANCH  19  20
ATOM     20  C   UNL     1       6.378   2.634  26.014  0.00  0.00    +0.001 C 
BRANCH  20  21
ATOM     21  C   UNL     1       6.999   3.383  27.196  0.00  0.00    +0.000 C 
BRANCH  21  22
ATOM     22  C   UNL     1       7.162   4.876  26.919  0.00  0.00    +0.000 C 
BRANCH  22  23
ATOM     23  C   UNL     1       5.797   5.540  26.724  0.00  0.00    +0.000 C 
BRANCH  23  24
ATOM     24  C   UNL     1       4.963   5.496  28.002  0.00  0.00    -0.000 C 
BRANCH  24  25
ATOM     25  C   UNL     1       3.484   5.279  27.684  0.00  0.00    -0.000 C 
BRANCH  25  26
ATOM     26  C   UNL     1       3.299   4.731  26.270  0.00  0.00    -0.000 C 
BRANCH  26  27
ATOM     27  C   UNL     1       2.828   3.279  26.297  0.00  0.00    -0.000 C 
BRANCH  27  28
ATOM     28  C   UNL     1       2.575   2.813  27.728  0.00  0.00    -0.000 C 
BRANCH  28  29
ATOM     29  C   UNL     1       3.480   1.638  28.093  0.00  0.00    -0.000 C 
BRANCH  29  30
ATOM     30  C   UNL     1       3.258   1.205  29.541  0.00  0.00    -0.000 C 
BRANCH  30  32
ATOM     31  C   UNL     1       5.755   1.108  29.825  0.00  0.00    +0.004 C 
ATOM     32  C   UNL     1       4.444   1.592  30.422  0.00  0.00    -0.003 C 
ENDBRANCH  30  32
ENDBRANCH  29  30
ENDBRANCH  28  29
ENDBRANCH  27  28
ENDBRANCH  26  27
ENDBRANCH  25  26
ENDBRANCH  24  25
ENDBRANCH  23  24
ENDBRANCH  22  23
ENDBRANCH  21  22
ENDBRANCH  20  21
ENDBRANCH  19  20
ENDBRANCH  18  19
ENDBRANCH  16  18
ENDBRANCH  15  16
ENDBRANCH  14  15
ENDBRANCH   1  14
BRANCH   1  33
ATOM     33  O   UNL     1       7.702  -4.009  24.720  0.00  0.00    -0.456 OA
BRANCH  33  34
ATOM     34  C   UNL     1       8.816  -3.530  24.116  0.00  0.00    +0.308 C 
ATOM     35  O   UNL     1       9.962  -3.822  24.440  0.00  0.00    -0.251 OA
BRANCH  34  36
ATOM     36  C   UNL     1       8.461  -2.655  22.945  0.00  0.00    +0.120 C 
BRANCH  36  37
ATOM     37  C   UNL     1       9.681  -1.879  22.438  0.00  0.00    +0.011 C 
BRANCH  37  38
ATOM     38  C   UNL     1       9.301  -0.735  21.490  0.00  0.00    +0.001 C 
BRANCH  38  39
ATOM     39  C   UNL     1       9.779   0.614  22.025  0.00  0.00    +0.000 C 
BRANCH  39  40
ATOM     40  C   UNL     1      10.488   0.452  23.370  0.00  0.00    +0.000 C 
BRANCH  40  41
ATOM     41  C   UNL     1      10.737   1.807  24.031  0.00  0.00    +0.004 C 
BRANCH  41  42
ATOM     42  C   UNL     1       9.420   2.536  24.303  0.00  0.00    +0.027 C 
BRANCH  42  43
ATOM     43  C   UNL     1       9.404   3.885  23.646  0.00  0.00    -0.031 C 
ATOM     44  C   UNL     1       9.563   5.042  24.308  0.00  0.00    -0.027 C 
BRANCH  44  45
ATOM     45  C   UNL     1       9.537   6.393  23.652  0.00  0.00    +0.053 C 
BRANCH  45  46
ATOM     46  C   UNL     1       8.279   6.580  22.854  0.00  0.00    -0.027 C 
ATOM     47  C   UNL     1       7.055   6.661  23.397  0.00  0.00    -0.031 C 
BRANCH  47  48
ATOM     48  C   UNL     1       5.795   6.837  22.600  0.00  0.00    +0.027 C 
BRANCH  48  49
ATOM     49  C   UNL     1       4.776   5.744  22.929  0.00  0.00    +0.004 C 
BRANCH  49  50
ATOM     50  C   UNL     1       5.472   4.414  23.218  0.00  0.00    +0.000 C 
BRANCH  50  51
ATOM     51  C   UNL     1       4.778   3.254  22.506  0.00  0.00    -0.003 C 
ATOM     52  C   UNL     1       3.266   3.400  22.559  0.00  0.00    +0.004 C 
ENDBRANCH  50  51
ENDBRANCH  49  50
ENDBRANCH  48  49
ENDBRANCH  47  48
ENDBRANCH  45  46
ENDBRANCH  44  45
ENDBRANCH  42  43
ENDBRANCH  41  42
ENDBRANCH  40  41
ENDBRANCH  39  40
ENDBRANCH  38  39
ENDBRANCH  37  38
ENDBRANCH  36  37
ENDBRANCH  34  36
ENDBRANCH  33  34
ENDBRANCH   1  33
TORSDOF 40
ENDMDL
MODEL 6
REMARK VINA RESULT:      -4.6      2.531      5.627
REMARK  Name = 
REMARK  45 active torsions:
REMARK  status: ('A' for Active; 'I' for Inactive)
REMARK    1  A    between atoms: C_1  and  C_2
REMARK    2  A    between atoms: C_2  and  C_3
REMARK    3  A    between atoms: C_3  and  C_4
REMARK    4  A    between atoms: C_4  and  C_5
REMARK    5  A    between atoms: C_5  and  C_6
REMARK    6  A    between atoms: C_6  and  C_7
REMARK    7  A    between atoms: C_7  and  C_8
REMARK    8  A    between atoms: C_8  and  C_9
REMARK    9  A    between atoms: C_9  and  C_10
REMARK   10  A    between atoms: C_10  and  C_11
REMARK   11  A    between atoms: C_11  and  C_12
REMARK   12  A    between atoms: C_12  and  C_13
REMARK   13  A    between atoms: C_13  and  C_14
REMARK   14  A    between atoms: C_14  and  C_15
REMARK   15  A    between atoms: C_15  and  C_16
REMARK   16  A    between atoms: C_16  and  O_18
REMARK   17  A    between atoms: O_18  and  C_19
REMARK   18  A    between atoms: C_19  and  C_20
REMARK   19  A    between atoms: C_20  and  C_22
REMARK   20  A    between atoms: C_20  and  O_34
REMARK   21  A    between atoms: C_22  and  O_23
REMARK   22  A    between atoms: O_23  and  P_24
REMARK   23  A    between atoms: P_24  and  O_27
REMARK   24  A    between atoms: O_27  and  C_28
REMARK   25  A    between atoms: C_28  and  C_29
REMARK   26  A    between atoms: C_29  and  N_30
REMARK   27  A    between atoms: N_30  and  C_31
REMARK   28  A    between atoms: N_30  and  C_32
REMARK   29  A    between atoms: N_30  and  C_33
REMARK   30  A    between atoms: O_34  and  C_35
REMARK   31  A    between atoms: C_35  and  C_37
REMARK   32  A    between atoms: C_37  and  C_38
REMARK   33  A    between atoms: C_38  and  C_39
REMARK   34  A    between atoms: C_39  and  C_40
REMARK   35  A    between atoms: C_40  and  C_41
REMARK   36  A    between atoms: C_41  and  C_42
REMARK   37  A    between atoms: C_42  and  C_43
REMARK   38  A    between atoms: C_43  and  C_44
REMARK   39  A    between atoms: C_45  and  C_46
REMARK   40  A    between atoms: C_46  and  C_47
REMARK   41  A    between atoms: C_48  and  C_49
REMARK   42  A    between atoms: C_49  and  C_50
REMARK   43  A    between atoms: C_50  and  C_51
REMARK   44  A    between atoms: C_51  and  C_52
REMARK   45  A    between atoms: C_52  and  C_53
REMARK                            x       y       z     vdW  Elec       q    Type
REMARK                         _______ _______ _______ _____ _____    ______ ____
ROOT
ATOM      1  C   UNL     1       7.559  -1.334  22.929  0.00  0.00    +0.240 C 
ENDROOT
BRANCH   1   2
ATOM      2  C   UNL     1       6.578  -2.498  22.967  0.00  0.00    +0.216 C 
BRANCH   2   3
ATOM      3  O   UNL     1       7.047  -3.548  22.130  0.00  0.00    -0.324 OA
BRANCH   3   4
ATOM      4  P   UNL     1       6.814  -5.032  22.743  0.00  0.00    +0.213 P 
ATOM      5  O   UNL     1       8.133  -5.660  23.085  0.00  0.00    -0.517 OA
ATOM      6  O   UNL     1       5.760  -5.717  21.913  0.00  0.00    -0.437 OA
BRANCH   4   7
ATOM      7  O   UNL     1       6.096  -4.571  24.120  0.00  0.00    -0.322 OA
BRANCH   7   8
ATOM      8  C   UNL     1       5.686  -5.605  24.979  0.00  0.00    +0.218 C 
BRANCH   8   9
ATOM      9  C   UNL     1       4.811  -5.020  26.085  0.00  0.00    +0.161 C 
BRANCH   9  10
ATOM     10  N   UNL     1       5.233  -5.340  27.549  0.00  0.00    +0.239 N 
ATOM     11  C   UNL     1       6.740  -5.561  27.657  0.00  0.00    +0.192 C 
ATOM     12  C   UNL     1       4.524  -6.616  27.966  0.00  0.00    +0.192 C 
ATOM     13  C   UNL     1       4.849  -4.210  28.497  0.00  0.00    +0.192 C 
ENDBRANCH   9  10
ENDBRANCH   8   9
ENDBRANCH   7   8
ENDBRANCH   4   7
ENDBRANCH   3   4
ENDBRANCH   2   3
ENDBRANCH   1   2
BRANCH   1  14
ATOM     14  C   UNL     1       8.743  -1.663  22.011  0.00  0.00    +0.279 C 
BRANCH  14  15
ATOM     15  O   UNL     1       9.320  -0.463  21.464  0.00  0.00    -0.461 OA
BRANCH  15  16
ATOM     16  C   UNL     1       9.996   0.337  22.332  0.00  0.00    +0.307 C 
ATOM     17  O   UNL     1      10.828  -0.044  23.145  0.00  0.00    -0.251 OA
BRANCH  16  18
ATOM     18  C   UNL     1       9.644   1.786  22.109  0.00  0.00    +0.120 C 
BRANCH  18  19
ATOM     19  C   UNL     1       9.847   2.673  23.332  0.00  0.00    +0.011 C 
BRANCH  19  20
ATOM     20  C   UNL     1       8.548   2.999  24.076  0.00  0.00    +0.001 C 
BRANCH  20  21
ATOM     21  C   UNL     1       7.349   2.399  23.338  0.00  0.00    +0.000 C 
BRANCH  21  22
ATOM     22  C   UNL     1       6.250   1.934  24.293  0.00  0.00    +0.000 C 
BRANCH  22  23
ATOM     23  C   UNL     1       4.892   2.492  23.863  0.00  0.00    +0.000 C 
BRANCH  23  24
ATOM     24  C   UNL     1       5.031   3.482  22.709  0.00  0.00    -0.000 C 
BRANCH  24  25
ATOM     25  C   UNL     1       4.086   4.670  22.889  0.00  0.00    -0.000 C 
BRANCH  25  26
ATOM     26  C   UNL     1       4.828   5.995  22.720  0.00  0.00    -0.000 C 
BRANCH  26  27
ATOM     27  C   UNL     1       6.224   5.928  23.337  0.00  0.00    -0.000 C 
BRANCH  27  28
ATOM     28  C   UNL     1       7.301   6.110  22.272  0.00  0.00    -0.000 C 
BRANCH  28  29
ATOM     29  C   UNL     1       8.646   6.465  22.904  0.00  0.00    -0.000 C 
BRANCH  29  30
ATOM     30  C   UNL     1       8.474   6.864  24.369  0.00  0.00    -0.000 C 
BRANCH  30  32
ATOM     31  C   UNL     1      10.907   6.228  24.373  0.00  0.00    +0.004 C 
ATOM     32  C   UNL     1       9.651   6.384  25.215  0.00  0.00    -0.003 C 
ENDBRANCH  30  32
ENDBRANCH  29  30
ENDBRANCH  28  29
ENDBRANCH  27  28
ENDBRANCH  26  27
ENDBRANCH  25  26
ENDBRANCH  24  25
ENDBRANCH  23  24
ENDBRANCH  22  23
ENDBRANCH  21  22
ENDBRANCH  20  21
ENDBRANCH  19  20
ENDBRANCH  18  19
ENDBRANCH  16  18
ENDBRANCH  15  16
ENDBRANCH  14  15
ENDBRANCH   1  14
BRANCH   1  33
ATOM     33  O   UNL     1       7.965  -1.058  24.288  0.00  0.00    -0.456 OA
BRANCH  33  34
ATOM     34  C   UNL     1       8.387  -2.141  24.983  0.00  0.00    +0.308 C 
ATOM     35  O   UNL     1       9.319  -2.864  24.646  0.00  0.00    -0.251 OA
BRANCH  34  36
ATOM     36  C   UNL     1       7.612  -2.296  26.264  0.00  0.00    +0.120 C 
BRANCH  36  37
ATOM     37  C   UNL     1       6.885  -0.999  26.635  0.00  0.00    +0.011 C 
BRANCH  37  38
ATOM     38  C   UNL     1       5.360  -1.125  26.524  0.00  0.00    +0.001 C 
BRANCH  38  39
ATOM     39  C   UNL     1       4.656   0.095  27.116  0.00  0.00    +0.000 C 
BRANCH  39  40
ATOM     40  C   UNL     1       4.428  -0.078  28.619  0.00  0.00    +0.000 C 
BRANCH  40  41
ATOM     41  C   UNL     1       4.827   1.182  29.386  0.00  0.00    +0.004 C 
BRANCH  41  42
ATOM     42  C   UNL     1       6.346   1.355  29.409  0.00  0.00    +0.027 C 
BRANCH  42  43
ATOM     43  C   UNL     1       6.741   2.717  28.919  0.00  0.00    -0.031 C 
ATOM     44  C   UNL     1       6.885   3.032  27.621  0.00  0.00    -0.027 C 
BRANCH  44  45
ATOM     45  C   UNL     1       7.290   4.391  27.129  0.00  0.00    +0.053 C 
BRANCH  45  46
ATOM     46  C   UNL     1       6.092   5.278  26.950  0.00  0.00    -0.027 C 
ATOM     47  C   UNL     1       4.883   4.834  26.569  0.00  0.00    -0.031 C 
BRANCH  47  48
ATOM     48  C   UNL     1       3.687   5.721  26.379  0.00  0.00    +0.027 C 
BRANCH  48  49
ATOM     49  C   UNL     1       2.385   4.947  26.598  0.00  0.00    +0.004 C 
BRANCH  49  50
ATOM     50  C   UNL     1       2.668   3.517  27.061  0.00  0.00    +0.000 C 
BRANCH  50  51
ATOM     51  C   UNL     1       1.941   2.494  26.191  0.00  0.00    -0.003 C 
ATOM     52  C   UNL     1       1.345   3.147  24.953  0.00  0.00    +0.004 C 
ENDBRANCH  50  51
ENDBRANCH  49  50
ENDBRANCH  48  49
ENDBRANCH  47  48
ENDBRANCH  45  46
ENDBRANCH  44  45
ENDBRANCH  42  43
ENDBRANCH  41  42
ENDBRANCH  40  41
ENDBRANCH  39  40
ENDBRANCH  38  39
ENDBRANCH  37  38
ENDBRANCH  36  37
ENDBRANCH  34  36
ENDBRANCH  33  34
ENDBRANCH   1  33
TORSDOF 40
ENDMDL
MODEL 7
REMARK VINA RESULT:      -4.6      2.263      5.312
REMARK  Name = 
REMARK  45 active torsions:
REMARK  status: ('A' for Active; 'I' for Inactive)
REMARK    1  A    between atoms: C_1  and  C_2
REMARK    2  A    between atoms: C_2  and  C_3
REMARK    3  A    between atoms: C_3  and  C_4
REMARK    4  A    between atoms: C_4  and  C_5
REMARK    5  A    between atoms: C_5  and  C_6
REMARK    6  A    between atoms: C_6  and  C_7
REMARK    7  A    between atoms: C_7  and  C_8
REMARK    8  A    between atoms: C_8  and  C_9
REMARK    9  A    between atoms: C_9  and  C_10
REMARK   10  A    between atoms: C_10  and  C_11
REMARK   11  A    between atoms: C_11  and  C_12
REMARK   12  A    between atoms: C_12  and  C_13
REMARK   13  A    between atoms: C_13  and  C_14
REMARK   14  A    between atoms: C_14  and  C_15
REMARK   15  A    between atoms: C_15  and  C_16
REMARK   16  A    between atoms: C_16  and  O_18
REMARK   17  A    between atoms: O_18  and  C_19
REMARK   18  A    between atoms: C_19  and  C_20
REMARK   19  A    between atoms: C_20  and  C_22
REMARK   20  A    between atoms: C_20  and  O_34
REMARK   21  A    between atoms: C_22  and  O_23
REMARK   22  A    between atoms: O_23  and  P_24
REMARK   23  A    between atoms: P_24  and  O_27
REMARK   24  A    between atoms: O_27  and  C_28
REMARK   25  A    between atoms: C_28  and  C_29
REMARK   26  A    between atoms: C_29  and  N_30
REMARK   27  A    between atoms: N_30  and  C_31
REMARK   28  A    between atoms: N_30  and  C_32
REMARK   29  A    between atoms: N_30  and  C_33
REMARK   30  A    between atoms: O_34  and  C_35
REMARK   31  A    between atoms: C_35  and  C_37
REMARK   32  A    between atoms: C_37  and  C_38
REMARK   33  A    between atoms: C_38  and  C_39
REMARK   34  A    between atoms: C_39  and  C_40
REMARK   35  A    between atoms: C_40  and  C_41
REMARK   36  A    between atoms: C_41  and  C_42
REMARK   37  A    between atoms: C_42  and  C_43
REMARK   38  A    between atoms: C_43  and  C_44
REMARK   39  A    between atoms: C_45  and  C_46
REMARK   40  A    between atoms: C_46  and  C_47
REMARK   41  A    between atoms: C_48  and  C_49
REMARK   42  A    between atoms: C_49  and  C_50
REMARK   43  A    between atoms: C_50  and  C_51
REMARK   44  A    between atoms: C_51  and  C_52
REMARK   45  A    between atoms: C_52  and  C_53
REMARK                            x       y       z     vdW  Elec       q    Type
REMARK                         _______ _______ _______ _____ _____    ______ ____
ROOT
ATOM      1  C   UNL     1       6.713  -1.752  22.973  0.00  0.00    +0.240 C 
ENDROOT
BRANCH   1   2
ATOM      2  C   UNL     1       5.859  -2.862  23.570  0.00  0.00    +0.216 C 
BRANCH   2   3
ATOM      3  O   UNL     1       5.560  -3.828  22.571  0.00  0.00    -0.324 OA
BRANCH   3   4
ATOM      4  P   UNL     1       4.868  -5.177  23.146  0.00  0.00    +0.213 P 
ATOM      5  O   UNL     1       5.718  -6.370  22.819  0.00  0.00    -0.517 OA
ATOM      6  O   UNL     1       3.393  -5.105  22.853  0.00  0.00    -0.437 OA
BRANCH   4   7
ATOM      7  O   UNL     1       5.047  -4.840  24.720  0.00  0.00    -0.322 OA
BRANCH   7   8
ATOM      8  C   UNL     1       4.267  -5.602  25.608  0.00  0.00    +0.218 C 
BRANCH   8   9
ATOM      9  C   UNL     1       5.186  -6.320  26.594  0.00  0.00    +0.161 C 
BRANCH   9  10
ATOM     10  N   UNL     1       5.584  -5.530  27.875  0.00  0.00    +0.239 N 
ATOM     11  C   UNL     1       4.399  -4.751  28.440  0.00  0.00    +0.192 C 
ATOM     12  C   UNL     1       6.674  -4.545  27.490  0.00  0.00    +0.192 C 
ATOM     13  C   UNL     1       6.102  -6.464  28.963  0.00  0.00    +0.192 C 
ENDBRANCH   9  10
ENDBRANCH   8   9
ENDBRANCH   7   8
ENDBRANCH   4   7
ENDBRANCH   3   4
ENDBRANCH   2   3
ENDBRANCH   1   2
BRANCH   1  14
ATOM     14  C   UNL     1       7.947  -2.343  22.279  0.00  0.00    +0.279 C 
BRANCH  14  15
ATOM     15  O   UNL     1       8.722  -1.312  21.639  0.00  0.00    -0.461 OA
BRANCH  15  16
ATOM     16  C   UNL     1       9.927  -1.022  22.200  0.00  0.00    +0.307 C 
ATOM     17  O   UNL     1      10.821  -1.830  22.414  0.00  0.00    -0.251 OA
BRANCH  16  18
ATOM     18  C   UNL     1      10.056   0.459  22.454  0.00  0.00    +0.120 C 
BRANCH  18  19
ATOM     19  C   UNL     1      10.313   0.822  23.912  0.00  0.00    +0.011 C 
BRANCH  19  20
ATOM     20  C   UNL     1       9.398   1.932  24.439  0.00  0.00    +0.001 C 
BRANCH  20  21
ATOM     21  C   UNL     1       8.626   2.576  23.285  0.00  0.00    +0.000 C 
BRANCH  21  22
ATOM     22  C   UNL     1       7.119   2.346  23.393  0.00  0.00    +0.000 C 
BRANCH  22  23
ATOM     23  C   UNL     1       6.362   3.291  22.458  0.00  0.00    +0.000 C 
BRANCH  23  24
ATOM     24  C   UNL     1       7.140   4.583  22.214  0.00  0.00    -0.000 C 
BRANCH  24  25
ATOM     25  C   UNL     1       6.353   5.797  22.704  0.00  0.00    -0.000 C 
BRANCH  25  26
ATOM     26  C   UNL     1       7.279   6.980  22.979  0.00  0.00    -0.000 C 
BRANCH  26  27
ATOM     27  C   UNL     1       8.734   6.529  23.084  0.00  0.00    -0.000 C 
BRANCH  27  28
ATOM     28  C   UNL     1       9.328   6.911  24.437  0.00  0.00    -0.000 C 
BRANCH  28  29
ATOM     29  C   UNL     1      10.703   6.275  24.634  0.00  0.00    -0.000 C 
BRANCH  29  30
ATOM     30  C   UNL     1      11.002   5.264  23.529  0.00  0.00    -0.000 C 
BRANCH  30  32
ATOM     31  C   UNL     1      13.136   5.617  22.246  0.00  0.00    +0.004 C 
ATOM     32  C   UNL     1      12.495   4.953  23.453  0.00  0.00    -0.003 C 
ENDBRANCH  30  32
ENDBRANCH  29  30
ENDBRANCH  28  29
ENDBRANCH  27  28
ENDBRANCH  26  27
ENDBRANCH  25  26
ENDBRANCH  24  25
ENDBRANCH  23  24
ENDBRANCH  22  23
ENDBRANCH  21  22
ENDBRANCH  20  21
ENDBRANCH  19  20
ENDBRANCH  18  19
ENDBRANCH  16  18
ENDBRANCH  15  16
ENDBRANCH  14  15
ENDBRANCH   1  14
BRANCH   1  33
ATOM     33  O   UNL     1       7.055  -0.839  24.039  0.00  0.00    -0.456 OA
BRANCH  33  34
ATOM     34  C   UNL     1       7.580  -1.428  25.140  0.00  0.00    +0.308 C 
ATOM     35  O   UNL     1       8.400  -2.339  25.118  0.00  0.00    -0.251 OA
BRANCH  34  36
ATOM     36  C   UNL     1       7.084  -0.763  26.396  0.00  0.00    +0.120 C 
BRANCH  36  37
ATOM     37  C   UNL     1       5.596  -0.411  26.290  0.00  0.00    +0.011 C 
BRANCH  37  38
ATOM     38  C   UNL     1       4.705  -1.373  27.086  0.00  0.00    +0.001 C 
BRANCH  38  39
ATOM     39  C   UNL     1       3.224  -1.044  26.899  0.00  0.00    +0.000 C 
BRANCH  39  40
ATOM     40  C   UNL     1       2.576  -0.653  28.228  0.00  0.00    +0.000 C 
BRANCH  40  41
ATOM     41  C   UNL     1       2.569   0.865  28.413  0.00  0.00    +0.004 C 
BRANCH  41  42
ATOM     42  C   UNL     1       3.083   1.251  29.801  0.00  0.00    +0.027 C 
BRANCH  42  43
ATOM     43  C   UNL     1       4.492   1.762  29.732  0.00  0.00    -0.031 C 
ATOM     44  C   UNL     1       5.576   0.970  29.743  0.00  0.00    -0.027 C 
BRANCH  44  45
ATOM     45  C   UNL     1       6.987   1.480  29.684  0.00  0.00    +0.053 C 
BRANCH  45  46
ATOM     46  C   UNL     1       7.063   2.765  28.912  0.00  0.00    -0.027 C 
ATOM     47  C   UNL     1       7.030   2.836  27.572  0.00  0.00    -0.031 C 
BRANCH  47  48
ATOM     48  C   UNL     1       7.117   4.119  26.799  0.00  0.00    +0.027 C 
BRANCH  48  49
ATOM     49  C   UNL     1       5.847   4.358  25.979  0.00  0.00    +0.004 C 
BRANCH  49  50
ATOM     50  C   UNL     1       4.820   3.252  26.225  0.00  0.00    +0.000 C 
BRANCH  50  51
ATOM     51  C   UNL     1       3.672   3.323  25.219  0.00  0.00    -0.003 C 
ATOM     52  C   UNL     1       3.393   4.758  24.801  0.00  0.00    +0.004 C 
ENDBRANCH  50  51
ENDBRANCH  49  50
ENDBRANCH  48  49
ENDBRANCH  47  48
ENDBRANCH  45  46
ENDBRANCH  44  45
ENDBRANCH  42  43
ENDBRANCH  41  42
ENDBRANCH  40  41
ENDBRANCH  39  40
ENDBRANCH  38  39
ENDBRANCH  37  38
ENDBRANCH  36  37
ENDBRANCH  34  36
ENDBRANCH  33  34
ENDBRANCH   1  33
TORSDOF 40
ENDMDL
MODEL 8
REMARK VINA RESULT:      -4.6      3.312      8.361
REMARK  Name = 
REMARK  45 active torsions:
REMARK  status: ('A' for Active; 'I' for Inactive)
REMARK    1  A    between atoms: C_1  and  C_2
REMARK    2  A    between atoms: C_2  and  C_3
REMARK    3  A    between atoms: C_3  and  C_4
REMARK    4  A    between atoms: C_4  and  C_5
REMARK    5  A    between atoms: C_5  and  C_6
REMARK    6  A    between atoms: C_6  and  C_7
REMARK    7  A    between atoms: C_7  and  C_8
REMARK    8  A    between atoms: C_8  and  C_9
REMARK    9  A    between atoms: C_9  and  C_10
REMARK   10  A    between atoms: C_10  and  C_11
REMARK   11  A    between atoms: C_11  and  C_12
REMARK   12  A    between atoms: C_12  and  C_13
REMARK   13  A    between atoms: C_13  and  C_14
REMARK   14  A    between atoms: C_14  and  C_15
REMARK   15  A    between atoms: C_15  and  C_16
REMARK   16  A    between atoms: C_16  and  O_18
REMARK   17  A    between atoms: O_18  and  C_19
REMARK   18  A    between atoms: C_19  and  C_20
REMARK   19  A    between atoms: C_20  and  C_22
REMARK   20  A    between atoms: C_20  and  O_34
REMARK   21  A    between atoms: C_22  and  O_23
REMARK   22  A    between atoms: O_23  and  P_24
REMARK   23  A    between atoms: P_24  and  O_27
REMARK   24  A    between atoms: O_27  and  C_28
REMARK   25  A    between atoms: C_28  and  C_29
REMARK   26  A    between atoms: C_29  and  N_30
REMARK   27  A    between atoms: N_30  and  C_31
REMARK   28  A    between atoms: N_30  and  C_32
REMARK   29  A    between atoms: N_30  and  C_33
REMARK   30  A    between atoms: O_34  and  C_35
REMARK   31  A    between atoms: C_35  and  C_37
REMARK   32  A    between atoms: C_37  and  C_38
REMARK   33  A    between atoms: C_38  and  C_39
REMARK   34  A    between atoms: C_39  and  C_40
REMARK   35  A    between atoms: C_40  and  C_41
REMARK   36  A    between atoms: C_41  and  C_42
REMARK   37  A    between atoms: C_42  and  C_43
REMARK   38  A    between atoms: C_43  and  C_44
REMARK   39  A    between atoms: C_45  and  C_46
REMARK   40  A    between atoms: C_46  and  C_47
REMARK   41  A    between atoms: C_48  and  C_49
REMARK   42  A    between atoms: C_49  and  C_50
REMARK   43  A    between atoms: C_50  and  C_51
REMARK   44  A    between atoms: C_51  and  C_52
REMARK   45  A    between atoms: C_52  and  C_53
REMARK                            x       y       z     vdW  Elec       q    Type
REMARK                         _______ _______ _______ _____ _____    ______ ____
ROOT
ATOM      1  C   UNL     1       9.041  -2.699  23.541  0.00  0.00    +0.240 C 
ENDROOT
BRANCH   1   2
ATOM      2  C   UNL     1      10.279  -1.812  23.538  0.00  0.00    +0.216 C 
BRANCH   2   3
ATOM      3  O   UNL     1       9.934  -0.506  23.093  0.00  0.00    -0.324 OA
BRANCH   3   4
ATOM      4  P   UNL     1      10.207   0.656  24.190  0.00  0.00    +0.213 P 
ATOM      5  O   UNL     1      11.681   0.904  24.320  0.00  0.00    -0.517 OA
ATOM      6  O   UNL     1       9.302   0.405  25.368  0.00  0.00    -0.437 OA
BRANCH   4   7
ATOM      7  O   UNL     1       9.556   1.880  23.354  0.00  0.00    -0.322 OA
BRANCH   7   8
ATOM      8  C   UNL     1       9.950   3.173  23.742  0.00  0.00    +0.218 C 
BRANCH   8   9
ATOM      9  C   UNL     1       8.815   3.828  24.527  0.00  0.00    +0.161 C 
BRANCH   9  10
ATOM     10  N   UNL     1       8.126   5.054  23.861  0.00  0.00    +0.239 N 
ATOM     11  C   UNL     1       7.088   5.681  24.788  0.00  0.00    +0.192 C 
ATOM     12  C   UNL     1       7.423   4.564  22.607  0.00  0.00    +0.192 C 
ATOM     13  C   UNL     1       9.142   6.127  23.489  0.00  0.00    +0.192 C 
ENDBRANCH   9  10
ENDBRANCH   8   9
ENDBRANCH   7   8
ENDBRANCH   4   7
ENDBRANCH   3   4
ENDBRANCH   2   3
ENDBRANCH   1   2
BRANCH   1  14
ATOM     14  C   UNL     1       7.876  -1.991  22.837  0.00  0.00    +0.279 C 
BRANCH  14  15
ATOM     15  O   UNL     1       6.906  -1.522  23.792  0.00  0.00    -0.461 OA
BRANCH  15  16
ATOM     16  C   UNL     1       6.516  -0.224  23.673  0.00  0.00    +0.307 C 
ATOM     17  O   UNL     1       6.724   0.492  22.702  0.00  0.00    -0.251 OA
BRANCH  16  18
ATOM     18  C   UNL     1       5.711   0.205  24.873  0.00  0.00    +0.120 C 
BRANCH  18  19
ATOM     19  C   UNL     1       6.042   1.604  25.380  0.00  0.00    +0.011 C 
BRANCH  19  20
ATOM     20  C   UNL     1       4.876   2.591  25.264  0.00  0.00    +0.001 C 
BRANCH  20  21
ATOM     21  C   UNL     1       3.740   2.183  26.206  0.00  0.00    +0.000 C 
BRANCH  21  22
ATOM     22  C   UNL     1       3.732   3.002  27.496  0.00  0.00    +0.000 C 
BRANCH  22  23
ATOM     23  C   UNL     1       2.461   2.724  28.301  0.00  0.00    +0.000 C 
BRANCH  23  24
ATOM     24  C   UNL     1       1.476   1.858  27.517  0.00  0.00    -0.000 C 
BRANCH  24  25
ATOM     25  C   UNL     1       0.835   0.804  28.419  0.00  0.00    -0.000 C 
BRANCH  25  26
ATOM     26  C   UNL     1       1.140  -0.607  27.920  0.00  0.00    -0.000 C 
BRANCH  26  27
ATOM     27  C   UNL     1       2.358  -1.192  28.632  0.00  0.00    -0.000 C 
BRANCH  27  28
ATOM     28  C   UNL     1       3.556  -1.273  27.689  0.00  0.00    -0.000 C 
BRANCH  28  29
ATOM     29  C   UNL     1       4.788  -0.612  28.305  0.00  0.00    -0.000 C 
BRANCH  29  30
ATOM     30  C   UNL     1       4.470  -0.042  29.686  0.00  0.00    -0.000 C 
BRANCH  30  32
ATOM     31  C   UNL     1       6.567   1.183  29.035  0.00  0.00    +0.004 C 
ATOM     32  C   UNL     1       5.520   0.979  30.118  0.00  0.00    -0.003 C 
ENDBRANCH  30  32
ENDBRANCH  29  30
ENDBRANCH  28  29
ENDBRANCH  27  28
ENDBRANCH  26  27
ENDBRANCH  25  26
ENDBRANCH  24  25
ENDBRANCH  23  24
ENDBRANCH  22  23
ENDBRANCH  21  22
ENDBRANCH  20  21
ENDBRANCH  19  20
ENDBRANCH  18  19
ENDBRANCH  16  18
ENDBRANCH  15  16
ENDBRANCH  14  15
ENDBRANCH   1  14
BRANCH   1  33
ATOM     33  O   UNL     1       8.744  -3.032  24.915  0.00  0.00    -0.456 OA
BRANCH  33  34
ATOM     34  C   UNL     1       8.972  -4.325  25.246  0.00  0.00    +0.308 C 
ATOM     35  O   UNL     1       9.912  -4.994  24.830  0.00  0.00    -0.251 OA
BRANCH  34  36
ATOM     36  C   UNL     1       7.965  -4.810  26.253  0.00  0.00    +0.120 C 
BRANCH  36  37
ATOM     37  C   UNL     1       7.035  -3.678  26.702  0.00  0.00    +0.011 C 
BRANCH  37  38
ATOM     38  C   UNL     1       5.844  -4.183  27.526  0.00  0.00    +0.001 C 
BRANCH  38  39
ATOM     39  C   UNL     1       6.185  -5.480  28.259  0.00  0.00    +0.000 C 
BRANCH  39  40
ATOM     40  C   UNL     1       5.065  -5.877  29.222  0.00  0.00    +0.000 C 
BRANCH  40  41
ATOM     41  C   UNL     1       4.389  -4.644  29.821  0.00  0.00    +0.004 C 
BRANCH  41  42
ATOM     42  C   UNL     1       2.866  -4.744  29.709  0.00  0.00    +0.027 C 
BRANCH  42  43
ATOM     43  C   UNL     1       2.457  -5.267  28.364  0.00  0.00    -0.031 C 
ATOM     44  C   UNL     1       1.960  -4.497  27.382  0.00  0.00    -0.027 C 
BRANCH  44  45
ATOM     45  C   UNL     1       1.541  -5.021  26.039  0.00  0.00    +0.053 C 
BRANCH  45  46
ATOM     46  C   UNL     1       2.673  -4.946  25.055  0.00  0.00    -0.027 C 
ATOM     47  C   UNL     1       3.356  -3.823  24.784  0.00  0.00    -0.031 C 
BRANCH  47  48
ATOM     48  C   UNL     1       4.480  -3.744  23.792  0.00  0.00    +0.027 C 
BRANCH  48  49
ATOM     49  C   UNL     1       4.652  -5.070  23.047  0.00  0.00    +0.004 C 
BRANCH  49  50
ATOM     50  C   UNL     1       5.962  -5.753  23.440  0.00  0.00    +0.000 C 
BRANCH  50  51
ATOM     51  C   UNL     1       6.970  -5.732  22.291  0.00  0.00    -0.003 C 
ATOM     52  C   UNL     1       6.266  -5.693  20.943  0.00  0.00    +0.004 C 
ENDBRANCH  50  51
ENDBRANCH  49  50
ENDBRANCH  48  49
ENDBRANCH  47  48
ENDBRANCH  45  46
ENDBRANCH  44  45
ENDBRANCH  42  43
ENDBRANCH  41  42
ENDBRANCH  40  41
ENDBRANCH  39  40
ENDBRANCH  38  39
ENDBRANCH  37  38
ENDBRANCH  36  37
ENDBRANCH  34  36
ENDBRANCH  33  34
ENDBRANCH   1  33
TORSDOF 40
ENDMDL
MODEL 9
REMARK VINA RESULT:      -4.6      3.346      7.936
REMARK  Name = 
REMARK  45 active torsions:
REMARK  status: ('A' for Active; 'I' for Inactive)
REMARK    1  A    between atoms: C_1  and  C_2
REMARK    2  A    between atoms: C_2  and  C_3
REMARK    3  A    between atoms: C_3  and  C_4
REMARK    4  A    between atoms: C_4  and  C_5
REMARK    5  A    between atoms: C_5  and  C_6
REMARK    6  A    between atoms: C_6  and  C_7
REMARK    7  A    between atoms: C_7  and  C_8
REMARK    8  A    between atoms: C_8  and  C_9
REMARK    9  A    between atoms: C_9  and  C_10
REMARK   10  A    between atoms: C_10  and  C_11
REMARK   11  A    between atoms: C_11  and  C_12
REMARK   12  A    between atoms: C_12  and  C_13
REMARK   13  A    between atoms: C_13  and  C_14
REMARK   14  A    between atoms: C_14  and  C_15
REMARK   15  A    between atoms: C_15  and  C_16
REMARK   16  A    between atoms: C_16  and  O_18
REMARK   17  A    between atoms: O_18  and  C_19
REMARK   18  A    between atoms: C_19  and  C_20
REMARK   19  A    between atoms: C_20  and  C_22
REMARK   20  A    between atoms: C_20  and  O_34
REMARK   21  A    between atoms: C_22  and  O_23
REMARK   22  A    between atoms: O_23  and  P_24
REMARK   23  A    between atoms: P_24  and  O_27
REMARK   24  A    between atoms: O_27  and  C_28
REMARK   25  A    between atoms: C_28  and  C_29
REMARK   26  A    between atoms: C_29  and  N_30
REMARK   27  A    between atoms: N_30  and  C_31
REMARK   28  A    between atoms: N_30  and  C_32
REMARK   29  A    between atoms: N_30  and  C_33
REMARK   30  A    between atoms: O_34  and  C_35
REMARK   31  A    between atoms: C_35  and  C_37
REMARK   32  A    between atoms: C_37  and  C_38
REMARK   33  A    between atoms: C_38  and  C_39
REMARK   34  A    between atoms: C_39  and  C_40
REMARK   35  A    between atoms: C_40  and  C_41
REMARK   36  A    between atoms: C_41  and  C_42
REMARK   37  A    between atoms: C_42  and  C_43
REMARK   38  A    between atoms: C_43  and  C_44
REMARK   39  A    between atoms: C_45  and  C_46
REMARK   40  A    between atoms: C_46  and  C_47
REMARK   41  A    between atoms: C_48  and  C_49
REMARK   42  A    between atoms: C_49  and  C_50
REMARK   43  A    between atoms: C_50  and  C_51
REMARK   44  A    between atoms: C_51  and  C_52
REMARK   45  A    between atoms: C_52  and  C_53
REMARK                            x       y       z     vdW  Elec       q    Type
REMARK                         _______ _______ _______ _____ _____    ______ ____
ROOT
ATOM      1  C   UNL     1       8.204  -2.368  23.087  0.00  0.00    +0.240 C 
ENDROOT
BRANCH   1   2
ATOM      2  C   UNL     1       8.329  -1.033  22.364  0.00  0.00    +0.216 C 
BRANCH   2   3
ATOM      3  O   UNL     1       8.031   0.029  23.262  0.00  0.00    -0.324 OA
BRANCH   3   4
ATOM      4  P   UNL     1       9.282   1.021  23.545  0.00  0.00    +0.213 P 
ATOM      5  O   UNL     1       9.993   1.332  22.261  0.00  0.00    -0.517 OA
ATOM      6  O   UNL     1       9.986   0.538  24.786  0.00  0.00    -0.437 OA
BRANCH   4   7
ATOM      7  O   UNL     1       8.416   2.320  23.976  0.00  0.00    -0.322 OA
BRANCH   7   8
ATOM      8  C   UNL     1       8.875   3.557  23.491  0.00  0.00    +0.218 C 
BRANCH   8   9
ATOM      9  C   UNL     1       8.961   4.549  24.650  0.00  0.00    +0.161 C 
BRANCH   9  10
ATOM     10  N   UNL     1       9.550   5.953  24.322  0.00  0.00    +0.239 N 
ATOM     11  C   UNL     1       9.517   6.868  25.543  0.00  0.00    +0.192 C 
ATOM     12  C   UNL     1       8.694   6.569  23.230  0.00  0.00    +0.192 C 
ATOM     13  C   UNL     1      10.993   5.850  23.843  0.00  0.00    +0.192 C 
ENDBRANCH   9  10
ENDBRANCH   8   9
ENDBRANCH   7   8
ENDBRANCH   4   7
ENDBRANCH   3   4
ENDBRANCH   2   3
ENDBRANCH   1   2
BRANCH   1  14
ATOM     14  C   UNL     1       9.550  -2.768  23.703  0.00  0.00    +0.279 C 
BRANCH  14  15
ATOM     15  O   UNL     1       9.393  -3.145  25.084  0.00  0.00    -0.461 OA
BRANCH  15  16
ATOM     16  C   UNL     1       9.199  -4.469  25.333  0.00  0.00    +0.307 C 
ATOM     17  O   UNL     1       9.520  -5.384  24.587  0.00  0.00    -0.251 OA
BRANCH  16  18
ATOM     18  C   UNL     1       8.602  -4.673  26.703  0.00  0.00    +0.120 C 
BRANCH  18  19
ATOM     19  C   UNL     1       7.446  -5.667  26.738  0.00  0.00    +0.011 C 
BRANCH  19  20
ATOM     20  C   UNL     1       6.419  -5.376  27.836  0.00  0.00    +0.001 C 
BRANCH  20  21
ATOM     21  C   UNL     1       5.033  -5.866  27.409  0.00  0.00    +0.000 C 
BRANCH  21  22
ATOM     22  C   UNL     1       3.910  -4.991  27.963  0.00  0.00    +0.000 C 
BRANCH  22  23
ATOM     23  C   UNL     1       4.451  -4.024  29.018  0.00  0.00    +0.000 C 
BRANCH  23  24
ATOM     24  C   UNL     1       4.000  -2.589  28.750  0.00  0.00    -0.000 C 
BRANCH  24  25
ATOM     25  C   UNL     1       2.505  -2.534  28.441  0.00  0.00    -0.000 C 
BRANCH  25  26
ATOM     26  C   UNL     1       2.237  -1.765  27.149  0.00  0.00    -0.000 C 
BRANCH  26  27
ATOM     27  C   UNL     1       0.926  -2.208  26.504  0.00  0.00    -0.000 C 
BRANCH  27  28
ATOM     28  C   UNL     1       0.753  -3.722  26.600  0.00  0.00    -0.000 C 
BRANCH  28  29
ATOM     29  C   UNL     1       1.220  -4.412  25.320  0.00  0.00    -0.000 C 
BRANCH  29  30
ATOM     30  C   UNL     1       1.295  -5.926  25.511  0.00  0.00    -0.000 C 
BRANCH  30  32
ATOM     31  C   UNL     1       3.077  -7.495  24.681  0.00  0.00    +0.004 C 
ATOM     32  C   UNL     1       1.908  -6.607  24.289  0.00  0.00    -0.003 C 
ENDBRANCH  30  32
ENDBRANCH  29  30
ENDBRANCH  28  29
ENDBRANCH  27  28
ENDBRANCH  26  27
ENDBRANCH  25  26
ENDBRANCH  24  25
ENDBRANCH  23  24
ENDBRANCH  22  23
ENDBRANCH  21  22
ENDBRANCH  20  21
ENDBRANCH  19  20
ENDBRANCH  18  19
ENDBRANCH  16  18
ENDBRANCH  15  16
ENDBRANCH  14  15
ENDBRANCH   1  14
BRANCH   1  33
ATOM     33  O   UNL     1       7.715  -3.338  22.135  0.00  0.00    -0.456 OA
BRANCH  33  34
ATOM     34  C   UNL     1       6.393  -3.615  22.239  0.00  0.00    +0.308 C 
ATOM     35  O   UNL     1       5.554  -3.330  21.391  0.00  0.00    -0.251 OA
BRANCH  34  36
ATOM     36  C   UNL     1       6.102  -4.391  23.495  0.00  0.00    +0.120 C 
BRANCH  36  37
ATOM     37  C   UNL     1       4.676  -4.130  23.993  0.00  0.00    +0.011 C 
BRANCH  37  38
ATOM     38  C   UNL     1       4.557  -2.821  24.783  0.00  0.00    +0.001 C 
BRANCH  38  39
ATOM     39  C   UNL     1       5.758  -2.616  25.707  0.00  0.00    +0.000 C 
BRANCH  39  40
ATOM     40  C   UNL     1       6.045  -1.129  25.912  0.00  0.00    +0.000 C 
BRANCH  40  41
ATOM     41  C   UNL     1       7.308  -0.920  26.748  0.00  0.00    +0.004 C 
BRANCH  41  42
ATOM     42  C   UNL     1       7.317   0.466  27.394  0.00  0.00    +0.027 C 
BRANCH  42  43
ATOM     43  C   UNL     1       5.943   0.857  27.852  0.00  0.00    -0.031 C 
ATOM     44  C   UNL     1       5.527   0.773  29.126  0.00  0.00    -0.027 C 
BRANCH  44  45
ATOM     45  C   UNL     1       4.149   1.154  29.584  0.00  0.00    +0.053 C 
BRANCH  45  46
ATOM     46  C   UNL     1       3.238   1.390  28.414  0.00  0.00    -0.027 C 
ATOM     47  C   UNL     1       2.879   2.609  27.980  0.00  0.00    -0.031 C 
BRANCH  47  48
ATOM     48  C   UNL     1       1.960   2.847  26.818  0.00  0.00    +0.027 C 
BRANCH  48  49
ATOM     49  C   UNL     1       2.750   3.072  25.527  0.00  0.00    +0.004 C 
BRANCH  49  50
ATOM     50  C   UNL     1       3.943   3.997  25.768  0.00  0.00    +0.000 C 
BRANCH  50  51
ATOM     51  C   UNL     1       5.244   3.374  25.264  0.00  0.00    -0.003 C 
ATOM     52  C   UNL     1       4.973   2.126  24.438  0.00  0.00    +0.004 C 
ENDBRANCH  50  51
ENDBRANCH  49  50
ENDBRANCH  48  49
ENDBRANCH  47  48
ENDBRANCH  45  46
ENDBRANCH  44  45
ENDBRANCH  42  43
ENDBRANCH  41  42
ENDBRANCH  40  41
ENDBRANCH  39  40
ENDBRANCH  38  39
ENDBRANCH  37  38
ENDBRANCH  36  37
ENDBRANCH  34  36
ENDBRANCH  33  34
ENDBRANCH   1  33
TORSDOF 40
ENDMDL
