MODEL 1
REMARK VINA RESULT:      -6.8      0.000      0.000
REMARK  Name = 
REMARK  14 active torsions:
REMARK  status: ('A' for Active; 'I' for Inactive)
REMARK    1  A    between atoms: N_10  and  C_11
REMARK    2  A    between atoms: C_14  and  C_16
REMARK    3  A    between atoms: C_16  and  O_17
REMARK    4  A    between atoms: O_17  and  P_18
REMARK    5  A    between atoms: P_18  and  S_19
REMARK    6  A    between atoms: P_18  and  O_21
REMARK    7  A    between atoms: O_21  and  P_22
REMARK    8  A    between atoms: P_22  and  O_23
REMARK    9  A    between atoms: P_22  and  O_25
REMARK   10  A    between atoms: O_25  and  P_26
REMARK   11  A    between atoms: P_26  and  O_27
REMARK   12  A    between atoms: P_26  and  O_28
REMARK   13  A    between atoms: C_30  and  O_32
REMARK   14  A    between atoms: C_33  and  O_35
REMARK                            x       y       z     vdW  Elec       q    Type
REMARK                         _______ _______ _______ _____ _____    ______ ____
ROOT
ATOM      1  C   UNL     1       7.361  -2.964  23.187  0.00  0.00    +0.253 C 
ATOM      2  C   UNL     1       7.959  -4.380  23.223  0.00  0.00    +0.195 C 
ATOM      3  C   UNL     1       8.547  -4.521  24.628  0.00  0.00    +0.178 C 
ATOM      4  C   UNL     1       8.064  -3.270  25.364  0.00  0.00    +0.178 C 
ATOM      5  O   UNL     1       6.993  -2.722  24.575  0.00  0.00    -0.346 OA
ENDROOT
BRANCH   1  13
ATOM      6  N   UNL     1       9.981   2.268  21.578  0.00  0.00    -0.341 N 
ATOM      7  H   UNL     1      10.883   1.819  21.684  0.00  0.00    +0.144 HD
ATOM      8  H   UNL     1       9.900   3.234  21.868  0.00  0.00    +0.144 HD
ATOM      9  C   UNL     1       8.930   1.498  22.059  0.00  0.00    +0.147 A 
ATOM     10  C   UNL     1       9.001   0.103  22.216  0.00  0.00    +0.147 A 
ATOM     11  N   UNL     1      10.014  -0.802  21.997  0.00  0.00    -0.231 NA
ATOM     12  C   UNL     1       9.500  -1.967  22.337  0.00  0.00    +0.203 A 
ATOM     13  N   UNL     1       8.186  -1.862  22.729  0.00  0.00    -0.286 N 
ATOM     14  C   UNL     1       7.871  -0.531  22.709  0.00  0.00    +0.167 A 
ATOM     15  N   UNL     1       6.722   0.053  23.082  0.00  0.00    -0.216 NA
ATOM     16  C   UNL     1       6.763   1.384  22.885  0.00  0.00    +0.225 A 
ATOM     17  N   UNL     1       7.786   2.130  22.410  0.00  0.00    -0.219 NA
ENDBRANCH   1  13
BRANCH   2  18
ATOM     18  O   UNL     1       6.903  -5.354  23.063  0.00  0.00    -0.385 OA
ATOM     19  H   UNL     1       7.283  -6.162  22.672  0.00  0.00    +0.210 HD
ENDBRANCH   2  18
BRANCH   3  20
ATOM     20  O   UNL     1       9.970  -4.563  24.584  0.00  0.00    -0.386 OA
ATOM     21  H   UNL     1      10.229  -5.437  24.239  0.00  0.00    +0.210 HD
ENDBRANCH   3  20
BRANCH   4  22
ATOM     22  C   UNL     1       7.593  -3.549  26.785  0.00  0.00    +0.205 C 
BRANCH  22  23
ATOM     23  O   UNL     1       6.255  -4.021  26.761  0.00  0.00    -0.297 OA
BRANCH  23  24
ATOM     24  P   UNL     1       5.995  -5.519  27.321  0.00  0.00    +0.397 P 
ATOM     25  O   UNL     1       7.110  -5.981  28.207  0.00  0.00    -0.246 OA
BRANCH  24  26
ATOM     26  S   UNL     1       4.182  -5.549  28.334  0.00  0.00    -0.058 S 
ATOM     27  H   UNL     1       3.716  -6.637  27.708  0.00  0.00    +0.114 HD
ENDBRANCH  24  26
BRANCH  24  28
ATOM     28  O   UNL     1       5.910  -6.372  25.959  0.00  0.00    -0.200 OA
BRANCH  28  29
ATOM     29  P   UNL     1       4.335  -6.334  25.244  0.00  0.00    +0.491 P 
ATOM     30  O   UNL     1       4.839  -7.183  24.071  0.00  0.00    -0.226 OA
BRANCH  29  31
ATOM     31  O   UNL     1       4.607  -4.798  24.751  0.00  0.00    -0.302 OA
ATOM     32  H   UNL     1       4.792  -4.816  23.792  0.00  0.00    +0.222 HD
ENDBRANCH  29  31
BRANCH  29  33
ATOM     33  O   UNL     1       2.759  -6.297  24.530  0.00  0.00    -0.186 OA
BRANCH  33  34
ATOM     34  P   UNL     1       1.860  -7.682  25.043  0.00  0.00    +0.481 P 
ATOM     35  O   UNL     1       1.056  -8.924  25.502  0.00  0.00    -0.227 OA
BRANCH  34  36
ATOM     36  O   UNL     1       3.145  -7.989  26.014  0.00  0.00    -0.302 OA
ATOM     37  H   UNL     1       3.198  -8.932  26.248  0.00  0.00    +0.222 HD
ENDBRANCH  34  36
BRANCH  34  38
ATOM     38  O   UNL     1       2.471  -8.464  23.737  0.00  0.00    -0.302 OA
ATOM     39  H   UNL     1       1.963  -9.303  23.700  0.00  0.00    +0.222 HD
ENDBRANCH  34  38
ENDBRANCH  33  34
ENDBRANCH  29  33
ENDBRANCH  28  29
ENDBRANCH  24  28
ENDBRANCH  23  24
ENDBRANCH  22  23
ENDBRANCH   4  22
TORSDOF 14
ENDMDL
MODEL 2
REMARK VINA RESULT:      -6.7      1.598      2.611
REMARK  Name = 
REMARK  14 active torsions:
REMARK  status: ('A' for Active; 'I' for Inactive)
REMARK    1  A    between atoms: N_10  and  C_11
REMARK    2  A    between atoms: C_14  and  C_16
REMARK    3  A    between atoms: C_16  and  O_17
REMARK    4  A    between atoms: O_17  and  P_18
REMARK    5  A    between atoms: P_18  and  S_19
REMARK    6  A    between atoms: P_18  and  O_21
REMARK    7  A    between atoms: O_21  and  P_22
REMARK    8  A    between atoms: P_22  and  O_23
REMARK    9  A    between atoms: P_22  and  O_25
REMARK   10  A    between atoms: O_25  and  P_26
REMARK   11  A    between atoms: P_26  and  O_27
REMARK   12  A    between atoms: P_26  and  O_28
REMARK   13  A    between atoms: C_30  and  O_32
REMARK   14  A    between atoms: C_33  and  O_35
REMARK                            x       y       z     vdW  Elec       q    Type
REMARK                         _______ _______ _______ _____ _____    ______ ____
ROOT
ATOM      1  C   UNL     1       7.643  -3.209  24.214  0.00  0.00    +0.253 C 
ATOM      2  C   UNL     1       8.356  -4.464  23.685  0.00  0.00    +0.195 C 
ATOM      3  C   UNL     1       8.815  -5.211  24.938  0.00  0.00    +0.178 C 
ATOM      4  C   UNL     1       8.156  -4.451  26.091  0.00  0.00    +0.178 C 
ATOM      5  O   UNL     1       7.122  -3.640  25.504  0.00  0.00    -0.346 OA
ENDROOT
BRANCH   1  13
ATOM      6  N   UNL     1      10.797   1.968  23.947  0.00  0.00    -0.341 N 
ATOM      7  H   UNL     1      10.512   2.161  24.900  0.00  0.00    +0.144 HD
ATOM      8  H   UNL     1      10.849   2.748  23.305  0.00  0.00    +0.144 HD
ATOM      9  C   UNL     1      10.129   0.886  23.388  0.00  0.00    +0.147 A 
ATOM     10  C   UNL     1       9.513  -0.122  24.150  0.00  0.00    +0.147 A 
ATOM     11  N   UNL     1       9.378  -0.303  25.507  0.00  0.00    -0.231 NA
ATOM     12  C   UNL     1       8.691  -1.421  25.627  0.00  0.00    +0.203 A 
ATOM     13  N   UNL     1       8.408  -1.992  24.408  0.00  0.00    -0.286 N 
ATOM     14  C   UNL     1       8.883  -1.139  23.450  0.00  0.00    +0.167 A 
ATOM     15  N   UNL     1       8.772  -1.248  22.117  0.00  0.00    -0.216 NA
ATOM     16  C   UNL     1       9.400  -0.235  21.490  0.00  0.00    +0.225 A 
ATOM     17  N   UNL     1      10.055   0.813  22.039  0.00  0.00    -0.219 NA
ENDBRANCH   1  13
BRANCH   2  18
ATOM     18  O   UNL     1       7.409  -5.294  22.973  0.00  0.00    -0.385 OA
ATOM     19  H   UNL     1       7.632  -6.228  23.135  0.00  0.00    +0.210 HD
ENDBRANCH   2  18
BRANCH   3  20
ATOM     20  O   UNL     1      10.234  -5.180  25.059  0.00  0.00    -0.386 OA
ATOM     21  H   UNL     1      10.570  -4.519  24.426  0.00  0.00    +0.210 HD
ENDBRANCH   3  20
BRANCH   4  22
ATOM     22  C   UNL     1       7.576  -5.364  27.163  0.00  0.00    +0.205 C 
BRANCH  22  23
ATOM     23  O   UNL     1       6.492  -6.105  26.625  0.00  0.00    -0.297 OA
BRANCH  23  24
ATOM     24  P   UNL     1       5.303  -6.512  27.646  0.00  0.00    +0.397 P 
ATOM     25  O   UNL     1       5.830  -7.207  28.863  0.00  0.00    -0.246 OA
BRANCH  24  26
ATOM     26  S   UNL     1       4.252  -4.798  28.169  0.00  0.00    -0.058 S 
ATOM     27  H   UNL     1       3.045  -5.320  27.920  0.00  0.00    +0.114 HD
ENDBRANCH  24  26
BRANCH  24  28
ATOM     28  O   UNL     1       4.402  -7.486  26.735  0.00  0.00    -0.200 OA
BRANCH  28  29
ATOM     29  P   UNL     1       3.533  -6.635  25.504  0.00  0.00    +0.491 P 
ATOM     30  O   UNL     1       2.206  -7.000  26.180  0.00  0.00    -0.226 OA
BRANCH  29  31
ATOM     31  O   UNL     1       3.795  -7.879  24.475  0.00  0.00    -0.302 OA
ATOM     32  H   UNL     1       4.716  -8.182  24.595  0.00  0.00    +0.222 HD
ENDBRANCH  29  31
BRANCH  29  33
ATOM     33  O   UNL     1       2.665  -5.783  24.274  0.00  0.00    -0.186 OA
BRANCH  33  34
ATOM     34  P   UNL     1       3.771  -4.843  23.334  0.00  0.00    +0.481 P 
ATOM     35  O   UNL     1       4.762  -4.000  22.493  0.00  0.00    -0.227 OA
BRANCH  34  36
ATOM     36  O   UNL     1       3.874  -6.168  22.374  0.00  0.00    -0.302 OA
ATOM     37  H   UNL     1       3.010  -6.399  21.991  0.00  0.00    +0.222 HD
ENDBRANCH  34  36
BRANCH  34  38
ATOM     38  O   UNL     1       4.942  -5.322  24.377  0.00  0.00    -0.302 OA
ATOM     39  H   UNL     1       5.745  -5.401  23.817  0.00  0.00    +0.222 HD
ENDBRANCH  34  38
ENDBRANCH  33  34
ENDBRANCH  29  33
ENDBRANCH  28  29
ENDBRANCH  24  28
ENDBRANCH  23  24
ENDBRANCH  22  23
ENDBRANCH   4  22
TORSDOF 14
ENDMDL
MODEL 3
REMARK VINA RESULT:      -6.7      3.213      4.693
REMARK  Name = 
REMARK  14 active torsions:
REMARK  status: ('A' for Active; 'I' for Inactive)
REMARK    1  A    between atoms: N_10  and  C_11
REMARK    2  A    between atoms: C_14  and  C_16
REMARK    3  A    between atoms: C_16  and  O_17
REMARK    4  A    between atoms: O_17  and  P_18
REMARK    5  A    between atoms: P_18  and  S_19
REMARK    6  A    between atoms: P_18  and  O_21
REMARK    7  A    between atoms: O_21  and  P_22
REMARK    8  A    between atoms: P_22  and  O_23
REMARK    9  A    between atoms: P_22  and  O_25
REMARK   10  A    between atoms: O_25  and  P_26
REMARK   11  A    between atoms: P_26  and  O_27
REMARK   12  A    between atoms: P_26  and  O_28
REMARK   13  A    between atoms: C_30  and  O_32
REMARK   14  A    between atoms: C_33  and  O_35
REMARK                            x       y       z     vdW  Elec       q    Type
REMARK                         _______ _______ _______ _____ _____    ______ ____
ROOT
ATOM      1  C   UNL     1       9.415   0.197  25.034  0.00  0.00    +0.253 C 
ATOM      2  C   UNL     1       7.985  -0.215  25.422  0.00  0.00    +0.195 C 
ATOM      3  C   UNL     1       7.422  -0.899  24.176  0.00  0.00    +0.178 C 
ATOM      4  C   UNL     1       8.625  -1.021  23.239  0.00  0.00    +0.178 C 
ATOM      5  O   UNL     1       9.794  -0.807  24.049  0.00  0.00    -0.346 OA
ENDROOT
BRANCH   1  13
ATOM      6  N   UNL     1       9.378   5.933  23.054  0.00  0.00    -0.341 N 
ATOM      7  H   UNL     1      10.391   5.910  23.046  0.00  0.00    +0.144 HD
ATOM      8  H   UNL     1       8.930   6.793  23.343  0.00  0.00    +0.144 HD
ATOM      9  C   UNL     1       8.813   4.825  23.674  0.00  0.00    +0.147 A 
ATOM     10  C   UNL     1       9.484   3.601  23.832  0.00  0.00    +0.147 A 
ATOM     11  N   UNL     1      10.752   3.190  23.492  0.00  0.00    -0.231 NA
ATOM     12  C   UNL     1      10.820   1.941  23.905  0.00  0.00    +0.203 A 
ATOM     13  N   UNL     1       9.639   1.511  24.463  0.00  0.00    -0.286 N 
ATOM     14  C   UNL     1       8.791   2.585  24.473  0.00  0.00    +0.167 A 
ATOM     15  N   UNL     1       7.553   2.657  24.986  0.00  0.00    -0.216 NA
ATOM     16  C   UNL     1       7.006   3.869  24.774  0.00  0.00    +0.225 A 
ATOM     17  N   UNL     1       7.557   4.942  24.164  0.00  0.00    -0.219 NA
ENDBRANCH   1  13
BRANCH   2  18
ATOM     18  O   UNL     1       8.036  -1.181  26.497  0.00  0.00    -0.385 OA
ATOM     19  H   UNL     1       8.884  -1.079  26.966  0.00  0.00    +0.210 HD
ENDBRANCH   2  18
BRANCH   3  20
ATOM     20  O   UNL     1       6.396  -0.109  23.580  0.00  0.00    -0.386 OA
ATOM     21  H   UNL     1       6.590   0.825  23.780  0.00  0.00    +0.210 HD
ENDBRANCH   3  20
BRANCH   4  22
ATOM     22  C   UNL     1       8.705  -2.366  22.530  0.00  0.00    +0.205 C 
BRANCH  22  23
ATOM     23  O   UNL     1       7.404  -2.919  22.405  0.00  0.00    -0.297 OA
BRANCH  23  24
ATOM     24  P   UNL     1       7.155  -4.372  23.077  0.00  0.00    +0.397 P 
ATOM     25  O   UNL     1       5.993  -4.355  24.021  0.00  0.00    -0.246 OA
BRANCH  24  26
ATOM     26  S   UNL     1       6.862  -5.767  21.566  0.00  0.00    -0.058 S 
ATOM     27  H   UNL     1       5.547  -5.893  21.777  0.00  0.00    +0.114 HD
ENDBRANCH  24  26
BRANCH  24  28
ATOM     28  O   UNL     1       8.551  -4.629  23.837  0.00  0.00    -0.200 OA
BRANCH  28  29
ATOM     29  P   UNL     1       8.351  -4.863  25.540  0.00  0.00    +0.491 P 
ATOM     30  O   UNL     1       9.140  -3.578  25.816  0.00  0.00    -0.226 OA
BRANCH  29  31
ATOM     31  O   UNL     1       9.505  -6.022  25.503  0.00  0.00    -0.302 OA
ATOM     32  H   UNL     1      10.061  -5.922  26.301  0.00  0.00    +0.222 HD
ENDBRANCH  29  31
BRANCH  29  33
ATOM     33  O   UNL     1       8.151  -5.098  27.242  0.00  0.00    -0.186 OA
BRANCH  33  34
ATOM     34  P   UNL     1       6.465  -5.172  27.619  0.00  0.00    +0.481 P 
ATOM     35  O   UNL     1       4.955  -5.239  27.957  0.00  0.00    -0.227 OA
BRANCH  34  36
ATOM     36  O   UNL     1       6.347  -6.129  26.293  0.00  0.00    -0.302 OA
ATOM     37  H   UNL     1       6.997  -5.878  25.613  0.00  0.00    +0.222 HD
ENDBRANCH  34  36
BRANCH  34  38
ATOM     38  O   UNL     1       6.300  -3.761  26.801  0.00  0.00    -0.302 OA
ATOM     39  H   UNL     1       5.553  -3.926  26.185  0.00  0.00    +0.222 HD
ENDBRANCH  34  38
ENDBRANCH  33  34
ENDBRANCH  29  33
ENDBRANCH  28  29
ENDBRANCH  24  28
ENDBRANCH  23  24
ENDBRANCH  22  23
ENDBRANCH   4  22
TORSDOF 14
ENDMDL
MODEL 4
REMARK VINA RESULT:      -6.5      5.477      7.970
REMARK  Name = 
REMARK  14 active torsions:
REMARK  status: ('A' for Active; 'I' for Inactive)
REMARK    1  A    between atoms: N_10  and  C_11
REMARK    2  A    between atoms: C_14  and  C_16
REMARK    3  A    between atoms: C_16  and  O_17
REMARK    4  A    between atoms: O_17  and  P_18
REMARK    5  A    between atoms: P_18  and  S_19
REMARK    6  A    between atoms: P_18  and  O_21
REMARK    7  A    between atoms: O_21  and  P_22
REMARK    8  A    between atoms: P_22  and  O_23
REMARK    9  A    between atoms: P_22  and  O_25
REMARK   10  A    between atoms: O_25  and  P_26
REMARK   11  A    between atoms: P_26  and  O_27
REMARK   12  A    between atoms: P_26  and  O_28
REMARK   13  A    between atoms: C_30  and  O_32
REMARK   14  A    between atoms: C_33  and  O_35
REMARK                            x       y       z     vdW  Elec       q    Type
REMARK                         _______ _______ _______ _____ _____    ______ ____
ROOT
ATOM      1  C   UNL     1       8.602  -4.210  25.859  0.00  0.00    +0.253 C 
ATOM      2  C   UNL     1       8.682  -3.524  24.485  0.00  0.00    +0.195 C 
ATOM      3  C   UNL     1       8.074  -2.139  24.702  0.00  0.00    +0.178 C 
ATOM      4  C   UNL     1       7.882  -2.047  26.217  0.00  0.00    +0.178 C 
ATOM      5  O   UNL     1       8.682  -3.095  26.793  0.00  0.00    -0.346 OA
ENDROOT
BRANCH   1  13
ATOM      6  N   UNL     1       3.530  -7.529  26.150  0.00  0.00    -0.341 N 
ATOM      7  H   UNL     1       3.859  -7.907  27.031  0.00  0.00    +0.144 HD
ATOM      8  H   UNL     1       3.041  -8.154  25.523  0.00  0.00    +0.144 HD
ATOM      9  C   UNL     1       4.495  -6.784  25.483  0.00  0.00    +0.147 A 
ATOM     10  C   UNL     1       5.602  -6.201  26.124  0.00  0.00    +0.147 A 
ATOM     11  N   UNL     1       6.027  -6.215  27.432  0.00  0.00    -0.231 NA
ATOM     12  C   UNL     1       7.138  -5.506  27.429  0.00  0.00    +0.203 A 
ATOM     13  N   UNL     1       7.431  -5.002  26.184  0.00  0.00    -0.286 N 
ATOM     14  C   UNL     1       6.483  -5.487  25.325  0.00  0.00    +0.167 A 
ATOM     15  N   UNL     1       6.406  -5.319  23.997  0.00  0.00    -0.216 NA
ATOM     16  C   UNL     1       5.309  -5.913  23.491  0.00  0.00    +0.225 A 
ATOM     17  N   UNL     1       4.368  -6.631  24.145  0.00  0.00    -0.219 NA
ENDBRANCH   1  13
BRANCH   2  18
ATOM     18  O   UNL     1      10.069  -3.366  24.105  0.00  0.00    -0.385 OA
ATOM     19  H   UNL     1      10.172  -2.505  23.661  0.00  0.00    +0.210 HD
ENDBRANCH   2  18
BRANCH   3  20
ATOM     20  O   UNL     1       6.825  -2.019  24.027  0.00  0.00    -0.386 OA
ATOM     21  H   UNL     1       6.700  -2.824  23.492  0.00  0.00    +0.210 HD
ENDBRANCH   3  20
BRANCH   4  22
ATOM     22  C   UNL     1       8.278  -0.694  26.796  0.00  0.00    +0.205 C 
BRANCH  22  23
ATOM     23  O   UNL     1       8.580   0.206  25.741  0.00  0.00    -0.297 OA
BRANCH  23  24
ATOM     24  P   UNL     1       7.538   1.422  25.494  0.00  0.00    +0.397 P 
ATOM     25  O   UNL     1       6.421   1.019  24.582  0.00  0.00    -0.246 OA
BRANCH  24  26
ATOM     26  S   UNL     1       6.803   2.058  27.330  0.00  0.00    -0.058 S 
ATOM     27  H   UNL     1       6.710   3.347  26.978  0.00  0.00    +0.114 HD
ENDBRANCH  24  26
BRANCH  24  28
ATOM     28  O   UNL     1       8.486   2.542  24.833  0.00  0.00    -0.200 OA
BRANCH  28  29
ATOM     29  P   UNL     1       9.256   1.995  23.383  0.00  0.00    +0.491 P 
ATOM     30  O   UNL     1      10.604   2.519  23.893  0.00  0.00    -0.226 OA
BRANCH  29  31
ATOM     31  O   UNL     1       8.627   3.273  22.579  0.00  0.00    -0.302 OA
ATOM     32  H   UNL     1       8.329   3.929  23.240  0.00  0.00    +0.222 HD
ENDBRANCH  29  31
BRANCH  29  33
ATOM     33  O   UNL     1      10.026   1.447  21.933  0.00  0.00    -0.186 OA
BRANCH  33  34
ATOM     34  P   UNL     1       9.764  -0.253  21.749  0.00  0.00    +0.481 P 
ATOM     35  O   UNL     1       9.530  -1.775  21.584  0.00  0.00    -0.227 OA
BRANCH  34  36
ATOM     36  O   UNL     1       8.233   0.065  22.239  0.00  0.00    -0.302 OA
ATOM     37  H   UNL     1       7.980  -0.486  23.000  0.00  0.00    +0.222 HD
ENDBRANCH  34  36
BRANCH  34  38
ATOM     38  O   UNL     1      10.372  -0.431  23.262  0.00  0.00    -0.302 OA
ATOM     39  H   UNL     1      10.144  -1.355  23.505  0.00  0.00    +0.222 HD
ENDBRANCH  34  38
ENDBRANCH  33  34
ENDBRANCH  29  33
ENDBRANCH  28  29
ENDBRANCH  24  28
ENDBRANCH  23  24
ENDBRANCH  22  23
ENDBRANCH   4  22
TORSDOF 14
ENDMDL
MODEL 5
REMARK VINA RESULT:      -6.4      5.276      7.913
REMARK  Name = 
REMARK  14 active torsions:
REMARK  status: ('A' for Active; 'I' for Inactive)
REMARK    1  A    between atoms: N_10  and  C_11
REMARK    2  A    between atoms: C_14  and  C_16
REMARK    3  A    between atoms: C_16  and  O_17
REMARK    4  A    between atoms: O_17  and  P_18
REMARK    5  A    between atoms: P_18  and  S_19
REMARK    6  A    between atoms: P_18  and  O_21
REMARK    7  A    between atoms: O_21  and  P_22
REMARK    8  A    between atoms: P_22  and  O_23
REMARK    9  A    between atoms: P_22  and  O_25
REMARK   10  A    between atoms: O_25  and  P_26
REMARK   11  A    between atoms: P_26  and  O_27
REMARK   12  A    between atoms: P_26  and  O_28
REMARK   13  A    between atoms: C_30  and  O_32
REMARK   14  A    between atoms: C_33  and  O_35
REMARK                            x       y       z     vdW  Elec       q    Type
REMARK                         _______ _______ _______ _____ _____    ______ ____
ROOT
ATOM      1  C   UNL     1       8.675  -3.764  25.471  0.00  0.00    +0.253 C 
ATOM      2  C   UNL     1       8.685  -3.143  24.065  0.00  0.00    +0.195 C 
ATOM      3  C   UNL     1       7.931  -1.821  24.214  0.00  0.00    +0.178 C 
ATOM      4  C   UNL     1       7.726  -1.676  25.724  0.00  0.00    +0.178 C 
ATOM      5  O   UNL     1       8.632  -2.603  26.348  0.00  0.00    -0.346 OA
ENDROOT
BRANCH   1  13
ATOM      6  N   UNL     1       3.924  -7.511  25.946  0.00  0.00    -0.341 N 
ATOM      7  H   UNL     1       4.332  -7.877  26.799  0.00  0.00    +0.144 HD
ATOM      8  H   UNL     1       3.457  -8.163  25.330  0.00  0.00    +0.144 HD
ATOM      9  C   UNL     1       4.786  -6.673  25.248  0.00  0.00    +0.147 A 
ATOM     10  C   UNL     1       5.873  -6.011  25.843  0.00  0.00    +0.147 A 
ATOM     11  N   UNL     1       6.368  -6.014  27.127  0.00  0.00    -0.231 NA
ATOM     12  C   UNL     1       7.413  -5.213  27.083  0.00  0.00    +0.203 A 
ATOM     13  N   UNL     1       7.595  -4.660  25.837  0.00  0.00    -0.286 N 
ATOM     14  C   UNL     1       6.646  -5.208  25.018  0.00  0.00    +0.167 A 
ATOM     15  N   UNL     1       6.482  -5.020  23.700  0.00  0.00    -0.216 NA
ATOM     16  C   UNL     1       5.413  -5.696  23.238  0.00  0.00    +0.225 A 
ATOM     17  N   UNL     1       4.574  -6.505  23.922  0.00  0.00    -0.219 NA
ENDBRANCH   1  13
BRANCH   2  18
ATOM     18  O   UNL     1      10.048  -2.856  23.673  0.00  0.00    -0.385 OA
ATOM     19  H   UNL     1      10.622  -2.954  24.455  0.00  0.00    +0.210 HD
ENDBRANCH   2  18
BRANCH   3  20
ATOM     20  O   UNL     1       6.679  -1.869  23.537  0.00  0.00    -0.386 OA
ATOM     21  H   UNL     1       5.981  -1.696  24.196  0.00  0.00    +0.210 HD
ENDBRANCH   3  20
BRANCH   4  22
ATOM     22  C   UNL     1       7.974  -0.262  26.233  0.00  0.00    +0.205 C 
BRANCH  22  23
ATOM     23  O   UNL     1       7.466   0.678  25.300  0.00  0.00    -0.297 OA
BRANCH  23  24
ATOM     24  P   UNL     1       5.946   1.192  25.528  0.00  0.00    +0.397 P 
ATOM     25  O   UNL     1       4.944   0.177  25.075  0.00  0.00    -0.246 OA
BRANCH  24  26
ATOM     26  S   UNL     1       5.687   1.641  27.540  0.00  0.00    -0.058 S 
ATOM     27  H   UNL     1       5.960   2.945  27.405  0.00  0.00    +0.114 HD
ENDBRANCH  24  26
BRANCH  24  28
ATOM     28  O   UNL     1       5.909   2.527  24.630  0.00  0.00    -0.200 OA
BRANCH  28  29
ATOM     29  P   UNL     1       6.934   2.426  23.240  0.00  0.00    +0.491 P 
ATOM     30  O   UNL     1       6.063   3.457  22.514  0.00  0.00    -0.226 OA
BRANCH  29  31
ATOM     31  O   UNL     1       6.244   0.995  22.848  0.00  0.00    -0.302 OA
ATOM     32  H   UNL     1       6.867   0.504  22.278  0.00  0.00    +0.222 HD
ENDBRANCH  29  31
BRANCH  29  33
ATOM     33  O   UNL     1       7.961   2.325  21.851  0.00  0.00    -0.186 OA
BRANCH  33  34
ATOM     34  P   UNL     1       9.166   1.112  22.111  0.00  0.00    +0.481 P 
ATOM     35  O   UNL     1      10.245   0.026  22.344  0.00  0.00    -0.227 OA
BRANCH  34  36
ATOM     36  O   UNL     1       9.286   1.745  23.618  0.00  0.00    -0.302 OA
ATOM     37  H   UNL     1       8.967   2.664  23.646  0.00  0.00    +0.222 HD
ENDBRANCH  34  36
BRANCH  34  38
ATOM     38  O   UNL     1      10.241   2.145  21.429  0.00  0.00    -0.302 OA
ATOM     39  H   UNL     1      10.040   2.102  20.468  0.00  0.00    +0.222 HD
ENDBRANCH  34  38
ENDBRANCH  33  34
ENDBRANCH  29  33
ENDBRANCH  28  29
ENDBRANCH  24  28
ENDBRANCH  23  24
ENDBRANCH  22  23
ENDBRANCH   4  22
TORSDOF 14
ENDMDL
MODEL 6
REMARK VINA RESULT:      -6.4      2.918      4.302
REMARK  Name = 
REMARK  14 active torsions:
REMARK  status: ('A' for Active; 'I' for Inactive)
REMARK    1  A    between atoms: N_10  and  C_11
REMARK    2  A    between atoms: C_14  and  C_16
REMARK    3  A    between atoms: C_16  and  O_17
REMARK    4  A    between atoms: O_17  and  P_18
REMARK    5  A    between atoms: P_18  and  S_19
REMARK    6  A    between atoms: P_18  and  O_21
REMARK    7  A    between atoms: O_21  and  P_22
REMARK    8  A    between atoms: P_22  and  O_23
REMARK    9  A    between atoms: P_22  and  O_25
REMARK   10  A    between atoms: O_25  and  P_26
REMARK   11  A    between atoms: P_26  and  O_27
REMARK   12  A    between atoms: P_26  and  O_28
REMARK   13  A    between atoms: C_30  and  O_32
REMARK   14  A    between atoms: C_33  and  O_35
REMARK                            x       y       z     vdW  Elec       q    Type
REMARK                         _______ _______ _______ _____ _____    ______ ____
ROOT
ATOM      1  C   UNL     1       9.244   0.373  22.086  0.00  0.00    +0.253 C 
ATOM      2  C   UNL     1      10.150  -0.745  22.629  0.00  0.00    +0.195 C 
ATOM      3  C   UNL     1       9.287  -1.489  23.648  0.00  0.00    +0.178 C 
ATOM      4  C   UNL     1       7.892  -0.887  23.468  0.00  0.00    +0.178 C 
ATOM      5  O   UNL     1       7.908  -0.193  22.208  0.00  0.00    -0.346 OA
ENDROOT
BRANCH   1  13
ATOM      6  N   UNL     1       8.341   5.937  24.332  0.00  0.00    -0.341 N 
ATOM      7  H   UNL     1       8.966   5.703  25.094  0.00  0.00    +0.144 HD
ATOM      8  H   UNL     1       7.532   6.506  24.546  0.00  0.00    +0.144 HD
ATOM      9  C   UNL     1       8.005   4.841  23.547  0.00  0.00    +0.147 A 
ATOM     10  C   UNL     1       8.782   3.671  23.479  0.00  0.00    +0.147 A 
ATOM     11  N   UNL     1       9.944   3.294  24.111  0.00  0.00    -0.231 NA
ATOM     12  C   UNL     1      10.189   2.080  23.662  0.00  0.00    +0.203 A 
ATOM     13  N   UNL     1       9.258   1.669  22.736  0.00  0.00    -0.286 N 
ATOM     14  C   UNL     1       8.318   2.659  22.652  0.00  0.00    +0.167 A 
ATOM     15  N   UNL     1       7.188   2.667  21.930  0.00  0.00    -0.216 NA
ATOM     16  C   UNL     1       6.529   3.833  22.066  0.00  0.00    +0.225 A 
ATOM     17  N   UNL     1       6.862   4.901  22.826  0.00  0.00    -0.219 NA
ENDBRANCH   1  13
BRANCH   2  18
ATOM     18  O   UNL     1      10.489  -1.655  21.557  0.00  0.00    -0.385 OA
ATOM     19  H   UNL     1       9.840  -2.382  21.551  0.00  0.00    +0.210 HD
ENDBRANCH   2  18
BRANCH   3  20
ATOM     20  O   UNL     1       9.762  -1.274  24.974  0.00  0.00    -0.386 OA
ATOM     21  H   UNL     1       9.187  -1.777  25.578  0.00  0.00    +0.210 HD
ENDBRANCH   3  20
BRANCH   4  22
ATOM     22  C   UNL     1       6.778  -1.926  23.491  0.00  0.00    +0.205 C 
BRANCH  22  23
ATOM     23  O   UNL     1       7.210  -3.105  22.830  0.00  0.00    -0.297 OA
BRANCH  23  24
ATOM     24  P   UNL     1       6.799  -4.518  23.508  0.00  0.00    +0.397 P 
ATOM     25  O   UNL     1       5.479  -4.434  24.210  0.00  0.00    -0.246 OA
BRANCH  24  26
ATOM     26  S   UNL     1       6.761  -5.982  22.034  0.00  0.00    -0.058 S 
ATOM     27  H   UNL     1       6.375  -6.965  22.855  0.00  0.00    +0.114 HD
ENDBRANCH  24  26
BRANCH  24  28
ATOM     28  O   UNL     1       8.016  -4.762  24.532  0.00  0.00    -0.200 OA
BRANCH  28  29
ATOM     29  P   UNL     1       7.517  -4.712  26.188  0.00  0.00    +0.491 P 
ATOM     30  O   UNL     1       8.194  -3.347  26.358  0.00  0.00    -0.226 OA
BRANCH  29  31
ATOM     31  O   UNL     1       8.701  -5.777  26.564  0.00  0.00    -0.302 OA
ATOM     32  H   UNL     1       8.417  -6.663  26.266  0.00  0.00    +0.222 HD
ENDBRANCH  29  31
BRANCH  29  33
ATOM     33  O   UNL     1       7.017  -4.663  27.843  0.00  0.00    -0.186 OA
BRANCH  33  34
ATOM     34  P   UNL     1       5.872  -5.925  28.137  0.00  0.00    +0.481 P 
ATOM     35  O   UNL     1       4.846  -7.056  28.401  0.00  0.00    -0.227 OA
BRANCH  34  36
ATOM     36  O   UNL     1       7.159  -6.783  28.681  0.00  0.00    -0.302 OA
ATOM     37  H   UNL     1       7.922  -6.700  28.083  0.00  0.00    +0.222 HD
ENDBRANCH  34  36
BRANCH  34  38
ATOM     38  O   UNL     1       6.059  -6.354  26.566  0.00  0.00    -0.302 OA
ATOM     39  H   UNL     1       5.220  -6.077  26.139  0.00  0.00    +0.222 HD
ENDBRANCH  34  38
ENDBRANCH  33  34
ENDBRANCH  29  33
ENDBRANCH  28  29
ENDBRANCH  24  28
ENDBRANCH  23  24
ENDBRANCH  22  23
ENDBRANCH   4  22
TORSDOF 14
ENDMDL
MODEL 7
REMARK VINA RESULT:      -6.4      1.722      3.131
REMARK  Name = 
REMARK  14 active torsions:
REMARK  status: ('A' for Active; 'I' for Inactive)
REMARK    1  A    between atoms: N_10  and  C_11
REMARK    2  A    between atoms: C_14  and  C_16
REMARK    3  A    between atoms: C_16  and  O_17
REMARK    4  A    between atoms: O_17  and  P_18
REMARK    5  A    between atoms: P_18  and  S_19
REMARK    6  A    between atoms: P_18  and  O_21
REMARK    7  A    between atoms: O_21  and  P_22
REMARK    8  A    between atoms: P_22  and  O_23
REMARK    9  A    between atoms: P_22  and  O_25
REMARK   10  A    between atoms: O_25  and  P_26
REMARK   11  A    between atoms: P_26  and  O_27
REMARK   12  A    between atoms: P_26  and  O_28
REMARK   13  A    between atoms: C_30  and  O_32
REMARK   14  A    between atoms: C_33  and  O_35
REMARK                            x       y       z     vdW  Elec       q    Type
REMARK                         _______ _______ _______ _____ _____    ______ ____
ROOT
ATOM      1  C   UNL     1       7.768  -2.130  23.714  0.00  0.00    +0.253 C 
ATOM      2  C   UNL     1       8.817  -2.832  24.590  0.00  0.00    +0.195 C 
ATOM      3  C   UNL     1       8.262  -2.747  26.012  0.00  0.00    +0.178 C 
ATOM      4  C   UNL     1       6.846  -2.196  25.829  0.00  0.00    +0.178 C 
ATOM      5  O   UNL     1       6.524  -2.359  24.436  0.00  0.00    -0.346 OA
ENDROOT
BRANCH   1  13
ATOM      6  N   UNL     1       9.327   3.694  23.019  0.00  0.00    -0.341 N 
ATOM      7  H   UNL     1       8.613   3.773  22.304  0.00  0.00    +0.144 HD
ATOM      8  H   UNL     1      10.193   4.196  22.875  0.00  0.00    +0.144 HD
ATOM      9  C   UNL     1       9.553   2.382  23.419  0.00  0.00    +0.147 A 
ATOM     10  C   UNL     1       8.615   1.349  23.252  0.00  0.00    +0.147 A 
ATOM     11  N   UNL     1       7.361   1.321  22.687  0.00  0.00    -0.231 NA
ATOM     12  C   UNL     1       6.970   0.069  22.807  0.00  0.00    +0.203 A 
ATOM     13  N   UNL     1       7.899  -0.708  23.458  0.00  0.00    -0.286 N 
ATOM     14  C   UNL     1       8.984   0.090  23.700  0.00  0.00    +0.167 A 
ATOM     15  N   UNL     1      10.158  -0.254  24.251  0.00  0.00    -0.216 NA
ATOM     16  C   UNL     1      10.975   0.810  24.366  0.00  0.00    +0.225 A 
ATOM     17  N   UNL     1      10.747   2.086  23.981  0.00  0.00    -0.219 NA
ENDBRANCH   1  13
BRANCH   2  18
ATOM     18  O   UNL     1       8.909  -4.225  24.212  0.00  0.00    -0.385 OA
ATOM     19  H   UNL     1       8.273  -4.393  23.493  0.00  0.00    +0.210 HD
ENDBRANCH   2  18
BRANCH   3  20
ATOM     20  O   UNL     1       9.045  -1.868  26.814  0.00  0.00    -0.386 OA
ATOM     21  H   UNL     1       9.865  -2.338  27.052  0.00  0.00    +0.210 HD
ENDBRANCH   3  20
BRANCH   4  22
ATOM     22  C   UNL     1       5.809  -2.890  26.701  0.00  0.00    +0.205 C 
BRANCH  22  23
ATOM     23  O   UNL     1       5.280  -4.013  26.014  0.00  0.00    -0.297 OA
BRANCH  23  24
ATOM     24  P   UNL     1       5.298  -5.430  26.799  0.00  0.00    +0.397 P 
ATOM     25  O   UNL     1       6.647  -6.077  26.744  0.00  0.00    -0.246 OA
BRANCH  24  26
ATOM     26  S   UNL     1       4.707  -5.114  28.765  0.00  0.00    -0.058 S 
ATOM     27  H   UNL     1       4.653  -3.781  28.658  0.00  0.00    +0.114 HD
ENDBRANCH  24  26
BRANCH  24  28
ATOM     28  O   UNL     1       4.189  -6.271  25.991  0.00  0.00    -0.200 OA
BRANCH  28  29
ATOM     29  P   UNL     1       4.254  -5.996  24.284  0.00  0.00    +0.491 P 
ATOM     30  O   UNL     1       2.744  -5.733  24.262  0.00  0.00    -0.226 OA
BRANCH  29  31
ATOM     31  O   UNL     1       4.365  -7.610  24.040  0.00  0.00    -0.302 OA
ATOM     32  H   UNL     1       4.580  -7.760  23.099  0.00  0.00    +0.222 HD
ENDBRANCH  29  31
BRANCH  29  33
ATOM     33  O   UNL     1       4.320  -5.721  22.577  0.00  0.00    -0.186 OA
BRANCH  33  34
ATOM     34  P   UNL     1       5.935  -5.301  22.123  0.00  0.00    +0.481 P 
ATOM     35  O   UNL     1       7.381  -4.926  21.716  0.00  0.00    -0.227 OA
BRANCH  34  36
ATOM     36  O   UNL     1       6.149  -6.912  21.906  0.00  0.00    -0.302 OA
ATOM     37  H   UNL     1       6.905  -7.096  21.321  0.00  0.00    +0.222 HD
ENDBRANCH  34  36
BRANCH  34  38
ATOM     38  O   UNL     1       6.304  -5.315  23.720  0.00  0.00    -0.302 OA
ATOM     39  H   UNL     1       6.808  -6.148  23.844  0.00  0.00    +0.222 HD
ENDBRANCH  34  38
ENDBRANCH  33  34
ENDBRANCH  29  33
ENDBRANCH  28  29
ENDBRANCH  24  28
ENDBRANCH  23  24
ENDBRANCH  22  23
ENDBRANCH   4  22
TORSDOF 14
ENDMDL
MODEL 8
REMARK VINA RESULT:      -6.3      3.279      4.649
REMARK  Name = 
REMARK  14 active torsions:
REMARK  status: ('A' for Active; 'I' for Inactive)
REMARK    1  A    between atoms: N_10  and  C_11
REMARK    2  A    between atoms: C_14  and  C_16
REMARK    3  A    between atoms: C_16  and  O_17
REMARK    4  A    between atoms: O_17  and  P_18
REMARK    5  A    between atoms: P_18  and  S_19
REMARK    6  A    between atoms: P_18  and  O_21
REMARK    7  A    between atoms: O_21  and  P_22
REMARK    8  A    between atoms: P_22  and  O_23
REMARK    9  A    between atoms: P_22  and  O_25
REMARK   10  A    between atoms: O_25  and  P_26
REMARK   11  A    between atoms: P_26  and  O_27
REMARK   12  A    between atoms: P_26  and  O_28
REMARK   13  A    between atoms: C_30  and  O_32
REMARK   14  A    between atoms: C_33  and  O_35
REMARK                            x       y       z     vdW  Elec       q    Type
REMARK                         _______ _______ _______ _____ _____    ______ ____
ROOT
ATOM      1  C   UNL     1       8.829   1.061  21.997  0.00  0.00    +0.253 C 
ATOM      2  C   UNL     1       9.672  -0.202  22.238  0.00  0.00    +0.195 C 
ATOM      3  C   UNL     1       9.070  -0.842  23.489  0.00  0.00    +0.178 C 
ATOM      4  C   UNL     1       7.803  -0.027  23.755  0.00  0.00    +0.178 C 
ATOM      5  O   UNL     1       7.528   0.703  22.546  0.00  0.00    -0.346 OA
ENDROOT
BRANCH   1  13
ATOM      6  N   UNL     1       9.610   6.655  24.216  0.00  0.00    -0.341 N 
ATOM      7  H   UNL     1      10.319   6.282  24.837  0.00  0.00    +0.144 HD
ATOM      8  H   UNL     1       9.002   7.378  24.579  0.00  0.00    +0.144 HD
ATOM      9  C   UNL     1       8.893   5.667  23.552  0.00  0.00    +0.147 A 
ATOM     10  C   UNL     1       9.374   4.360  23.358  0.00  0.00    +0.147 A 
ATOM     11  N   UNL     1      10.538   3.736  23.742  0.00  0.00    -0.231 NA
ATOM     12  C   UNL     1      10.422   2.505  23.288  0.00  0.00    +0.203 A 
ATOM     13  N   UNL     1       9.252   2.315  22.591  0.00  0.00    -0.286 N 
ATOM     14  C   UNL     1       8.544   3.483  22.676  0.00  0.00    +0.167 A 
ATOM     15  N   UNL     1       7.314   3.741  22.208  0.00  0.00    -0.216 NA
ATOM     16  C   UNL     1       6.959   5.018  22.445  0.00  0.00    +0.225 A 
ATOM     17  N   UNL     1       7.662   5.978  23.087  0.00  0.00    -0.219 NA
ENDBRANCH   1  13
BRANCH   2  18
ATOM     18  O   UNL     1       9.506  -1.112  21.126  0.00  0.00    -0.385 OA
ATOM     19  H   UNL     1       9.051  -1.912  21.446  0.00  0.00    +0.210 HD
ENDBRANCH   2  18
BRANCH   3  20
ATOM     20  O   UNL     1       9.969  -0.752  24.591  0.00  0.00    -0.386 OA
ATOM     21  H   UNL     1      10.841  -0.495  24.240  0.00  0.00    +0.210 HD
ENDBRANCH   3  20
BRANCH   4  22
ATOM     22  C   UNL     1       6.605  -0.883  24.147  0.00  0.00    +0.205 C 
BRANCH  22  23
ATOM     23  O   UNL     1       7.055  -2.109  24.701  0.00  0.00    -0.297 OA
BRANCH  23  24
ATOM     24  P   UNL     1       7.102  -2.211  26.317  0.00  0.00    +0.397 P 
ATOM     25  O   UNL     1       8.192  -1.361  26.894  0.00  0.00    -0.246 OA
BRANCH  24  26
ATOM     26  S   UNL     1       5.250  -1.657  27.078  0.00  0.00    -0.058 S 
ATOM     27  H   UNL     1       4.809  -1.122  25.933  0.00  0.00    +0.114 HD
ENDBRANCH  24  26
BRANCH  24  28
ATOM     28  O   UNL     1       7.373  -3.781  26.543  0.00  0.00    -0.200 OA
BRANCH  28  29
ATOM     29  P   UNL     1       7.830  -4.597  25.088  0.00  0.00    +0.491 P 
ATOM     30  O   UNL     1       8.158  -5.861  25.891  0.00  0.00    -0.226 OA
BRANCH  29  31
ATOM     31  O   UNL     1       9.241  -3.770  25.079  0.00  0.00    -0.302 OA
ATOM     32  H   UNL     1       9.926  -4.344  24.685  0.00  0.00    +0.222 HD
ENDBRANCH  29  31
BRANCH  29  33
ATOM     33  O   UNL     1       8.285  -5.413  23.631  0.00  0.00    -0.186 OA
BRANCH  33  34
ATOM     34  P   UNL     1       7.062  -5.177  22.432  0.00  0.00    +0.481 P 
ATOM     35  O   UNL     1       5.966  -4.965  21.357  0.00  0.00    -0.227 OA
BRANCH  34  36
ATOM     36  O   UNL     1       7.716  -3.685  22.250  0.00  0.00    -0.302 OA
ATOM     37  H   UNL     1       7.960  -3.512  21.324  0.00  0.00    +0.222 HD
ENDBRANCH  34  36
BRANCH  34  38
ATOM     38  O   UNL     1       6.055  -4.751  23.654  0.00  0.00    -0.302 OA
ATOM     39  H   UNL     1       6.619  -4.217  24.255  0.00  0.00    +0.222 HD
ENDBRANCH  34  38
ENDBRANCH  33  34
ENDBRANCH  29  33
ENDBRANCH  28  29
ENDBRANCH  24  28
ENDBRANCH  23  24
ENDBRANCH  22  23
ENDBRANCH   4  22
TORSDOF 14
ENDMDL
MODEL 9
REMARK VINA RESULT:      -6.3      5.472      8.118
REMARK  Name = 
REMARK  14 active torsions:
REMARK  status: ('A' for Active; 'I' for Inactive)
REMARK    1  A    between atoms: N_10  and  C_11
REMARK    2  A    between atoms: C_14  and  C_16
REMARK    3  A    between atoms: C_16  and  O_17
REMARK    4  A    between atoms: O_17  and  P_18
REMARK    5  A    between atoms: P_18  and  S_19
REMARK    6  A    between atoms: P_18  and  O_21
REMARK    7  A    between atoms: O_21  and  P_22
REMARK    8  A    between atoms: P_22  and  O_23
REMARK    9  A    between atoms: P_22  and  O_25
REMARK   10  A    between atoms: O_25  and  P_26
REMARK   11  A    between atoms: P_26  and  O_27
REMARK   12  A    between atoms: P_26  and  O_28
REMARK   13  A    between atoms: C_30  and  O_32
REMARK   14  A    between atoms: C_33  and  O_35
REMARK                            x       y       z     vdW  Elec       q    Type
REMARK                         _______ _______ _______ _____ _____    ______ ____
ROOT
ATOM      1  C   UNL     1       8.373  -5.116  26.208  0.00  0.00    +0.253 C 
ATOM      2  C   UNL     1       8.955  -4.745  24.834  0.00  0.00    +0.195 C 
ATOM      3  C   UNL     1       8.659  -3.254  24.673  0.00  0.00    +0.178 C 
ATOM      4  C   UNL     1       8.122  -2.828  26.041  0.00  0.00    +0.178 C 
ATOM      5  O   UNL     1       8.480  -3.875  26.961  0.00  0.00    -0.346 OA
ENDROOT
BRANCH   1  13
ATOM      6  N   UNL     1       2.843  -7.187  27.608  0.00  0.00    -0.341 N 
ATOM      7  H   UNL     1       2.491  -6.736  26.771  0.00  0.00    +0.144 HD
ATOM      8  H   UNL     1       2.256  -7.173  28.431  0.00  0.00    +0.144 HD
ATOM      9  C   UNL     1       4.154  -6.833  27.906  0.00  0.00    +0.147 A 
ATOM     10  C   UNL     1       5.055  -6.327  26.953  0.00  0.00    +0.147 A 
ATOM     11  N   UNL     1       4.920  -6.039  25.614  0.00  0.00    -0.231 NA
ATOM     12  C   UNL     1       6.100  -5.577  25.253  0.00  0.00    +0.203 A 
ATOM     13  N   UNL     1       7.005  -5.590  26.289  0.00  0.00    -0.286 N 
ATOM     14  C   UNL     1       6.330  -6.017  27.400  0.00  0.00    +0.167 A 
ATOM     15  N   UNL     1       6.787  -6.120  28.657  0.00  0.00    -0.216 NA
ATOM     16  C   UNL     1       5.845  -6.617  29.481  0.00  0.00    +0.225 A 
ATOM     17  N   UNL     1       4.573  -6.966  29.185  0.00  0.00    -0.219 NA
ENDBRANCH   1  13
BRANCH   2  18
ATOM     18  O   UNL     1      10.389  -4.933  24.850  0.00  0.00    -0.385 OA
ATOM     19  H   UNL     1      10.806  -4.112  25.167  0.00  0.00    +0.210 HD
ENDBRANCH   2  18
BRANCH   3  20
ATOM     20  O   UNL     1       7.684  -3.034  23.657  0.00  0.00    -0.386 OA
ATOM     21  H   UNL     1       7.862  -2.161  23.262  0.00  0.00    +0.210 HD
ENDBRANCH   3  20
BRANCH   4  22
ATOM     22  C   UNL     1       8.671  -1.489  26.515  0.00  0.00    +0.205 C 
BRANCH  22  23
ATOM     23  O   UNL     1       8.419  -0.494  25.535  0.00  0.00    -0.297 OA
BRANCH  23  24
ATOM     24  P   UNL     1       7.259   0.587  25.868  0.00  0.00    +0.397 P 
ATOM     25  O   UNL     1       5.957   0.219  25.227  0.00  0.00    -0.246 OA
BRANCH  24  26
ATOM     26  S   UNL     1       7.053   0.734  27.930  0.00  0.00    -0.058 S 
ATOM     27  H   UNL     1       5.716   0.692  27.918  0.00  0.00    +0.114 HD
ENDBRANCH  24  26
BRANCH  24  28
ATOM     28  O   UNL     1       7.878   1.938  25.252  0.00  0.00    -0.200 OA
BRANCH  28  29
ATOM     29  P   UNL     1       8.684   1.677  23.743  0.00  0.00    +0.491 P 
ATOM     30  O   UNL     1       9.814   2.619  24.176  0.00  0.00    -0.226 OA
BRANCH  29  31
ATOM     31  O   UNL     1       7.613   2.673  23.011  0.00  0.00    -0.302 OA
ATOM     32  H   UNL     1       7.579   3.508  23.519  0.00  0.00    +0.222 HD
ENDBRANCH  29  31
BRANCH  29  33
ATOM     33  O   UNL     1       9.490   1.415  22.235  0.00  0.00    -0.186 OA
BRANCH  33  34
ATOM     34  P   UNL     1       9.649  -0.284  21.954  0.00  0.00    +0.481 P 
ATOM     35  O   UNL     1       9.792  -1.806  21.702  0.00  0.00    -0.227 OA
BRANCH  34  36
ATOM     36  O   UNL     1       8.115  -0.386  22.523  0.00  0.00    -0.302 OA
ATOM     37  H   UNL     1       7.906  -1.288  22.824  0.00  0.00    +0.222 HD
ENDBRANCH  34  36
BRANCH  34  38
ATOM     38  O   UNL     1      10.362  -0.381  23.427  0.00  0.00    -0.302 OA
ATOM     39  H   UNL     1       9.669  -0.072  24.051  0.00  0.00    +0.222 HD
ENDBRANCH  34  38
ENDBRANCH  33  34
ENDBRANCH  29  33
ENDBRANCH  28  29
ENDBRANCH  24  28
ENDBRANCH  23  24
ENDBRANCH  22  23
ENDBRANCH   4  22
TORSDOF 14
ENDMDL
