MODEL 1
REMARK VINA RESULT:      -6.9      0.000      0.000
REMARK  Name = 
REMARK  6 active torsions:
REMARK  status: ('A' for Active; 'I' for Inactive)
REMARK    1  A    between atoms: C_5  and  O_6
REMARK    2  A    between atoms: O_6  and  C_7
REMARK    3  A    between atoms: C_7  and  C_8
REMARK    4  A    between atoms: N_10  and  C_11
REMARK    5  A    between atoms: C_17  and  C_19
REMARK    6  A    between atoms: C_19  and  C_21
REMARK                            x       y       z     vdW  Elec       q    Type
REMARK                         _______ _______ _______ _____ _____    ______ ____
ROOT
ATOM      1 CL   UNL     1       6.052  -5.986  21.018  0.00  0.00    -0.084 Cl
ATOM      2  C   UNL     1       6.251  -4.775  22.223  0.00  0.00    +0.042 A 
ATOM      3  C   UNL     1       7.518  -4.247  22.467  0.00  0.00    +0.035 A 
ATOM      4  C   UNL     1       7.683  -3.222  23.415  0.00  0.00    +0.065 A 
ATOM      5  C   UNL     1       6.575  -2.785  24.171  0.00  0.00    +0.132 A 
ATOM      6  C   UNL     1       5.314  -3.346  23.923  0.00  0.00    +0.048 A 
ATOM      7  C   UNL     1       5.153  -4.329  22.940  0.00  0.00    +0.023 A 
ENDROOT
BRANCH   4   8
ATOM      8  C   UNL     1       9.044  -2.632  23.636  0.00  0.00    +0.197 C 
ATOM      9  O   UNL     1       9.919  -3.296  24.187  0.00  0.00    -0.287 OA
BRANCH   8  10
ATOM     10  C   UNL     1       9.410  -1.262  23.164  0.00  0.00    +0.022 A 
ATOM     11  C   UNL     1       9.044  -0.753  21.912  0.00  0.00    +0.012 A 
ATOM     12  C   UNL     1       9.478   0.518  21.517  0.00  0.00    +0.001 A 
ATOM     13  C   UNL     1      10.243   1.299  22.384  0.00  0.00    +0.000 A 
ATOM     14  C   UNL     1      10.563   0.821  23.652  0.00  0.00    +0.001 A 
ATOM     15  C   UNL     1      10.146  -0.452  24.041  0.00  0.00    +0.012 A 
ENDBRANCH   8  10
ENDBRANCH   4   8
BRANCH   5  16
ATOM     16  O   UNL     1       6.801  -1.860  25.156  0.00  0.00    -0.482 OA
BRANCH  16  17
ATOM     17  C   UNL     1       5.712  -1.091  25.631  0.00  0.00    +0.324 C 
BRANCH  17  18
ATOM     18  C   UNL     1       5.648   0.344  25.102  0.00  0.00    +0.255 C 
ATOM     19  N   UNL     1       6.811   0.766  24.475  0.00  0.00    -0.283 N 
ATOM     20  H   UNL     1       7.568   0.090  24.418  0.00  0.00    +0.155 HD
ATOM     21  O   UNL     1       4.612   0.990  25.233  0.00  0.00    -0.272 OA
BRANCH  19  22
ATOM     22  C   UNL     1       7.045   2.040  23.908  0.00  0.00    +0.033 A 
ATOM     23  C   UNL     1       7.767   2.976  24.658  0.00  0.00    +0.023 A 
ATOM     24  C   UNL     1       8.034   4.252  24.143  0.00  0.00    +0.002 A 
ATOM     25  C   UNL     1       7.570   4.608  22.879  0.00  0.00    +0.000 A 
ATOM     26  C   UNL     1       6.841   3.688  22.130  0.00  0.00    +0.002 A 
ATOM     27  C   UNL     1       6.585   2.414  22.643  0.00  0.00    +0.023 A 
ENDBRANCH  19  22
ENDBRANCH  17  18
ENDBRANCH  16  17
ENDBRANCH   5  16
TORSDOF 6
ENDMDL
MODEL 2
REMARK VINA RESULT:      -6.5      2.569      4.092
REMARK  Name = 
REMARK  6 active torsions:
REMARK  status: ('A' for Active; 'I' for Inactive)
REMARK    1  A    between atoms: C_5  and  O_6
REMARK    2  A    between atoms: O_6  and  C_7
REMARK    3  A    between atoms: C_7  and  C_8
REMARK    4  A    between atoms: N_10  and  C_11
REMARK    5  A    between atoms: C_17  and  C_19
REMARK    6  A    between atoms: C_19  and  C_21
REMARK                            x       y       z     vdW  Elec       q    Type
REMARK                         _______ _______ _______ _____ _____    ______ ____
ROOT
ATOM      1 CL   UNL     1       3.315  -7.547  25.341  0.00  0.00    -0.084 Cl
ATOM      2  C   UNL     1       4.622  -6.616  24.721  0.00  0.00    +0.042 A 
ATOM      3  C   UNL     1       5.471  -5.947  25.602  0.00  0.00    +0.035 A 
ATOM      4  C   UNL     1       6.570  -5.224  25.108  0.00  0.00    +0.065 A 
ATOM      5  C   UNL     1       6.766  -5.115  23.715  0.00  0.00    +0.132 A 
ATOM      6  C   UNL     1       5.886  -5.778  22.847  0.00  0.00    +0.048 A 
ATOM      7  C   UNL     1       4.826  -6.539  23.353  0.00  0.00    +0.023 A 
ENDROOT
BRANCH   4   8
ATOM      8  C   UNL     1       7.501  -4.546  26.069  0.00  0.00    +0.197 C 
ATOM      9  O   UNL     1       8.388  -5.192  26.624  0.00  0.00    -0.287 OA
BRANCH   8  10
ATOM     10  C   UNL     1       7.431  -3.081  26.354  0.00  0.00    +0.022 A 
ATOM     11  C   UNL     1       8.559  -2.258  26.452  0.00  0.00    +0.012 A 
ATOM     12  C   UNL     1       8.414  -0.906  26.784  0.00  0.00    +0.001 A 
ATOM     13  C   UNL     1       7.144  -0.363  26.981  0.00  0.00    +0.000 A 
ATOM     14  C   UNL     1       6.014  -1.164  26.830  0.00  0.00    +0.001 A 
ATOM     15  C   UNL     1       6.157  -2.516  26.516  0.00  0.00    +0.012 A 
ENDBRANCH   8  10
ENDBRANCH   4   8
BRANCH   5  16
ATOM     16  O   UNL     1       7.787  -4.314  23.276  0.00  0.00    -0.482 OA
BRANCH  16  17
ATOM     17  C   UNL     1       7.509  -3.332  22.295  0.00  0.00    +0.324 C 
BRANCH  17  18
ATOM     18  C   UNL     1       7.802  -1.890  22.716  0.00  0.00    +0.255 C 
ATOM     19  N   UNL     1       9.092  -1.470  22.429  0.00  0.00    -0.283 N 
ATOM     20  H   UNL     1       9.696  -2.142  21.964  0.00  0.00    +0.155 HD
ATOM     21  O   UNL     1       6.912  -1.218  23.231  0.00  0.00    -0.272 OA
BRANCH  19  22
ATOM     22  C   UNL     1       9.647  -0.202  22.716  0.00  0.00    +0.033 A 
ATOM     23  C   UNL     1      10.302  -0.027  23.941  0.00  0.00    +0.023 A 
ATOM     24  C   UNL     1      10.876   1.207  24.276  0.00  0.00    +0.002 A 
ATOM     25  C   UNL     1      10.787   2.282  23.395  0.00  0.00    +0.000 A 
ATOM     26  C   UNL     1      10.128   2.123  22.180  0.00  0.00    +0.002 A 
ATOM     27  C   UNL     1       9.564   0.888  21.845  0.00  0.00    +0.023 A 
ENDBRANCH  19  22
ENDBRANCH  17  18
ENDBRANCH  16  17
ENDBRANCH   5  16
TORSDOF 6
ENDMDL
MODEL 3
REMARK VINA RESULT:      -6.5      2.738      6.339
REMARK  Name = 
REMARK  6 active torsions:
REMARK  status: ('A' for Active; 'I' for Inactive)
REMARK    1  A    between atoms: C_5  and  O_6
REMARK    2  A    between atoms: O_6  and  C_7
REMARK    3  A    between atoms: C_7  and  C_8
REMARK    4  A    between atoms: N_10  and  C_11
REMARK    5  A    between atoms: C_17  and  C_19
REMARK    6  A    between atoms: C_19  and  C_21
REMARK                            x       y       z     vdW  Elec       q    Type
REMARK                         _______ _______ _______ _____ _____    ______ ____
ROOT
ATOM      1 CL   UNL     1      10.145   1.560  21.912  0.00  0.00    -0.084 Cl
ATOM      2  C   UNL     1       9.433   0.576  23.130  0.00  0.00    +0.042 A 
ATOM      3  C   UNL     1       9.443  -0.811  22.989  0.00  0.00    +0.035 A 
ATOM      4  C   UNL     1       8.908  -1.626  24.002  0.00  0.00    +0.065 A 
ATOM      5  C   UNL     1       8.294  -1.031  25.124  0.00  0.00    +0.132 A 
ATOM      6  C   UNL     1       8.276   0.367  25.234  0.00  0.00    +0.048 A 
ATOM      7  C   UNL     1       8.859   1.166  24.244  0.00  0.00    +0.023 A 
ENDROOT
BRANCH   4   8
ATOM      8  C   UNL     1       8.966  -3.117  23.859  0.00  0.00    +0.197 C 
ATOM      9  O   UNL     1       9.846  -3.756  24.432  0.00  0.00    -0.287 OA
BRANCH   8  10
ATOM     10  C   UNL     1       7.952  -3.886  23.073  0.00  0.00    +0.022 A 
ATOM     11  C   UNL     1       7.871  -5.284  23.076  0.00  0.00    +0.012 A 
ATOM     12  C   UNL     1       6.934  -5.933  22.264  0.00  0.00    +0.001 A 
ATOM     13  C   UNL     1       6.050  -5.191  21.480  0.00  0.00    +0.000 A 
ATOM     14  C   UNL     1       6.088  -3.799  21.516  0.00  0.00    +0.001 A 
ATOM     15  C   UNL     1       7.033  -3.150  22.310  0.00  0.00    +0.012 A 
ENDBRANCH   8  10
ENDBRANCH   4   8
BRANCH   5  16
ATOM     16  O   UNL     1       7.693  -1.860  26.035  0.00  0.00    -0.482 OA
BRANCH  16  17
ATOM     17  C   UNL     1       6.400  -1.530  26.507  0.00  0.00    +0.324 C 
BRANCH  17  18
ATOM     18  C   UNL     1       5.256  -2.346  25.899  0.00  0.00    +0.255 C 
ATOM     19  N   UNL     1       5.595  -3.659  25.607  0.00  0.00    -0.283 N 
ATOM     20  H   UNL     1       6.543  -3.946  25.834  0.00  0.00    +0.155 HD
ATOM     21  O   UNL     1       4.157  -1.822  25.742  0.00  0.00    -0.272 OA
BRANCH  19  22
ATOM     22  C   UNL     1       4.752  -4.635  25.027  0.00  0.00    +0.033 A 
ATOM     23  C   UNL     1       4.990  -5.981  25.332  0.00  0.00    +0.023 A 
ATOM     24  C   UNL     1       4.183  -6.990  24.790  0.00  0.00    +0.002 A 
ATOM     25  C   UNL     1       3.138  -6.664  23.928  0.00  0.00    +0.000 A 
ATOM     26  C   UNL     1       2.902  -5.331  23.609  0.00  0.00    +0.002 A 
ATOM     27  C   UNL     1       3.703  -4.326  24.158  0.00  0.00    +0.023 A 
ENDBRANCH  19  22
ENDBRANCH  17  18
ENDBRANCH  16  17
ENDBRANCH   5  16
TORSDOF 6
ENDMDL
MODEL 4
REMARK VINA RESULT:      -6.4      3.451      5.765
REMARK  Name = 
REMARK  6 active torsions:
REMARK  status: ('A' for Active; 'I' for Inactive)
REMARK    1  A    between atoms: C_5  and  O_6
REMARK    2  A    between atoms: O_6  and  C_7
REMARK    3  A    between atoms: C_7  and  C_8
REMARK    4  A    between atoms: N_10  and  C_11
REMARK    5  A    between atoms: C_17  and  C_19
REMARK    6  A    between atoms: C_19  and  C_21
REMARK                            x       y       z     vdW  Elec       q    Type
REMARK                         _______ _______ _______ _____ _____    ______ ____
ROOT
ATOM      1 CL   UNL     1       1.856  -4.632  28.650  0.00  0.00    -0.084 Cl
ATOM      2  C   UNL     1       3.410  -4.994  28.009  0.00  0.00    +0.042 A 
ATOM      3  C   UNL     1       3.520  -5.525  26.724  0.00  0.00    +0.035 A 
ATOM      4  C   UNL     1       4.787  -5.778  26.172  0.00  0.00    +0.065 A 
ATOM      5  C   UNL     1       5.944  -5.564  26.952  0.00  0.00    +0.132 A 
ATOM      6  C   UNL     1       5.808  -5.050  28.249  0.00  0.00    +0.048 A 
ATOM      7  C   UNL     1       4.543  -4.752  28.769  0.00  0.00    +0.023 A 
ENDROOT
BRANCH   4   8
ATOM      8  C   UNL     1       4.892  -6.308  24.773  0.00  0.00    +0.197 C 
ATOM      9  O   UNL     1       4.563  -7.467  24.529  0.00  0.00    -0.287 OA
BRANCH   8  10
ATOM     10  C   UNL     1       5.342  -5.460  23.627  0.00  0.00    +0.022 A 
ATOM     11  C   UNL     1       6.001  -5.969  22.502  0.00  0.00    +0.012 A 
ATOM     12  C   UNL     1       6.446  -5.102  21.498  0.00  0.00    +0.001 A 
ATOM     13  C   UNL     1       6.202  -3.731  21.594  0.00  0.00    +0.000 A 
ATOM     14  C   UNL     1       5.498  -3.225  22.684  0.00  0.00    +0.001 A 
ATOM     15  C   UNL     1       5.068  -4.086  23.695  0.00  0.00    +0.012 A 
ENDBRANCH   8  10
ENDBRANCH   4   8
BRANCH   5  16
ATOM     16  O   UNL     1       7.151  -5.923  26.412  0.00  0.00    -0.482 OA
BRANCH  16  17
ATOM     17  C   UNL     1       8.222  -5.000  26.466  0.00  0.00    +0.324 C 
BRANCH  17  18
ATOM     18  C   UNL     1       8.575  -4.334  25.133  0.00  0.00    +0.255 C 
ATOM     19  N   UNL     1       8.526  -2.948  25.166  0.00  0.00    -0.283 N 
ATOM     20  H   UNL     1       8.280  -2.522  26.055  0.00  0.00    +0.155 HD
ATOM     21  O   UNL     1       8.891  -5.032  24.174  0.00  0.00    -0.272 OA
BRANCH  19  22
ATOM     22  C   UNL     1       8.785  -2.072  24.086  0.00  0.00    +0.033 A 
ATOM     23  C   UNL     1       9.961  -2.259  23.349  0.00  0.00    +0.023 A 
ATOM     24  C   UNL     1      10.265  -1.424  22.266  0.00  0.00    +0.002 A 
ATOM     25  C   UNL     1       9.404  -0.386  21.918  0.00  0.00    +0.000 A 
ATOM     26  C   UNL     1       8.239  -0.185  22.651  0.00  0.00    +0.002 A 
ATOM     27  C   UNL     1       7.933  -1.025  23.726  0.00  0.00    +0.023 A 
ENDBRANCH  19  22
ENDBRANCH  17  18
ENDBRANCH  16  17
ENDBRANCH   5  16
TORSDOF 6
ENDMDL
MODEL 5
REMARK VINA RESULT:      -6.3      3.564      7.105
REMARK  Name = 
REMARK  6 active torsions:
REMARK  status: ('A' for Active; 'I' for Inactive)
REMARK    1  A    between atoms: C_5  and  O_6
REMARK    2  A    between atoms: O_6  and  C_7
REMARK    3  A    between atoms: C_7  and  C_8
REMARK    4  A    between atoms: N_10  and  C_11
REMARK    5  A    between atoms: C_17  and  C_19
REMARK    6  A    between atoms: C_19  and  C_21
REMARK                            x       y       z     vdW  Elec       q    Type
REMARK                         _______ _______ _______ _____ _____    ______ ____
ROOT
ATOM      1 CL   UNL     1      10.841   0.957  24.444  0.00  0.00    -0.084 Cl
ATOM      2  C   UNL     1       9.967  -0.390  23.826  0.00  0.00    +0.042 A 
ATOM      3  C   UNL     1       9.905  -1.570  24.566  0.00  0.00    +0.035 A 
ATOM      4  C   UNL     1       9.152  -2.659  24.093  0.00  0.00    +0.065 A 
ATOM      5  C   UNL     1       8.526  -2.579  22.832  0.00  0.00    +0.132 A 
ATOM      6  C   UNL     1       8.621  -1.390  22.095  0.00  0.00    +0.048 A 
ATOM      7  C   UNL     1       9.328  -0.294  22.600  0.00  0.00    +0.023 A 
ENDROOT
BRANCH   4   8
ATOM      8  C   UNL     1       9.057  -3.906  24.920  0.00  0.00    +0.197 C 
ATOM      9  O   UNL     1       9.904  -4.789  24.800  0.00  0.00    -0.287 OA
BRANCH   8  10
ATOM     10  C   UNL     1       7.984  -4.111  25.940  0.00  0.00    +0.022 A 
ATOM     11  C   UNL     1       7.817  -5.302  26.657  0.00  0.00    +0.012 A 
ATOM     12  C   UNL     1       6.749  -5.438  27.551  0.00  0.00    +0.001 A 
ATOM     13  C   UNL     1       5.868  -4.376  27.762  0.00  0.00    +0.000 A 
ATOM     14  C   UNL     1       6.062  -3.170  27.093  0.00  0.00    +0.001 A 
ATOM     15  C   UNL     1       7.116  -3.037  26.188  0.00  0.00    +0.012 A 
ENDBRANCH   8  10
ENDBRANCH   4   8
BRANCH   5  16
ATOM     16  O   UNL     1       7.892  -3.700  22.363  0.00  0.00    -0.482 OA
BRANCH  16  17
ATOM     17  C   UNL     1       6.578  -3.576  21.852  0.00  0.00    +0.324 C 
BRANCH  17  18
ATOM     18  C   UNL     1       5.575  -4.607  22.375  0.00  0.00    +0.255 C 
ATOM     19  N   UNL     1       5.279  -4.471  23.723  0.00  0.00    -0.283 N 
ATOM     20  H   UNL     1       5.737  -3.708  24.215  0.00  0.00    +0.155 HD
ATOM     21  O   UNL     1       5.097  -5.431  21.601  0.00  0.00    -0.272 OA
BRANCH  19  22
ATOM     22  C   UNL     1       4.405  -5.286  24.478  0.00  0.00    +0.033 A 
ATOM     23  C   UNL     1       3.234  -4.709  24.986  0.00  0.00    +0.023 A 
ATOM     24  C   UNL     1       2.329  -5.472  25.736  0.00  0.00    +0.002 A 
ATOM     25  C   UNL     1       2.592  -6.814  25.997  0.00  0.00    +0.000 A 
ATOM     26  C   UNL     1       3.758  -7.394  25.508  0.00  0.00    +0.002 A 
ATOM     27  C   UNL     1       4.655  -6.633  24.752  0.00  0.00    +0.023 A 
ENDBRANCH  19  22
ENDBRANCH  17  18
ENDBRANCH  16  17
ENDBRANCH   5  16
TORSDOF 6
ENDMDL
MODEL 6
REMARK VINA RESULT:      -6.2      3.250      5.673
REMARK  Name = 
REMARK  6 active torsions:
REMARK  status: ('A' for Active; 'I' for Inactive)
REMARK    1  A    between atoms: C_5  and  O_6
REMARK    2  A    between atoms: O_6  and  C_7
REMARK    3  A    between atoms: C_7  and  C_8
REMARK    4  A    between atoms: N_10  and  C_11
REMARK    5  A    between atoms: C_17  and  C_19
REMARK    6  A    between atoms: C_19  and  C_21
REMARK                            x       y       z     vdW  Elec       q    Type
REMARK                         _______ _______ _______ _____ _____    ______ ____
ROOT
ATOM      1 CL   UNL     1       2.517  -7.319  27.991  0.00  0.00    -0.084 Cl
ATOM      2  C   UNL     1       3.973  -6.431  27.771  0.00  0.00    +0.042 A 
ATOM      3  C   UNL     1       4.069  -5.509  26.729  0.00  0.00    +0.035 A 
ATOM      4  C   UNL     1       5.236  -4.743  26.571  0.00  0.00    +0.065 A 
ATOM      5  C   UNL     1       6.339  -4.966  27.423  0.00  0.00    +0.132 A 
ATOM      6  C   UNL     1       6.228  -5.914  28.450  0.00  0.00    +0.048 A 
ATOM      7  C   UNL     1       5.041  -6.633  28.631  0.00  0.00    +0.023 A 
ENDROOT
BRANCH   4   8
ATOM      8  C   UNL     1       5.308  -3.723  25.474  0.00  0.00    +0.197 C 
ATOM      9  O   UNL     1       5.132  -2.534  25.728  0.00  0.00    -0.287 OA
BRANCH   8  10
ATOM     10  C   UNL     1       5.639  -4.088  24.062  0.00  0.00    +0.022 A 
ATOM     11  C   UNL     1       5.387  -3.250  22.969  0.00  0.00    +0.012 A 
ATOM     12  C   UNL     1       5.669  -3.689  21.670  0.00  0.00    +0.001 A 
ATOM     13  C   UNL     1       6.238  -4.945  21.461  0.00  0.00    +0.000 A 
ATOM     14  C   UNL     1       6.543  -5.761  22.548  0.00  0.00    +0.001 A 
ATOM     15  C   UNL     1       6.247  -5.333  23.843  0.00  0.00    +0.012 A 
ENDBRANCH   8  10
ENDBRANCH   4   8
BRANCH   5  16
ATOM     16  O   UNL     1       7.493  -4.273  27.167  0.00  0.00    -0.482 OA
BRANCH  16  17
ATOM     17  C   UNL     1       8.581  -4.957  26.575  0.00  0.00    +0.324 C 
BRANCH  17  18
ATOM     18  C   UNL     1       9.269  -4.217  25.425  0.00  0.00    +0.255 C 
ATOM     19  N   UNL     1       8.772  -2.942  25.199  0.00  0.00    -0.283 N 
ATOM     20  H   UNL     1       8.027  -2.628  25.816  0.00  0.00    +0.155 HD
ATOM     21  O   UNL     1      10.191  -4.759  24.823  0.00  0.00    -0.272 OA
BRANCH  19  22
ATOM     22  C   UNL     1       9.200  -2.038  24.200  0.00  0.00    +0.033 A 
ATOM     23  C   UNL     1       8.860  -2.312  22.869  0.00  0.00    +0.023 A 
ATOM     24  C   UNL     1       9.253  -1.447  21.839  0.00  0.00    +0.002 A 
ATOM     25  C   UNL     1      10.001  -0.308  22.127  0.00  0.00    +0.000 A 
ATOM     26  C   UNL     1      10.353  -0.033  23.445  0.00  0.00    +0.002 A 
ATOM     27  C   UNL     1       9.952  -0.892  24.472  0.00  0.00    +0.023 A 
ENDBRANCH  19  22
ENDBRANCH  17  18
ENDBRANCH  16  17
ENDBRANCH   5  16
TORSDOF 6
ENDMDL
MODEL 7
REMARK VINA RESULT:      -6.0      2.770      4.490
REMARK  Name = 
REMARK  6 active torsions:
REMARK  status: ('A' for Active; 'I' for Inactive)
REMARK    1  A    between atoms: C_5  and  O_6
REMARK    2  A    between atoms: O_6  and  C_7
REMARK    3  A    between atoms: C_7  and  C_8
REMARK    4  A    between atoms: N_10  and  C_11
REMARK    5  A    between atoms: C_17  and  C_19
REMARK    6  A    between atoms: C_19  and  C_21
REMARK                            x       y       z     vdW  Elec       q    Type
REMARK                         _______ _______ _______ _____ _____    ______ ____
ROOT
ATOM      1 CL   UNL     1       2.109  -8.609  25.019  0.00  0.00    -0.084 Cl
ATOM      2  C   UNL     1       2.771  -7.067  24.645  0.00  0.00    +0.042 A 
ATOM      3  C   UNL     1       4.121  -6.957  24.313  0.00  0.00    +0.035 A 
ATOM      4  C   UNL     1       4.660  -5.709  23.958  0.00  0.00    +0.065 A 
ATOM      5  C   UNL     1       3.848  -4.556  24.014  0.00  0.00    +0.132 A 
ATOM      6  C   UNL     1       2.499  -4.687  24.372  0.00  0.00    +0.048 A 
ATOM      7  C   UNL     1       1.960  -5.943  24.672  0.00  0.00    +0.023 A 
ENDROOT
BRANCH   4   8
ATOM      8  C   UNL     1       6.103  -5.613  23.560  0.00  0.00    +0.197 C 
ATOM      9  O   UNL     1       6.435  -5.837  22.398  0.00  0.00    -0.287 OA
BRANCH   8  10
ATOM     10  C   UNL     1       7.173  -5.202  24.519  0.00  0.00    +0.022 A 
ATOM     11  C   UNL     1       8.382  -4.619  24.123  0.00  0.00    +0.012 A 
ATOM     12  C   UNL     1       9.362  -4.319  25.076  0.00  0.00    +0.001 A 
ATOM     13  C   UNL     1       9.123  -4.562  26.429  0.00  0.00    +0.000 A 
ATOM     14  C   UNL     1       7.899  -5.090  26.835  0.00  0.00    +0.001 A 
ATOM     15  C   UNL     1       6.928  -5.407  25.885  0.00  0.00    +0.012 A 
ENDBRANCH   8  10
ENDBRANCH   4   8
BRANCH   5  16
ATOM     16  O   UNL     1       4.441  -3.346  23.762  0.00  0.00    -0.482 OA
BRANCH  16  17
ATOM     17  C   UNL     1       4.803  -2.525  24.856  0.00  0.00    +0.324 C 
BRANCH  17  18
ATOM     18  C   UNL     1       5.989  -1.591  24.606  0.00  0.00    +0.255 C 
ATOM     19  N   UNL     1       6.325  -1.454  23.267  0.00  0.00    -0.283 N 
ATOM     20  H   UNL     1       5.753  -1.964  22.600  0.00  0.00    +0.155 HD
ATOM     21  O   UNL     1       6.526  -1.027  25.556  0.00  0.00    -0.272 OA
BRANCH  19  22
ATOM     22  C   UNL     1       7.381  -0.674  22.741  0.00  0.00    +0.033 A 
ATOM     23  C   UNL     1       8.550  -1.330  22.335  0.00  0.00    +0.023 A 
ATOM     24  C   UNL     1       9.626  -0.608  21.801  0.00  0.00    +0.002 A 
ATOM     25  C   UNL     1       9.548   0.778  21.681  0.00  0.00    +0.000 A 
ATOM     26  C   UNL     1       8.396   1.440  22.092  0.00  0.00    +0.002 A 
ATOM     27  C   UNL     1       7.321   0.716  22.616  0.00  0.00    +0.023 A 
ENDBRANCH  19  22
ENDBRANCH  17  18
ENDBRANCH  16  17
ENDBRANCH   5  16
TORSDOF 6
ENDMDL
MODEL 8
REMARK VINA RESULT:      -5.9      1.830      2.411
REMARK  Name = 
REMARK  6 active torsions:
REMARK  status: ('A' for Active; 'I' for Inactive)
REMARK    1  A    between atoms: C_5  and  O_6
REMARK    2  A    between atoms: O_6  and  C_7
REMARK    3  A    between atoms: C_7  and  C_8
REMARK    4  A    between atoms: N_10  and  C_11
REMARK    5  A    between atoms: C_17  and  C_19
REMARK    6  A    between atoms: C_19  and  C_21
REMARK                            x       y       z     vdW  Elec       q    Type
REMARK                         _______ _______ _______ _____ _____    ______ ____
ROOT
ATOM      1 CL   UNL     1       4.143  -6.824  23.882  0.00  0.00    -0.084 Cl
ATOM      2  C   UNL     1       4.911  -5.559  24.759  0.00  0.00    +0.042 A 
ATOM      3  C   UNL     1       6.254  -5.273  24.521  0.00  0.00    +0.035 A 
ATOM      4  C   UNL     1       6.878  -4.209  25.197  0.00  0.00    +0.065 A 
ATOM      5  C   UNL     1       6.159  -3.484  26.171  0.00  0.00    +0.132 A 
ATOM      6  C   UNL     1       4.815  -3.805  26.408  0.00  0.00    +0.048 A 
ATOM      7  C   UNL     1       4.190  -4.831  25.691  0.00  0.00    +0.023 A 
ENDROOT
BRANCH   4   8
ATOM      8  C   UNL     1       8.311  -3.883  24.899  0.00  0.00    +0.197 C 
ATOM      9  O   UNL     1       9.210  -4.441  25.525  0.00  0.00    -0.287 OA
BRANCH   8  10
ATOM     10  C   UNL     1       8.708  -2.927  23.821  0.00  0.00    +0.022 A 
ATOM     11  C   UNL     1       7.815  -2.422  22.869  0.00  0.00    +0.012 A 
ATOM     12  C   UNL     1       8.276  -1.579  21.852  0.00  0.00    +0.001 A 
ATOM     13  C   UNL     1       9.620  -1.205  21.805  0.00  0.00    +0.000 A 
ATOM     14  C   UNL     1      10.503  -1.660  22.782  0.00  0.00    +0.001 A 
ATOM     15  C   UNL     1      10.049  -2.515  23.786  0.00  0.00    +0.012 A 
ENDBRANCH   8  10
ENDBRANCH   4   8
BRANCH   5  16
ATOM     16  O   UNL     1       6.836  -2.526  26.879  0.00  0.00    -0.482 OA
BRANCH  16  17
ATOM     17  C   UNL     1       6.333  -1.203  26.887  0.00  0.00    +0.324 C 
BRANCH  17  18
ATOM     18  C   UNL     1       6.705  -0.357  25.668  0.00  0.00    +0.255 C 
ATOM     19  N   UNL     1       8.004   0.130  25.695  0.00  0.00    -0.283 N 
ATOM     20  H   UNL     1       8.570  -0.130  26.498  0.00  0.00    +0.155 HD
ATOM     21  O   UNL     1       5.882  -0.193  24.771  0.00  0.00    -0.272 OA
BRANCH  19  22
ATOM     22  C   UNL     1       8.615   0.949  24.718  0.00  0.00    +0.033 A 
ATOM     23  C   UNL     1      10.006   1.106  24.760  0.00  0.00    +0.023 A 
ATOM     24  C   UNL     1      10.665   1.901  23.814  0.00  0.00    +0.002 A 
ATOM     25  C   UNL     1       9.939   2.558  22.824  0.00  0.00    +0.000 A 
ATOM     26  C   UNL     1       8.555   2.419  22.780  0.00  0.00    +0.002 A 
ATOM     27  C   UNL     1       7.901   1.618  23.720  0.00  0.00    +0.023 A 
ENDBRANCH  19  22
ENDBRANCH  17  18
ENDBRANCH  16  17
ENDBRANCH   5  16
TORSDOF 6
ENDMDL
MODEL 9
REMARK VINA RESULT:      -5.9      3.112      6.433
REMARK  Name = 
REMARK  6 active torsions:
REMARK  status: ('A' for Active; 'I' for Inactive)
REMARK    1  A    between atoms: C_5  and  O_6
REMARK    2  A    between atoms: O_6  and  C_7
REMARK    3  A    between atoms: C_7  and  C_8
REMARK    4  A    between atoms: N_10  and  C_11
REMARK    5  A    between atoms: C_17  and  C_19
REMARK    6  A    between atoms: C_19  and  C_21
REMARK                            x       y       z     vdW  Elec       q    Type
REMARK                         _______ _______ _______ _____ _____    ______ ____
ROOT
ATOM      1 CL   UNL     1       5.918   1.907  27.557  0.00  0.00    -0.084 Cl
ATOM      2  C   UNL     1       7.136   1.274  26.521  0.00  0.00    +0.042 A 
ATOM      3  C   UNL     1       7.499   1.978  25.373  0.00  0.00    +0.035 A 
ATOM      4  C   UNL     1       8.528   1.494  24.547  0.00  0.00    +0.065 A 
ATOM      5  C   UNL     1       9.137   0.256  24.841  0.00  0.00    +0.132 A 
ATOM      6  C   UNL     1       8.740  -0.445  25.989  0.00  0.00    +0.048 A 
ATOM      7  C   UNL     1       7.751   0.073  26.834  0.00  0.00    +0.023 A 
ENDROOT
BRANCH   4   8
ATOM      8  C   UNL     1       8.940   2.284  23.340  0.00  0.00    +0.197 C 
ATOM      9  O   UNL     1       8.474   2.005  22.236  0.00  0.00    -0.287 OA
BRANCH   8  10
ATOM     10  C   UNL     1       9.872   3.449  23.424  0.00  0.00    +0.022 A 
ATOM     11  C   UNL     1      11.254   3.349  23.222  0.00  0.00    +0.012 A 
ATOM     12  C   UNL     1      12.069   4.475  23.380  0.00  0.00    +0.001 A 
ATOM     13  C   UNL     1      11.506   5.710  23.701  0.00  0.00    +0.000 A 
ATOM     14  C   UNL     1      10.126   5.828  23.848  0.00  0.00    +0.001 A 
ATOM     15  C   UNL     1       9.313   4.703  23.709  0.00  0.00    +0.012 A 
ENDBRANCH   8  10
ENDBRANCH   4   8
BRANCH   5  16
ATOM     16  O   UNL     1      10.060  -0.228  23.952  0.00  0.00    -0.482 OA
BRANCH  16  17
ATOM     17  C   UNL     1      10.146  -1.627  23.753  0.00  0.00    +0.324 C 
BRANCH  17  18
ATOM     18  C   UNL     1       8.957  -2.255  23.022  0.00  0.00    +0.255 C 
ATOM     19  N   UNL     1       8.334  -3.271  23.730  0.00  0.00    -0.283 N 
ATOM     20  H   UNL     1       8.711  -3.483  24.649  0.00  0.00    +0.155 HD
ATOM     21  O   UNL     1       8.628  -1.822  21.921  0.00  0.00    -0.272 OA
BRANCH  19  22
ATOM     22  C   UNL     1       7.227  -4.039  23.299  0.00  0.00    +0.033 A 
ATOM     23  C   UNL     1       7.475  -5.262  22.666  0.00  0.00    +0.023 A 
ATOM     24  C   UNL     1       6.416  -6.066  22.224  0.00  0.00    +0.002 A 
ATOM     25  C   UNL     1       5.099  -5.648  22.400  0.00  0.00    +0.000 A 
ATOM     26  C   UNL     1       4.842  -4.428  23.017  0.00  0.00    +0.002 A 
ATOM     27  C   UNL     1       5.900  -3.632  23.465  0.00  0.00    +0.023 A 
ENDBRANCH  19  22
ENDBRANCH  17  18
ENDBRANCH  16  17
ENDBRANCH   5  16
TORSDOF 6
ENDMDL
