MODEL 1
REMARK VINA RESULT:      -7.0      0.000      0.000
REMARK  Name = 
REMARK  7 active torsions:
REMARK  status: ('A' for Active; 'I' for Inactive)
REMARK    1  A    between atoms: C_2  and  C_3
REMARK    2  A    between atoms: C_2  and  N_4
REMARK    3  A    between atoms: C_2  and  C_9
REMARK    4  A    between atoms: C_5  and  C_7
REMARK    5  A    between atoms: C_7  and  N_8
REMARK    6  A    between atoms: C_15  and  C_17
REMARK    7  A    between atoms: N_19  and  C_20
REMARK                            x       y       z     vdW  Elec       q    Type
REMARK                         _______ _______ _______ _____ _____    ______ ____
ROOT
ATOM      1  C   UNL     1       5.003  -4.402  24.625  0.00  0.00    +0.236 C 
ATOM      2  N   UNL     1       5.850  -4.700  23.570  0.00  0.00    -0.288 N 
ATOM      3  C   UNL     1       7.259  -5.096  23.667  0.00  0.00    +0.162 C 
ATOM      4  C   UNL     1       7.544  -5.870  22.370  0.00  0.00    +0.033 C 
ATOM      5  C   UNL     1       6.198  -6.044  21.678  0.00  0.00    +0.021 C 
ATOM      6  C   UNL     1       5.321  -4.947  22.241  0.00  0.00    +0.109 C 
ATOM      7  O   UNL     1       3.800  -4.217  24.421  0.00  0.00    -0.274 OA
ENDROOT
BRANCH   3   8
ATOM      8  C   UNL     1       8.226  -3.901  23.746  0.00  0.00    +0.238 C 
ATOM      9  N   UNL     1       7.706  -2.726  23.226  0.00  0.00    -0.284 N 
ATOM     10  H   UNL     1       6.699  -2.699  23.121  0.00  0.00    +0.155 HD
ATOM     11  O   UNL     1       9.389  -4.068  24.111  0.00  0.00    -0.273 OA
BRANCH   9  12
ATOM     12  C   UNL     1       8.408  -1.538  22.957  0.00  0.00    +0.034 A 
ATOM     13  C   UNL     1       8.293  -0.482  23.869  0.00  0.00    +0.031 A 
ATOM     14  C   UNL     1       8.954   0.740  23.654  0.00  0.00    -0.016 A 
ATOM     15  C   UNL     1       9.712   0.915  22.478  0.00  0.00    -0.018 A 
ATOM     16  C   UNL     1      10.330   2.148  22.221  0.00  0.00    +0.008 A 
ATOM     17  C   UNL     1      10.208   3.203  23.128  0.00  0.00    +0.001 A 
ATOM     18  C   UNL     1       9.495   3.025  24.310  0.00  0.00    +0.001 A 
ATOM     19  C   UNL     1       9.834  -0.144  21.575  0.00  0.00    +0.010 A 
ATOM     20  C   UNL     1       8.874   1.801  24.575  0.00  0.00    +0.008 A 
ATOM     21  C   UNL     1       9.192  -1.362  21.815  0.00  0.00    +0.024 A 
ENDBRANCH   9  12
ENDBRANCH   3   8
BRANCH   1  22
ATOM     22  C   UNL     1       5.619  -4.184  26.026  0.00  0.00    +0.156 C 
ATOM     23  C   UNL     1       4.817  -4.964  27.074  0.00  0.00    +0.038 C 
BRANCH  22  24
ATOM     24  N   UNL     1       5.639  -2.757  26.330  0.00  0.00    -0.303 N 
ATOM     25  H   UNL     1       4.786  -2.201  26.312  0.00  0.00    +0.149 HD
ATOM     26  C   UNL     1       6.792  -2.112  26.718  0.00  0.00    +0.227 C 
ATOM     27  O   UNL     1       7.887  -2.669  26.769  0.00  0.00    -0.274 OA
BRANCH  26  28
ATOM     28  C   UNL     1       6.591  -0.659  27.160  0.00  0.00    +0.174 C 
BRANCH  28  29
ATOM     29  N   UNL     1       7.871  -0.024  27.509  0.00  0.00    -0.322 NA
ATOM     30  H   UNL     1       8.070  -0.221  28.492  0.00  0.00    +0.119 HD
ATOM     31  H   UNL     1       8.613  -0.520  27.002  0.00  0.00    +0.119 HD
ENDBRANCH  28  29
ENDBRANCH  26  28
ENDBRANCH  22  24
ENDBRANCH   1  22
TORSDOF 6
ENDMDL
MODEL 2
REMARK VINA RESULT:      -6.9      2.047      2.312
REMARK  Name = 
REMARK  7 active torsions:
REMARK  status: ('A' for Active; 'I' for Inactive)
REMARK    1  A    between atoms: C_2  and  C_3
REMARK    2  A    between atoms: C_2  and  N_4
REMARK    3  A    between atoms: C_2  and  C_9
REMARK    4  A    between atoms: C_5  and  C_7
REMARK    5  A    between atoms: C_7  and  N_8
REMARK    6  A    between atoms: C_15  and  C_17
REMARK    7  A    between atoms: N_19  and  C_20
REMARK                            x       y       z     vdW  Elec       q    Type
REMARK                         _______ _______ _______ _____ _____    ______ ____
ROOT
ATOM      1  C   UNL     1       7.056  -4.815  25.196  0.00  0.00    +0.236 C 
ATOM      2  N   UNL     1       6.665  -4.960  23.875  0.00  0.00    -0.288 N 
ATOM      3  C   UNL     1       7.407  -4.515  22.690  0.00  0.00    +0.162 C 
ATOM      4  C   UNL     1       6.900  -5.406  21.546  0.00  0.00    +0.033 C 
ATOM      5  C   UNL     1       6.017  -6.464  22.195  0.00  0.00    +0.021 C 
ATOM      6  C   UNL     1       5.588  -5.864  23.516  0.00  0.00    +0.109 C 
ATOM      7  O   UNL     1       6.410  -5.356  26.097  0.00  0.00    -0.274 OA
ENDROOT
BRANCH   3   8
ATOM      8  C   UNL     1       7.143  -3.045  22.321  0.00  0.00    +0.238 C 
ATOM      9  N   UNL     1       8.256  -2.227  22.448  0.00  0.00    -0.284 N 
ATOM     10  H   UNL     1       9.150  -2.704  22.483  0.00  0.00    +0.155 HD
ATOM     11  O   UNL     1       5.998  -2.660  22.087  0.00  0.00    -0.273 OA
BRANCH   9  12
ATOM     12  C   UNL     1       8.283  -0.823  22.399  0.00  0.00    +0.034 A 
ATOM     13  C   UNL     1       7.185  -0.124  22.915  0.00  0.00    +0.031 A 
ATOM     14  C   UNL     1       7.138   1.281  22.885  0.00  0.00    -0.016 A 
ATOM     15  C   UNL     1       8.199   1.993  22.286  0.00  0.00    -0.018 A 
ATOM     16  C   UNL     1       8.139   3.392  22.195  0.00  0.00    +0.008 A 
ATOM     17  C   UNL     1       7.040   4.087  22.703  0.00  0.00    +0.001 A 
ATOM     18  C   UNL     1       6.008   3.395  23.331  0.00  0.00    +0.001 A 
ATOM     19  C   UNL     1       9.298   1.292  21.782  0.00  0.00    +0.010 A 
ATOM     20  C   UNL     1       6.057   2.001  23.425  0.00  0.00    +0.008 A 
ATOM     21  C   UNL     1       9.342  -0.103  21.843  0.00  0.00    +0.024 A 
ENDBRANCH   9  12
ENDBRANCH   3   8
BRANCH   1  22
ATOM     22  C   UNL     1       8.234  -3.866  25.516  0.00  0.00    +0.156 C 
ATOM     23  C   UNL     1       9.284  -4.604  26.353  0.00  0.00    +0.038 C 
BRANCH  22  24
ATOM     24  N   UNL     1       7.731  -2.689  26.216  0.00  0.00    -0.303 N 
ATOM     25  H   UNL     1       6.912  -2.743  26.819  0.00  0.00    +0.149 HD
ATOM     26  C   UNL     1       8.371  -1.472  26.148  0.00  0.00    +0.227 C 
ATOM     27  O   UNL     1       9.363  -1.274  25.448  0.00  0.00    -0.274 OA
BRANCH  26  28
ATOM     28  C   UNL     1       7.801  -0.399  27.080  0.00  0.00    +0.174 C 
BRANCH  28  29
ATOM     29  N   UNL     1       7.846   0.932  26.454  0.00  0.00    -0.322 NA
ATOM     30  H   UNL     1       8.093   0.815  25.469  0.00  0.00    +0.119 HD
ATOM     31  H   UNL     1       6.887   1.296  26.427  0.00  0.00    +0.119 HD
ENDBRANCH  28  29
ENDBRANCH  26  28
ENDBRANCH  22  24
ENDBRANCH   1  22
TORSDOF 6
ENDMDL
MODEL 3
REMARK VINA RESULT:      -6.7      2.127      4.339
REMARK  Name = 
REMARK  7 active torsions:
REMARK  status: ('A' for Active; 'I' for Inactive)
REMARK    1  A    between atoms: C_2  and  C_3
REMARK    2  A    between atoms: C_2  and  N_4
REMARK    3  A    between atoms: C_2  and  C_9
REMARK    4  A    between atoms: C_5  and  C_7
REMARK    5  A    between atoms: C_7  and  N_8
REMARK    6  A    between atoms: C_15  and  C_17
REMARK    7  A    between atoms: N_19  and  C_20
REMARK                            x       y       z     vdW  Elec       q    Type
REMARK                         _______ _______ _______ _____ _____    ______ ____
ROOT
ATOM      1  C   UNL     1       3.735  -6.905  25.020  0.00  0.00    +0.236 C 
ATOM      2  N   UNL     1       4.387  -6.285  26.074  0.00  0.00    -0.288 N 
ATOM      3  C   UNL     1       4.669  -4.851  26.204  0.00  0.00    +0.162 C 
ATOM      4  C   UNL     1       4.823  -4.612  27.714  0.00  0.00    +0.033 C 
ATOM      5  C   UNL     1       4.419  -5.915  28.391  0.00  0.00    +0.021 C 
ATOM      6  C   UNL     1       4.592  -6.981  27.331  0.00  0.00    +0.109 C 
ATOM      7  O   UNL     1       3.434  -8.099  25.094  0.00  0.00    -0.274 OA
ENDROOT
BRANCH   3   8
ATOM      8  C   UNL     1       5.970  -4.419  25.504  0.00  0.00    +0.238 C 
ATOM      9  N   UNL     1       6.042  -3.059  25.245  0.00  0.00    -0.284 N 
ATOM     10  H   UNL     1       5.403  -2.477  25.774  0.00  0.00    +0.155 HD
ATOM     11  O   UNL     1       6.768  -5.266  25.102  0.00  0.00    -0.273 OA
BRANCH   9  12
ATOM     12  C   UNL     1       6.984  -2.401  24.435  0.00  0.00    +0.034 A 
ATOM     13  C   UNL     1       6.661  -1.129  23.948  0.00  0.00    +0.031 A 
ATOM     14  C   UNL     1       7.549  -0.421  23.119  0.00  0.00    -0.016 A 
ATOM     15  C   UNL     1       8.768  -1.024  22.741  0.00  0.00    -0.018 A 
ATOM     16  C   UNL     1       9.638  -0.354  21.868  0.00  0.00    +0.008 A 
ATOM     17  C   UNL     1       9.311   0.911  21.377  0.00  0.00    +0.001 A 
ATOM     18  C   UNL     1       8.130   1.530  21.776  0.00  0.00    +0.001 A 
ATOM     19  C   UNL     1       9.091  -2.289  23.238  0.00  0.00    +0.010 A 
ATOM     20  C   UNL     1       7.255   0.871  22.645  0.00  0.00    +0.008 A 
ATOM     21  C   UNL     1       8.209  -2.969  24.082  0.00  0.00    +0.024 A 
ENDBRANCH   9  12
ENDBRANCH   3   8
BRANCH   1  22
ATOM     22  C   UNL     1       3.510  -6.103  23.717  0.00  0.00    +0.156 C 
ATOM     23  C   UNL     1       2.249  -6.605  23.008  0.00  0.00    +0.038 C 
BRANCH  22  24
ATOM     24  N   UNL     1       4.685  -6.230  22.862  0.00  0.00    -0.303 N 
ATOM     25  H   UNL     1       5.121  -7.135  22.695  0.00  0.00    +0.149 HD
ATOM     26  C   UNL     1       5.219  -5.152  22.192  0.00  0.00    +0.227 C 
ATOM     27  O   UNL     1       4.791  -4.006  22.318  0.00  0.00    -0.274 OA
BRANCH  26  28
ATOM     28  C   UNL     1       6.341  -5.504  21.210  0.00  0.00    +0.174 C 
BRANCH  28  29
ATOM     29  N   UNL     1       7.561  -5.920  21.919  0.00  0.00    -0.322 NA
ATOM     30  H   UNL     1       8.243  -5.161  21.858  0.00  0.00    +0.119 HD
ATOM     31  H   UNL     1       7.337  -5.973  22.919  0.00  0.00    +0.119 HD
ENDBRANCH  28  29
ENDBRANCH  26  28
ENDBRANCH  22  24
ENDBRANCH   1  22
TORSDOF 6
ENDMDL
MODEL 4
REMARK VINA RESULT:      -6.7      1.443      1.589
REMARK  Name = 
REMARK  7 active torsions:
REMARK  status: ('A' for Active; 'I' for Inactive)
REMARK    1  A    between atoms: C_2  and  C_3
REMARK    2  A    between atoms: C_2  and  N_4
REMARK    3  A    between atoms: C_2  and  C_9
REMARK    4  A    between atoms: C_5  and  C_7
REMARK    5  A    between atoms: C_7  and  N_8
REMARK    6  A    between atoms: C_15  and  C_17
REMARK    7  A    between atoms: N_19  and  C_20
REMARK                            x       y       z     vdW  Elec       q    Type
REMARK                         _______ _______ _______ _____ _____    ______ ____
ROOT
ATOM      1  C   UNL     1       5.837  -5.359  24.993  0.00  0.00    +0.236 C 
ATOM      2  N   UNL     1       6.034  -5.111  23.645  0.00  0.00    -0.288 N 
ATOM      3  C   UNL     1       7.250  -4.574  23.023  0.00  0.00    +0.162 C 
ATOM      4  C   UNL     1       7.193  -5.050  21.564  0.00  0.00    +0.033 C 
ATOM      5  C   UNL     1       6.019  -6.017  21.480  0.00  0.00    +0.021 C 
ATOM      6  C   UNL     1       5.129  -5.659  22.651  0.00  0.00    +0.109 C 
ATOM      7  O   UNL     1       4.819  -5.943  25.375  0.00  0.00    -0.274 OA
ENDROOT
BRANCH   3   8
ATOM      8  C   UNL     1       7.313  -3.037  23.036  0.00  0.00    +0.238 C 
ATOM      9  N   UNL     1       8.604  -2.530  23.057  0.00  0.00    -0.284 N 
ATOM     10  H   UNL     1       9.334  -3.176  22.780  0.00  0.00    +0.155 HD
ATOM     11  O   UNL     1       6.284  -2.375  23.165  0.00  0.00    -0.273 OA
BRANCH   9  12
ATOM     12  C   UNL     1       8.985  -1.197  23.291  0.00  0.00    +0.034 A 
ATOM     13  C   UNL     1       8.118  -0.180  22.874  0.00  0.00    +0.031 A 
ATOM     14  C   UNL     1       8.443   1.175  23.061  0.00  0.00    -0.016 A 
ATOM     15  C   UNL     1       9.684   1.511  23.643  0.00  0.00    -0.018 A 
ATOM     16  C   UNL     1      10.048   2.859  23.783  0.00  0.00    +0.008 A 
ATOM     17  C   UNL     1       9.185   3.872  23.360  0.00  0.00    +0.001 A 
ATOM     18  C   UNL     1       7.943   3.549  22.822  0.00  0.00    +0.001 A 
ATOM     19  C   UNL     1      10.542   0.493  24.067  0.00  0.00    +0.010 A 
ATOM     20  C   UNL     1       7.571   2.210  22.677  0.00  0.00    +0.008 A 
ATOM     21  C   UNL     1      10.193  -0.849  23.897  0.00  0.00    +0.024 A 
ENDBRANCH   9  12
ENDBRANCH   3   8
BRANCH   1  22
ATOM     22  C   UNL     1       6.853  -4.781  26.006  0.00  0.00    +0.156 C 
ATOM     23  C   UNL     1       6.780  -5.563  27.321  0.00  0.00    +0.038 C 
BRANCH  22  24
ATOM     24  N   UNL     1       6.574  -3.365  26.215  0.00  0.00    -0.303 N 
ATOM     25  H   UNL     1       5.619  -3.017  26.271  0.00  0.00    +0.149 HD
ATOM     26  C   UNL     1       7.581  -2.446  26.413  0.00  0.00    +0.227 C 
ATOM     27  O   UNL     1       8.774  -2.737  26.360  0.00  0.00    -0.274 OA
BRANCH  26  28
ATOM     28  C   UNL     1       7.097  -1.041  26.787  0.00  0.00    +0.174 C 
BRANCH  28  29
ATOM     29  N   UNL     1       8.226  -0.110  26.939  0.00  0.00    -0.322 NA
ATOM     30  H   UNL     1       7.958   0.613  27.610  0.00  0.00    +0.119 HD
ATOM     31  H   UNL     1       8.986  -0.615  27.408  0.00  0.00    +0.119 HD
ENDBRANCH  28  29
ENDBRANCH  26  28
ENDBRANCH  22  24
ENDBRANCH   1  22
TORSDOF 6
ENDMDL
MODEL 5
REMARK VINA RESULT:      -6.7      4.315      7.958
REMARK  Name = 
REMARK  7 active torsions:
REMARK  status: ('A' for Active; 'I' for Inactive)
REMARK    1  A    between atoms: C_2  and  C_3
REMARK    2  A    between atoms: C_2  and  N_4
REMARK    3  A    between atoms: C_2  and  C_9
REMARK    4  A    between atoms: C_5  and  C_7
REMARK    5  A    between atoms: C_7  and  N_8
REMARK    6  A    between atoms: C_15  and  C_17
REMARK    7  A    between atoms: N_19  and  C_20
REMARK                            x       y       z     vdW  Elec       q    Type
REMARK                         _______ _______ _______ _____ _____    ______ ____
ROOT
ATOM      1  C   UNL     1       8.290   5.157  23.224  0.00  0.00    +0.236 C 
ATOM      2  N   UNL     1       7.369   4.139  23.417  0.00  0.00    -0.288 N 
ATOM      3  C   UNL     1       7.272   3.260  24.587  0.00  0.00    +0.162 C 
ATOM      4  C   UNL     1       5.815   2.772  24.596  0.00  0.00    +0.033 C 
ATOM      5  C   UNL     1       5.095   3.571  23.517  0.00  0.00    +0.021 C 
ATOM      6  C   UNL     1       6.187   4.042  22.581  0.00  0.00    +0.109 C 
ATOM      7  O   UNL     1       8.181   5.917  22.259  0.00  0.00    -0.274 OA
ENDROOT
BRANCH   3   8
ATOM      8  C   UNL     1       8.200   2.035  24.509  0.00  0.00    +0.238 C 
ATOM      9  N   UNL     1       7.540   0.851  24.216  0.00  0.00    -0.284 N 
ATOM     10  H   UNL     1       6.615   0.951  23.815  0.00  0.00    +0.155 HD
ATOM     11  O   UNL     1       9.383   2.132  24.832  0.00  0.00    -0.273 OA
BRANCH   9  12
ATOM     12  C   UNL     1       8.065  -0.451  24.293  0.00  0.00    +0.034 A 
ATOM     13  C   UNL     1       7.631  -1.277  25.336  0.00  0.00    +0.031 A 
ATOM     14  C   UNL     1       8.127  -2.584  25.483  0.00  0.00    -0.016 A 
ATOM     15  C   UNL     1       9.110  -3.053  24.585  0.00  0.00    -0.018 A 
ATOM     16  C   UNL     1       9.656  -4.334  24.754  0.00  0.00    +0.008 A 
ATOM     17  C   UNL     1       9.228  -5.154  25.800  0.00  0.00    +0.001 A 
ATOM     18  C   UNL     1       8.231  -4.714  26.666  0.00  0.00    +0.001 A 
ATOM     19  C   UNL     1       9.532  -2.229  23.539  0.00  0.00    +0.010 A 
ATOM     20  C   UNL     1       7.680  -3.439  26.507  0.00  0.00    +0.008 A 
ATOM     21  C   UNL     1       9.011  -0.942  23.390  0.00  0.00    +0.024 A 
ENDBRANCH   9  12
ENDBRANCH   3   8
BRANCH   1  22
ATOM     22  C   UNL     1       9.513   5.234  24.167  0.00  0.00    +0.156 C 
ATOM     23  C   UNL     1       9.202   6.159  25.348  0.00  0.00    +0.038 C 
BRANCH  22  24
ATOM     24  N   UNL     1      10.673   5.703  23.418  0.00  0.00    -0.303 N 
ATOM     25  H   UNL     1      10.743   6.668  23.102  0.00  0.00    +0.149 HD
ATOM     26  C   UNL     1      11.752   4.887  23.161  0.00  0.00    +0.227 C 
ATOM     27  O   UNL     1      11.786   3.700  23.480  0.00  0.00    -0.274 OA
BRANCH  26  28
ATOM     28  C   UNL     1      12.947   5.595  22.514  0.00  0.00    +0.174 C 
BRANCH  28  29
ATOM     29  N   UNL     1      14.220   5.122  23.081  0.00  0.00    -0.322 NA
ATOM     30  H   UNL     1      14.011   4.426  23.801  0.00  0.00    +0.119 HD
ATOM     31  H   UNL     1      14.705   4.587  22.353  0.00  0.00    +0.119 HD
ENDBRANCH  28  29
ENDBRANCH  26  28
ENDBRANCH  22  24
ENDBRANCH   1  22
TORSDOF 6
ENDMDL
MODEL 6
REMARK VINA RESULT:      -6.6      1.684      2.216
REMARK  Name = 
REMARK  7 active torsions:
REMARK  status: ('A' for Active; 'I' for Inactive)
REMARK    1  A    between atoms: C_2  and  C_3
REMARK    2  A    between atoms: C_2  and  N_4
REMARK    3  A    between atoms: C_2  and  C_9
REMARK    4  A    between atoms: C_5  and  C_7
REMARK    5  A    between atoms: C_7  and  N_8
REMARK    6  A    between atoms: C_15  and  C_17
REMARK    7  A    between atoms: N_19  and  C_20
REMARK                            x       y       z     vdW  Elec       q    Type
REMARK                         _______ _______ _______ _____ _____    ______ ____
ROOT
ATOM      1  C   UNL     1       5.119  -4.658  24.857  0.00  0.00    +0.236 C 
ATOM      2  N   UNL     1       5.620  -4.835  23.578  0.00  0.00    -0.288 N 
ATOM      3  C   UNL     1       6.973  -4.506  23.117  0.00  0.00    +0.162 C 
ATOM      4  C   UNL     1       7.207  -5.407  21.895  0.00  0.00    +0.033 C 
ATOM      5  C   UNL     1       6.021  -6.362  21.842  0.00  0.00    +0.021 C 
ATOM      6  C   UNL     1       4.921  -5.668  22.617  0.00  0.00    +0.109 C 
ATOM      7  O   UNL     1       4.008  -5.104  25.155  0.00  0.00    -0.274 OA
ENDROOT
BRANCH   3   8
ATOM      8  C   UNL     1       7.129  -3.038  22.680  0.00  0.00    +0.238 C 
ATOM      9  N   UNL     1       8.376  -2.500  22.961  0.00  0.00    -0.284 N 
ATOM     10  H   UNL     1       9.113  -3.170  23.145  0.00  0.00    +0.155 HD
ATOM     11  O   UNL     1       6.157  -2.409  22.263  0.00  0.00    -0.273 OA
BRANCH   9  12
ATOM     12  C   UNL     1       8.748  -1.146  22.888  0.00  0.00    +0.034 A 
ATOM     13  C   UNL     1       8.379  -0.303  23.942  0.00  0.00    +0.031 A 
ATOM     14  C   UNL     1       8.704   1.065  23.927  0.00  0.00    -0.016 A 
ATOM     15  C   UNL     1       9.378   1.601  22.809  0.00  0.00    -0.018 A 
ATOM     16  C   UNL     1       9.657   2.974  22.753  0.00  0.00    +0.008 A 
ATOM     17  C   UNL     1       9.282   3.816  23.802  0.00  0.00    +0.001 A 
ATOM     18  C   UNL     1       8.653   3.289  24.926  0.00  0.00    +0.001 A 
ATOM     19  C   UNL     1       9.754   0.753  21.763  0.00  0.00    +0.010 A 
ATOM     20  C   UNL     1       8.368   1.922  24.992  0.00  0.00    +0.008 A 
ATOM     21  C   UNL     1       9.447  -0.609  21.805  0.00  0.00    +0.024 A 
ENDBRANCH   9  12
ENDBRANCH   3   8
BRANCH   1  22
ATOM     22  C   UNL     1       5.924  -3.790  25.852  0.00  0.00    +0.156 C 
ATOM     23  C   UNL     1       5.617  -2.308  25.616  0.00  0.00    +0.038 C 
BRANCH  22  24
ATOM     24  N   UNL     1       7.348  -4.066  25.693  0.00  0.00    -0.303 N 
ATOM     25  H   UNL     1       7.879  -3.675  24.918  0.00  0.00    +0.149 HD
ATOM     26  C   UNL     1       8.052  -4.811  26.613  0.00  0.00    +0.227 C 
ATOM     27  O   UNL     1       7.525  -5.346  27.587  0.00  0.00    -0.274 OA
BRANCH  26  28
ATOM     28  C   UNL     1       9.565  -4.853  26.375  0.00  0.00    +0.174 C 
BRANCH  28  29
ATOM     29  N   UNL     1       9.905  -5.756  25.265  0.00  0.00    -0.322 NA
ATOM     30  H   UNL     1       9.040  -6.163  24.905  0.00  0.00    +0.119 HD
ATOM     31  H   UNL     1      10.249  -5.179  24.489  0.00  0.00    +0.119 HD
ENDBRANCH  28  29
ENDBRANCH  26  28
ENDBRANCH  22  24
ENDBRANCH   1  22
TORSDOF 6
ENDMDL
MODEL 7
REMARK VINA RESULT:      -6.3      2.807      7.145
REMARK  Name = 
REMARK  7 active torsions:
REMARK  status: ('A' for Active; 'I' for Inactive)
REMARK    1  A    between atoms: C_2  and  C_3
REMARK    2  A    between atoms: C_2  and  N_4
REMARK    3  A    between atoms: C_2  and  C_9
REMARK    4  A    between atoms: C_5  and  C_7
REMARK    5  A    between atoms: C_7  and  N_8
REMARK    6  A    between atoms: C_15  and  C_17
REMARK    7  A    between atoms: N_19  and  C_20
REMARK                            x       y       z     vdW  Elec       q    Type
REMARK                         _______ _______ _______ _____ _____    ______ ____
ROOT
ATOM      1  C   UNL     1       8.111   2.627  23.234  0.00  0.00    +0.236 C 
ATOM      2  N   UNL     1       7.004   2.406  24.037  0.00  0.00    -0.288 N 
ATOM      3  C   UNL     1       7.009   1.859  25.399  0.00  0.00    +0.162 C 
ATOM      4  C   UNL     1       5.707   2.369  26.036  0.00  0.00    +0.033 C 
ATOM      5  C   UNL     1       5.112   3.361  25.044  0.00  0.00    +0.021 C 
ATOM      6  C   UNL     1       5.719   2.994  23.707  0.00  0.00    +0.109 C 
ATOM      7  O   UNL     1       7.988   3.222  22.159  0.00  0.00    -0.274 OA
ENDROOT
BRANCH   3   8
ATOM      8  C   UNL     1       7.005   0.321  25.439  0.00  0.00    +0.238 C 
ATOM      9  N   UNL     1       6.445  -0.267  24.315  0.00  0.00    -0.284 N 
ATOM     10  H   UNL     1       6.368   0.329  23.500  0.00  0.00    +0.155 HD
ATOM     11  O   UNL     1       7.343  -0.273  26.462  0.00  0.00    -0.273 OA
BRANCH   9  12
ATOM     12  C   UNL     1       6.100  -1.620  24.152  0.00  0.00    +0.034 A 
ATOM     13  C   UNL     1       6.811  -2.373  23.210  0.00  0.00    +0.031 A 
ATOM     14  C   UNL     1       6.508  -3.727  22.984  0.00  0.00    -0.016 A 
ATOM     15  C   UNL     1       5.442  -4.322  23.690  0.00  0.00    -0.018 A 
ATOM     16  C   UNL     1       5.090  -5.655  23.433  0.00  0.00    +0.008 A 
ATOM     17  C   UNL     1       5.795  -6.403  22.487  0.00  0.00    +0.001 A 
ATOM     18  C   UNL     1       6.874  -5.836  21.815  0.00  0.00    +0.001 A 
ATOM     19  C   UNL     1       4.741  -3.570  24.637  0.00  0.00    +0.010 A 
ATOM     20  C   UNL     1       7.232  -4.508  22.063  0.00  0.00    +0.008 A 
ATOM     21  C   UNL     1       5.071  -2.232  24.869  0.00  0.00    +0.024 A 
ENDBRANCH   9  12
ENDBRANCH   3   8
BRANCH   1  22
ATOM     22  C   UNL     1       9.463   2.006  23.653  0.00  0.00    +0.156 C 
ATOM     23  C   UNL     1      10.603   2.979  23.337  0.00  0.00    +0.038 C 
BRANCH  22  24
ATOM     24  N   UNL     1       9.646   0.734  22.963  0.00  0.00    -0.303 N 
ATOM     25  H   UNL     1       9.482   0.647  21.962  0.00  0.00    +0.149 HD
ATOM     26  C   UNL     1      10.110  -0.387  23.614  0.00  0.00    +0.227 C 
ATOM     27  O   UNL     1      10.336  -0.416  24.822  0.00  0.00    -0.274 OA
BRANCH  26  28
ATOM     28  C   UNL     1      10.403  -1.580  22.698  0.00  0.00    +0.174 C 
BRANCH  28  29
ATOM     29  N   UNL     1       9.897  -1.346  21.337  0.00  0.00    -0.322 NA
ATOM     30  H   UNL     1       8.903  -1.117  21.399  0.00  0.00    +0.119 HD
ATOM     31  H   UNL     1      10.328  -0.483  20.988  0.00  0.00    +0.119 HD
ENDBRANCH  28  29
ENDBRANCH  26  28
ENDBRANCH  22  24
ENDBRANCH   1  22
TORSDOF 6
ENDMDL
MODEL 8
REMARK VINA RESULT:      -6.3      1.818      4.468
REMARK  Name = 
REMARK  7 active torsions:
REMARK  status: ('A' for Active; 'I' for Inactive)
REMARK    1  A    between atoms: C_2  and  C_3
REMARK    2  A    between atoms: C_2  and  N_4
REMARK    3  A    between atoms: C_2  and  C_9
REMARK    4  A    between atoms: C_5  and  C_7
REMARK    5  A    between atoms: C_7  and  N_8
REMARK    6  A    between atoms: C_15  and  C_17
REMARK    7  A    between atoms: N_19  and  C_20
REMARK                            x       y       z     vdW  Elec       q    Type
REMARK                         _______ _______ _______ _____ _____    ______ ____
ROOT
ATOM      1  C   UNL     1       8.059  -4.880  24.531  0.00  0.00    +0.236 C 
ATOM      2  N   UNL     1       7.280  -4.603  25.643  0.00  0.00    -0.288 N 
ATOM      3  C   UNL     1       5.877  -4.175  25.642  0.00  0.00    +0.162 C 
ATOM      4  C   UNL     1       5.335  -4.588  27.020  0.00  0.00    +0.033 C 
ATOM      5  C   UNL     1       6.431  -5.421  27.672  0.00  0.00    +0.021 C 
ATOM      6  C   UNL     1       7.708  -5.015  26.968  0.00  0.00    +0.109 C 
ATOM      7  O   UNL     1       9.184  -5.366  24.667  0.00  0.00    -0.274 OA
ENDROOT
BRANCH   3   8
ATOM      8  C   UNL     1       5.702  -2.655  25.482  0.00  0.00    +0.238 C 
ATOM      9  N   UNL     1       6.838  -1.925  25.797  0.00  0.00    -0.284 N 
ATOM     10  H   UNL     1       7.706  -2.447  25.816  0.00  0.00    +0.155 HD
ATOM     11  O   UNL     1       4.593  -2.181  25.237  0.00  0.00    -0.273 OA
BRANCH   9  12
ATOM     12  C   UNL     1       6.928  -0.531  25.961  0.00  0.00    +0.034 A 
ATOM     13  C   UNL     1       7.787   0.178  25.113  0.00  0.00    +0.031 A 
ATOM     14  C   UNL     1       7.939   1.571  25.232  0.00  0.00    -0.016 A 
ATOM     15  C   UNL     1       7.244   2.255  26.252  0.00  0.00    -0.018 A 
ATOM     16  C   UNL     1       7.430   3.635  26.420  0.00  0.00    +0.008 A 
ATOM     17  C   UNL     1       8.292   4.340  25.578  0.00  0.00    +0.001 A 
ATOM     18  C   UNL     1       8.950   3.680  24.544  0.00  0.00    +0.001 A 
ATOM     19  C   UNL     1       6.380   1.545  27.090  0.00  0.00    +0.010 A 
ATOM     20  C   UNL     1       8.773   2.305  24.369  0.00  0.00    +0.008 A 
ATOM     21  C   UNL     1       6.220   0.165  26.942  0.00  0.00    +0.024 A 
ENDBRANCH   9  12
ENDBRANCH   3   8
BRANCH   1  22
ATOM     22  C   UNL     1       7.537  -4.451  23.140  0.00  0.00    +0.156 C 
ATOM     23  C   UNL     1       7.521  -5.656  22.195  0.00  0.00    +0.038 C 
BRANCH  22  24
ATOM     24  N   UNL     1       8.377  -3.379  22.617  0.00  0.00    -0.303 N 
ATOM     25  H   UNL     1       9.364  -3.531  22.418  0.00  0.00    +0.149 HD
ATOM     26  C   UNL     1       7.866  -2.138  22.307  0.00  0.00    +0.227 C 
ATOM     27  O   UNL     1       6.695  -1.826  22.510  0.00  0.00    -0.274 OA
BRANCH  26  28
ATOM     28  C   UNL     1       8.855  -1.198  21.612  0.00  0.00    +0.174 C 
BRANCH  28  29
ATOM     29  N   UNL     1      10.245  -1.638  21.815  0.00  0.00    -0.322 NA
ATOM     30  H   UNL     1      10.262  -2.293  22.599  0.00  0.00    +0.119 HD
ATOM     31  H   UNL     1      10.512  -2.210  21.007  0.00  0.00    +0.119 HD
ENDBRANCH  28  29
ENDBRANCH  26  28
ENDBRANCH  22  24
ENDBRANCH   1  22
TORSDOF 6
ENDMDL
MODEL 9
REMARK VINA RESULT:      -6.3      3.681      7.835
REMARK  Name = 
REMARK  7 active torsions:
REMARK  status: ('A' for Active; 'I' for Inactive)
REMARK    1  A    between atoms: C_2  and  C_3
REMARK    2  A    between atoms: C_2  and  N_4
REMARK    3  A    between atoms: C_2  and  C_9
REMARK    4  A    between atoms: C_5  and  C_7
REMARK    5  A    between atoms: C_7  and  N_8
REMARK    6  A    between atoms: C_15  and  C_17
REMARK    7  A    between atoms: N_19  and  C_20
REMARK                            x       y       z     vdW  Elec       q    Type
REMARK                         _______ _______ _______ _____ _____    ______ ____
ROOT
ATOM      1  C   UNL     1       7.916   5.130  24.335  0.00  0.00    +0.236 C 
ATOM      2  N   UNL     1       7.040   4.477  25.187  0.00  0.00    -0.288 N 
ATOM      3  C   UNL     1       7.376   3.406  26.132  0.00  0.00    +0.162 C 
ATOM      4  C   UNL     1       6.275   3.462  27.203  0.00  0.00    +0.033 C 
ATOM      5  C   UNL     1       5.462   4.715  26.907  0.00  0.00    +0.021 C 
ATOM      6  C   UNL     1       5.718   5.016  25.446  0.00  0.00    +0.109 C 
ATOM      7  O   UNL     1       7.537   6.110  23.688  0.00  0.00    -0.274 OA
ENDROOT
BRANCH   3   8
ATOM      8  C   UNL     1       7.370   2.005  25.495  0.00  0.00    +0.238 C 
ATOM      9  N   UNL     1       8.028   1.045  26.248  0.00  0.00    -0.284 N 
ATOM     10  H   UNL     1       8.181   1.279  27.222  0.00  0.00    +0.155 HD
ATOM     11  O   UNL     1       6.938   1.845  24.354  0.00  0.00    -0.273 OA
BRANCH   9  12
ATOM     12  C   UNL     1       8.381  -0.254  25.841  0.00  0.00    +0.034 A 
ATOM     13  C   UNL     1       7.760  -1.336  26.476  0.00  0.00    +0.031 A 
ATOM     14  C   UNL     1       8.076  -2.661  26.130  0.00  0.00    -0.016 A 
ATOM     15  C   UNL     1       9.068  -2.900  25.155  0.00  0.00    -0.018 A 
ATOM     16  C   UNL     1       9.437  -4.217  24.840  0.00  0.00    +0.008 A 
ATOM     17  C   UNL     1       8.822  -5.295  25.480  0.00  0.00    +0.001 A 
ATOM     18  C   UNL     1       7.815  -5.069  26.414  0.00  0.00    +0.001 A 
ATOM     19  C   UNL     1       9.678  -1.817  24.516  0.00  0.00    +0.010 A 
ATOM     20  C   UNL     1       7.441  -3.761  26.735  0.00  0.00    +0.008 A 
ATOM     21  C   UNL     1       9.333  -0.506  24.852  0.00  0.00    +0.024 A 
ENDBRANCH   9  12
ENDBRANCH   3   8
BRANCH   1  22
ATOM     22  C   UNL     1       9.326   4.530  24.125  0.00  0.00    +0.156 C 
ATOM     23  C   UNL     1      10.310   5.637  23.735  0.00  0.00    +0.038 C 
BRANCH  22  24
ATOM     24  N   UNL     1       9.262   3.493  23.101  0.00  0.00    -0.303 N 
ATOM     25  H   UNL     1       8.609   3.559  22.322  0.00  0.00    +0.149 HD
ATOM     26  C   UNL     1      10.120   2.416  23.101  0.00  0.00    +0.227 C 
ATOM     27  O   UNL     1      10.946   2.217  23.989  0.00  0.00    -0.274 OA
BRANCH  26  28
ATOM     28  C   UNL     1      10.023   1.524  21.859  0.00  0.00    +0.174 C 
BRANCH  28  29
ATOM     29  N   UNL     1       8.735   1.706  21.170  0.00  0.00    -0.322 NA
ATOM     30  H   UNL     1       8.501   2.700  21.186  0.00  0.00    +0.119 HD
ATOM     31  H   UNL     1       8.883   1.501  20.176  0.00  0.00    +0.119 HD
ENDBRANCH  28  29
ENDBRANCH  26  28
ENDBRANCH  22  24
ENDBRANCH   1  22
TORSDOF 6
ENDMDL
