MODEL 1
REMARK VINA RESULT:      -5.2      0.000      0.000
REMARK  Name = 
REMARK  8 active torsions:
REMARK  status: ('A' for Active; 'I' for Inactive)
REMARK    1  A    between atoms: C_1  and  C_2
REMARK    2  A    between atoms: C_2  and  N_4
REMARK    3  A    between atoms: C_2  and  C_5
REMARK    4  A    between atoms: C_7  and  C_8
REMARK    5  A    between atoms: C_9  and  O_10
REMARK    6  A    between atoms: N_11  and  C_12
REMARK    7  A    between atoms: C_12  and  C_13
REMARK    8  A    between atoms: C_13  and  O_14
REMARK                            x       y       z     vdW  Elec       q    Type
REMARK                         _______ _______ _______ _____ _____    ______ ____
ROOT
ATOM      1  C   UNL     1       8.809  -4.143  24.309  0.00  0.00    +0.130 A 
ATOM      2  N   UNL     1       7.762  -3.892  23.446  0.00  0.00    -0.287 N 
ATOM      3  C   UNL     1       8.060  -2.733  22.765  0.00  0.00    +0.216 A 
ATOM      4  C   UNL     1       9.295  -2.334  23.227  0.00  0.00    +0.100 A 
ATOM      5  C   UNL     1      10.095  -1.152  22.847  0.00  0.00    +0.071 C 
ATOM      6  N   UNL     1       9.754  -3.227  24.160  0.00  0.00    -0.232 NA
ENDROOT
BRANCH   1   8
ATOM      7  C   UNL     1       8.154  -4.950  26.607  0.00  0.00    +0.032 C 
ATOM      8  C   UNL     1       8.849  -5.290  25.287  0.00  0.00    +0.115 C 
BRANCH   8   9
ATOM      9  N   UNL     1      10.239  -5.680  25.548  0.00  0.00    -0.321 NA
ATOM     10  H   UNL     1      10.860  -5.017  25.085  0.00  0.00    +0.119 HD
ATOM     11  H   UNL     1      10.410  -6.571  25.079  0.00  0.00    +0.119 HD
ENDBRANCH   8   9
ENDBRANCH   1   8
BRANCH   3  12
ATOM     12  O   UNL     1       7.233  -2.247  21.850  0.00  0.00    -0.492 OA
ATOM     13  H   UNL     1       7.002  -2.981  21.244  0.00  0.00    +0.294 HD
ENDBRANCH   3  12
BRANCH   2  14
ATOM     14  C   UNL     1       6.484  -4.587  23.372  0.00  0.00    +0.246 C 
BRANCH  14  15
ATOM     15  C   UNL     1       6.172  -5.370  22.117  0.00  0.00    +0.325 C 
ATOM     16  O   UNL     1       5.832  -4.802  21.082  0.00  0.00    -0.249 OA
BRANCH  15  17
ATOM     17  O   UNL     1       6.327  -6.708  22.129  0.00  0.00    -0.479 OA
ATOM     18  H   UNL     1       6.581  -7.095  21.268  0.00  0.00    +0.295 HD
ENDBRANCH  15  17
ENDBRANCH  14  15
ENDBRANCH   2  14
TORSDOF 6
ENDMDL
MODEL 2
REMARK VINA RESULT:      -5.1      2.496      4.063
REMARK  Name = 
REMARK  8 active torsions:
REMARK  status: ('A' for Active; 'I' for Inactive)
REMARK    1  A    between atoms: C_1  and  C_2
REMARK    2  A    between atoms: C_2  and  N_4
REMARK    3  A    between atoms: C_2  and  C_5
REMARK    4  A    between atoms: C_7  and  C_8
REMARK    5  A    between atoms: C_9  and  O_10
REMARK    6  A    between atoms: N_11  and  C_12
REMARK    7  A    between atoms: C_12  and  C_13
REMARK    8  A    between atoms: C_13  and  O_14
REMARK                            x       y       z     vdW  Elec       q    Type
REMARK                         _______ _______ _______ _____ _____    ______ ____
ROOT
ATOM      1  C   UNL     1       7.942  -4.737  24.102  0.00  0.00    +0.130 A 
ATOM      2  N   UNL     1       6.725  -5.060  24.665  0.00  0.00    -0.287 N 
ATOM      3  C   UNL     1       5.910  -5.511  23.652  0.00  0.00    +0.216 A 
ATOM      4  C   UNL     1       6.676  -5.466  22.507  0.00  0.00    +0.100 A 
ATOM      5  C   UNL     1       6.307  -5.830  21.124  0.00  0.00    +0.071 C 
ATOM      6  N   UNL     1       7.933  -5.010  22.807  0.00  0.00    -0.232 NA
ENDROOT
BRANCH   1   8
ATOM      7  C   UNL     1       9.746  -2.974  24.116  0.00  0.00    +0.032 C 
ATOM      8  C   UNL     1       9.101  -4.143  24.864  0.00  0.00    +0.115 C 
BRANCH   8   9
ATOM      9  N   UNL     1      10.109  -5.175  25.130  0.00  0.00    -0.321 NA
ATOM     10  H   UNL     1      11.024  -4.729  25.208  0.00  0.00    +0.119 HD
ATOM     11  H   UNL     1      10.177  -5.770  24.303  0.00  0.00    +0.119 HD
ENDBRANCH   8   9
ENDBRANCH   1   8
BRANCH   3  12
ATOM     12  O   UNL     1       4.669  -5.908  23.899  0.00  0.00    -0.492 OA
ATOM     13  H   UNL     1       4.079  -5.145  23.731  0.00  0.00    +0.294 HD
ENDBRANCH   3  12
BRANCH   2  14
ATOM     14  C   UNL     1       6.282  -4.810  26.031  0.00  0.00    +0.246 C 
BRANCH  14  15
ATOM     15  C   UNL     1       6.637  -5.828  27.091  0.00  0.00    +0.325 C 
ATOM     16  O   UNL     1       5.807  -6.638  27.497  0.00  0.00    -0.249 OA
BRANCH  15  17
ATOM     17  O   UNL     1       7.903  -5.875  27.550  0.00  0.00    -0.479 OA
ATOM     18  H   UNL     1       8.004  -5.614  28.487  0.00  0.00    +0.295 HD
ENDBRANCH  15  17
ENDBRANCH  14  15
ENDBRANCH   2  14
TORSDOF 6
ENDMDL
MODEL 3
REMARK VINA RESULT:      -5.0      2.480      3.666
REMARK  Name = 
REMARK  8 active torsions:
REMARK  status: ('A' for Active; 'I' for Inactive)
REMARK    1  A    between atoms: C_1  and  C_2
REMARK    2  A    between atoms: C_2  and  N_4
REMARK    3  A    between atoms: C_2  and  C_5
REMARK    4  A    between atoms: C_7  and  C_8
REMARK    5  A    between atoms: C_9  and  O_10
REMARK    6  A    between atoms: N_11  and  C_12
REMARK    7  A    between atoms: C_12  and  C_13
REMARK    8  A    between atoms: C_13  and  O_14
REMARK                            x       y       z     vdW  Elec       q    Type
REMARK                         _______ _______ _______ _____ _____    ______ ____
ROOT
ATOM      1  C   UNL     1       7.483  -3.459  22.700  0.00  0.00    +0.130 A 
ATOM      2  N   UNL     1       7.933  -3.230  23.984  0.00  0.00    -0.287 N 
ATOM      3  C   UNL     1       8.853  -2.208  23.921  0.00  0.00    +0.216 A 
ATOM      4  C   UNL     1       8.911  -1.838  22.596  0.00  0.00    +0.100 A 
ATOM      5  C   UNL     1       9.737  -0.794  21.955  0.00  0.00    +0.071 C 
ATOM      6  N   UNL     1       8.043  -2.601  21.860  0.00  0.00    -0.232 NA
ENDROOT
BRANCH   1   8
ATOM      7  C   UNL     1       7.212  -5.845  21.928  0.00  0.00    +0.032 C 
ATOM      8  C   UNL     1       6.508  -4.545  22.321  0.00  0.00    +0.115 C 
BRANCH   8   9
ATOM      9  N   UNL     1       5.656  -4.093  21.216  0.00  0.00    -0.321 NA
ATOM     10  H   UNL     1       4.678  -4.219  21.480  0.00  0.00    +0.119 HD
ATOM     11  H   UNL     1       5.799  -4.726  20.428  0.00  0.00    +0.119 HD
ENDBRANCH   8   9
ENDBRANCH   1   8
BRANCH   3  12
ATOM     12  O   UNL     1       9.451  -1.760  25.017  0.00  0.00    -0.492 OA
ATOM     13  H   UNL     1       9.547  -2.518  25.629  0.00  0.00    +0.294 HD
ENDBRANCH   3  12
BRANCH   2  14
ATOM     14  C   UNL     1       7.655  -4.019  25.178  0.00  0.00    +0.246 C 
BRANCH  14  15
ATOM     15  C   UNL     1       8.556  -5.196  25.476  0.00  0.00    +0.325 C 
ATOM     16  O   UNL     1       9.462  -5.514  24.709  0.00  0.00    -0.249 OA
BRANCH  15  17
ATOM     17  O   UNL     1       8.388  -5.868  26.632  0.00  0.00    -0.479 OA
ATOM     18  H   UNL     1       8.242  -6.829  26.525  0.00  0.00    +0.295 HD
ENDBRANCH  15  17
ENDBRANCH  14  15
ENDBRANCH   2  14
TORSDOF 6
ENDMDL
MODEL 4
REMARK VINA RESULT:      -4.9      2.486      4.156
REMARK  Name = 
REMARK  8 active torsions:
REMARK  status: ('A' for Active; 'I' for Inactive)
REMARK    1  A    between atoms: C_1  and  C_2
REMARK    2  A    between atoms: C_2  and  N_4
REMARK    3  A    between atoms: C_2  and  C_5
REMARK    4  A    between atoms: C_7  and  C_8
REMARK    5  A    between atoms: C_9  and  O_10
REMARK    6  A    between atoms: N_11  and  C_12
REMARK    7  A    between atoms: C_12  and  C_13
REMARK    8  A    between atoms: C_13  and  O_14
REMARK                            x       y       z     vdW  Elec       q    Type
REMARK                         _______ _______ _______ _____ _____    ______ ____
ROOT
ATOM      1  C   UNL     1       8.785  -2.834  23.263  0.00  0.00    +0.130 A 
ATOM      2  N   UNL     1       8.498  -4.010  23.925  0.00  0.00    -0.287 N 
ATOM      3  C   UNL     1       7.213  -4.369  23.586  0.00  0.00    +0.216 A 
ATOM      4  C   UNL     1       6.774  -3.404  22.707  0.00  0.00    +0.100 A 
ATOM      5  C   UNL     1       5.466  -3.285  22.030  0.00  0.00    +0.071 C 
ATOM      6  N   UNL     1       7.764  -2.479  22.499  0.00  0.00    -0.232 NA
ENDROOT
BRANCH   1   8
ATOM      7  C   UNL     1       9.925  -0.851  24.326  0.00  0.00    +0.032 C 
ATOM      8  C   UNL     1      10.076  -2.068  23.411  0.00  0.00    +0.115 C 
BRANCH   8   9
ATOM      9  N   UNL     1      10.559  -1.638  22.094  0.00  0.00    -0.321 NA
ATOM     10  H   UNL     1      11.553  -1.854  22.021  0.00  0.00    +0.119 HD
ATOM     11  H   UNL     1      10.509  -0.618  22.057  0.00  0.00    +0.119 HD
ENDBRANCH   8   9
ENDBRANCH   1   8
BRANCH   3  12
ATOM     12  O   UNL     1       6.664  -5.476  24.068  0.00  0.00    -0.492 OA
ATOM     13  H   UNL     1       5.745  -5.257  24.327  0.00  0.00    +0.294 HD
ENDBRANCH   3  12
BRANCH   2  14
ATOM     14  C   UNL     1       9.300  -4.676  24.944  0.00  0.00    +0.246 C 
BRANCH  14  15
ATOM     15  C   UNL     1       8.773  -4.699  26.360  0.00  0.00    +0.325 C 
ATOM     16  O   UNL     1       8.773  -3.684  27.055  0.00  0.00    -0.249 OA
BRANCH  15  17
ATOM     17  O   UNL     1       8.245  -5.842  26.841  0.00  0.00    -0.479 OA
ATOM     18  H   UNL     1       8.340  -5.958  27.807  0.00  0.00    +0.295 HD
ENDBRANCH  15  17
ENDBRANCH  14  15
ENDBRANCH   2  14
TORSDOF 6
ENDMDL
MODEL 5
REMARK VINA RESULT:      -4.9      2.976      4.166
REMARK  Name = 
REMARK  8 active torsions:
REMARK  status: ('A' for Active; 'I' for Inactive)
REMARK    1  A    between atoms: C_1  and  C_2
REMARK    2  A    between atoms: C_2  and  N_4
REMARK    3  A    between atoms: C_2  and  C_5
REMARK    4  A    between atoms: C_7  and  C_8
REMARK    5  A    between atoms: C_9  and  O_10
REMARK    6  A    between atoms: N_11  and  C_12
REMARK    7  A    between atoms: C_12  and  C_13
REMARK    8  A    between atoms: C_13  and  O_14
REMARK                            x       y       z     vdW  Elec       q    Type
REMARK                         _______ _______ _______ _____ _____    ______ ____
ROOT
ATOM      1  C   UNL     1       6.968  -5.078  25.085  0.00  0.00    +0.130 A 
ATOM      2  N   UNL     1       5.692  -5.575  24.914  0.00  0.00    -0.287 N 
ATOM      3  C   UNL     1       5.547  -5.881  23.580  0.00  0.00    +0.216 A 
ATOM      4  C   UNL     1       6.754  -5.576  22.992  0.00  0.00    +0.100 A 
ATOM      5  C   UNL     1       7.159  -5.701  21.576  0.00  0.00    +0.071 C 
ATOM      6  N   UNL     1       7.627  -5.106  23.938  0.00  0.00    -0.232 NA
ENDROOT
BRANCH   1   8
ATOM      7  C   UNL     1       8.635  -3.544  26.195  0.00  0.00    +0.032 C 
ATOM      8  C   UNL     1       7.512  -4.564  26.395  0.00  0.00    +0.115 C 
BRANCH   8   9
ATOM      9  N   UNL     1       8.001  -5.681  27.210  0.00  0.00    -0.321 NA
ATOM     10  H   UNL     1       9.020  -5.652  27.233  0.00  0.00    +0.119 HD
ATOM     11  H   UNL     1       7.774  -6.550  26.722  0.00  0.00    +0.119 HD
ENDBRANCH   8   9
ENDBRANCH   1   8
BRANCH   3  12
ATOM     12  O   UNL     1       4.415  -6.394  23.117  0.00  0.00    -0.492 OA
ATOM     13  H   UNL     1       3.679  -5.955  23.590  0.00  0.00    +0.294 HD
ENDBRANCH   3  12
BRANCH   2  14
ATOM     14  C   UNL     1       4.612  -5.611  25.892  0.00  0.00    +0.246 C 
BRANCH  14  15
ATOM     15  C   UNL     1       4.478  -6.843  26.758  0.00  0.00    +0.325 C 
ATOM     16  O   UNL     1       5.338  -7.135  27.586  0.00  0.00    -0.249 OA
BRANCH  15  17
ATOM     17  O   UNL     1       3.366  -7.597  26.649  0.00  0.00    -0.479 OA
ATOM     18  H   UNL     1       2.633  -7.325  27.236  0.00  0.00    +0.295 HD
ENDBRANCH  15  17
ENDBRANCH  14  15
ENDBRANCH   2  14
TORSDOF 6
ENDMDL
MODEL 6
REMARK VINA RESULT:      -4.8      3.332      5.531
REMARK  Name = 
REMARK  8 active torsions:
REMARK  status: ('A' for Active; 'I' for Inactive)
REMARK    1  A    between atoms: C_1  and  C_2
REMARK    2  A    between atoms: C_2  and  N_4
REMARK    3  A    between atoms: C_2  and  C_5
REMARK    4  A    between atoms: C_7  and  C_8
REMARK    5  A    between atoms: C_9  and  O_10
REMARK    6  A    between atoms: N_11  and  C_12
REMARK    7  A    between atoms: C_12  and  C_13
REMARK    8  A    between atoms: C_13  and  O_14
REMARK                            x       y       z     vdW  Elec       q    Type
REMARK                         _______ _______ _______ _____ _____    ______ ____
ROOT
ATOM      1  C   UNL     1       8.717  -0.905  24.446  0.00  0.00    +0.130 A 
ATOM      2  N   UNL     1       9.397  -0.531  23.306  0.00  0.00    -0.287 N 
ATOM      3  C   UNL     1       8.974  -1.353  22.287  0.00  0.00    +0.216 A 
ATOM      4  C   UNL     1       8.030  -2.187  22.845  0.00  0.00    +0.100 A 
ATOM      5  C   UNL     1       7.252  -3.271  22.211  0.00  0.00    +0.071 C 
ATOM      6  N   UNL     1       7.865  -1.881  24.171  0.00  0.00    -0.232 NA
ENDROOT
BRANCH   1   8
ATOM      7  C   UNL     1       8.418  -1.188  26.935  0.00  0.00    +0.032 C 
ATOM      8  C   UNL     1       8.935  -0.292  25.807  0.00  0.00    +0.115 C 
BRANCH   8   9
ATOM      9  N   UNL     1       8.280   1.018  25.879  0.00  0.00    -0.321 NA
ATOM     10  H   UNL     1       7.392   0.917  26.370  0.00  0.00    +0.119 HD
ATOM     11  H   UNL     1       8.025   1.296  24.930  0.00  0.00    +0.119 HD
ENDBRANCH   8   9
ENDBRANCH   1   8
BRANCH   3  12
ATOM     12  O   UNL     1       9.452  -1.218  21.057  0.00  0.00    -0.492 OA
ATOM     13  H   UNL     1       9.171  -0.339  20.729  0.00  0.00    +0.294 HD
ENDBRANCH   3  12
BRANCH   2  14
ATOM     14  C   UNL     1      10.497   0.420  23.198  0.00  0.00    +0.246 C 
BRANCH  14  15
ATOM     15  C   UNL     1      10.162   1.862  22.892  0.00  0.00    +0.325 C 
ATOM     16  O   UNL     1       9.945   2.669  23.793  0.00  0.00    -0.249 OA
BRANCH  15  17
ATOM     17  O   UNL     1      10.157   2.271  21.607  0.00  0.00    -0.479 OA
ATOM     18  H   UNL     1       9.482   1.840  21.047  0.00  0.00    +0.295 HD
ENDBRANCH  15  17
ENDBRANCH  14  15
ENDBRANCH   2  14
TORSDOF 6
ENDMDL
MODEL 7
REMARK VINA RESULT:      -4.7      4.489      5.702
REMARK  Name = 
REMARK  8 active torsions:
REMARK  status: ('A' for Active; 'I' for Inactive)
REMARK    1  A    between atoms: C_1  and  C_2
REMARK    2  A    between atoms: C_2  and  N_4
REMARK    3  A    between atoms: C_2  and  C_5
REMARK    4  A    between atoms: C_7  and  C_8
REMARK    5  A    between atoms: C_9  and  O_10
REMARK    6  A    between atoms: N_11  and  C_12
REMARK    7  A    between atoms: C_12  and  C_13
REMARK    8  A    between atoms: C_13  and  O_14
REMARK                            x       y       z     vdW  Elec       q    Type
REMARK                         _______ _______ _______ _____ _____    ______ ____
ROOT
ATOM      1  C   UNL     1       8.645   1.429  24.659  0.00  0.00    +0.130 A 
ATOM      2  N   UNL     1       9.018   1.137  23.363  0.00  0.00    -0.287 N 
ATOM      3  C   UNL     1       9.508   2.296  22.806  0.00  0.00    +0.216 A 
ATOM      4  C   UNL     1       9.435   3.249  23.798  0.00  0.00    +0.100 A 
ATOM      5  C   UNL     1       9.821   4.674  23.752  0.00  0.00    +0.071 C 
ATOM      6  N   UNL     1       8.925   2.692  24.941  0.00  0.00    -0.232 NA
ENDROOT
BRANCH   1   8
ATOM      7  C   UNL     1       6.998   1.115  26.543  0.00  0.00    +0.032 C 
ATOM      8  C   UNL     1       7.999   0.444  25.601  0.00  0.00    +0.115 C 
BRANCH   8   9
ATOM      9  N   UNL     1       9.026  -0.250  26.386  0.00  0.00    -0.321 NA
ATOM     10  H   UNL     1       9.574   0.442  26.897  0.00  0.00    +0.119 HD
ATOM     11  H   UNL     1       9.686  -0.677  25.734  0.00  0.00    +0.119 HD
ENDBRANCH   8   9
ENDBRANCH   1   8
BRANCH   3  12
ATOM     12  O   UNL     1       9.957   2.317  21.558  0.00  0.00    -0.492 OA
ATOM     13  H   UNL     1       9.809   1.426  21.178  0.00  0.00    +0.294 HD
ENDBRANCH   3  12
BRANCH   2  14
ATOM     14  C   UNL     1       8.780  -0.098  22.625  0.00  0.00    +0.246 C 
BRANCH  14  15
ATOM     15  C   UNL     1       9.827  -1.186  22.707  0.00  0.00    +0.325 C 
ATOM     16  O   UNL     1      10.133  -1.694  23.783  0.00  0.00    -0.249 OA
BRANCH  15  17
ATOM     17  O   UNL     1      10.387  -1.637  21.567  0.00  0.00    -0.479 OA
ATOM     18  H   UNL     1      10.197  -1.091  20.779  0.00  0.00    +0.295 HD
ENDBRANCH  15  17
ENDBRANCH  14  15
ENDBRANCH   2  14
TORSDOF 6
ENDMDL
MODEL 8
REMARK VINA RESULT:      -4.7      2.688      3.497
REMARK  Name = 
REMARK  8 active torsions:
REMARK  status: ('A' for Active; 'I' for Inactive)
REMARK    1  A    between atoms: C_1  and  C_2
REMARK    2  A    between atoms: C_2  and  N_4
REMARK    3  A    between atoms: C_2  and  C_5
REMARK    4  A    between atoms: C_7  and  C_8
REMARK    5  A    between atoms: C_9  and  O_10
REMARK    6  A    between atoms: N_11  and  C_12
REMARK    7  A    between atoms: C_12  and  C_13
REMARK    8  A    between atoms: C_13  and  O_14
REMARK                            x       y       z     vdW  Elec       q    Type
REMARK                         _______ _______ _______ _____ _____    ______ ____
ROOT
ATOM      1  C   UNL     1       9.208  -0.916  25.125  0.00  0.00    +0.130 A 
ATOM      2  N   UNL     1       9.561  -1.812  24.137  0.00  0.00    -0.287 N 
ATOM      3  C   UNL     1       9.961  -1.079  23.042  0.00  0.00    +0.216 A 
ATOM      4  C   UNL     1       9.857   0.242  23.417  0.00  0.00    +0.100 A 
ATOM      5  C   UNL     1      10.151   1.459  22.633  0.00  0.00    +0.071 C 
ATOM      6  N   UNL     1       9.415   0.325  24.712  0.00  0.00    -0.232 NA
ENDROOT
BRANCH   1   8
ATOM      7  C   UNL     1       7.122  -1.304  26.489  0.00  0.00    +0.032 C 
ATOM      8  C   UNL     1       8.652  -1.309  26.471  0.00  0.00    +0.115 C 
BRANCH   8   9
ATOM      9  N   UNL     1       9.161  -0.405  27.508  0.00  0.00    -0.321 NA
ATOM     10  H   UNL     1       8.469   0.327  27.676  0.00  0.00    +0.119 HD
ATOM     11  H   UNL     1       9.974   0.084  27.130  0.00  0.00    +0.119 HD
ENDBRANCH   8   9
ENDBRANCH   1   8
BRANCH   3  12
ATOM     12  O   UNL     1      10.372  -1.679  21.933  0.00  0.00    -0.492 OA
ATOM     13  H   UNL     1       9.877  -1.283  21.186  0.00  0.00    +0.294 HD
ENDBRANCH   3  12
BRANCH   2  14
ATOM     14  C   UNL     1       9.381  -3.258  24.142  0.00  0.00    +0.246 C 
BRANCH  14  15
ATOM     15  C   UNL     1       8.087  -3.815  23.594  0.00  0.00    +0.325 C 
ATOM     16  O   UNL     1       7.328  -4.474  24.302  0.00  0.00    -0.249 OA
BRANCH  15  17
ATOM     17  O   UNL     1       7.742  -3.530  22.323  0.00  0.00    -0.479 OA
ATOM     18  H   UNL     1       8.393  -3.815  21.653  0.00  0.00    +0.295 HD
ENDBRANCH  15  17
ENDBRANCH  14  15
ENDBRANCH   2  14
TORSDOF 6
ENDMDL
MODEL 9
REMARK VINA RESULT:      -4.7      3.367      5.472
REMARK  Name = 
REMARK  8 active torsions:
REMARK  status: ('A' for Active; 'I' for Inactive)
REMARK    1  A    between atoms: C_1  and  C_2
REMARK    2  A    between atoms: C_2  and  N_4
REMARK    3  A    between atoms: C_2  and  C_5
REMARK    4  A    between atoms: C_7  and  C_8
REMARK    5  A    between atoms: C_9  and  O_10
REMARK    6  A    between atoms: N_11  and  C_12
REMARK    7  A    between atoms: C_12  and  C_13
REMARK    8  A    between atoms: C_13  and  O_14
REMARK                            x       y       z     vdW  Elec       q    Type
REMARK                         _______ _______ _______ _____ _____    ______ ____
ROOT
ATOM      1  C   UNL     1       5.713  -5.415  23.249  0.00  0.00    +0.130 A 
ATOM      2  N   UNL     1       6.235  -5.386  24.526  0.00  0.00    -0.287 N 
ATOM      3  C   UNL     1       5.428  -6.172  25.316  0.00  0.00    +0.216 A 
ATOM      4  C   UNL     1       4.454  -6.671  24.480  0.00  0.00    +0.100 A 
ATOM      5  C   UNL     1       3.322  -7.566  24.796  0.00  0.00    +0.071 C 
ATOM      6  N   UNL     1       4.659  -6.215  23.204  0.00  0.00    -0.232 NA
ENDROOT
BRANCH   1   8
ATOM      7  C   UNL     1       5.676  -3.222  22.003  0.00  0.00    +0.032 C 
ATOM      8  C   UNL     1       6.267  -4.631  22.085  0.00  0.00    +0.115 C 
BRANCH   8   9
ATOM      9  N   UNL     1       6.013  -5.346  20.830  0.00  0.00    -0.321 NA
ATOM     10  H   UNL     1       6.777  -5.156  20.182  0.00  0.00    +0.119 HD
ATOM     11  H   UNL     1       5.188  -4.931  20.392  0.00  0.00    +0.119 HD
ENDBRANCH   8   9
ENDBRANCH   1   8
BRANCH   3  12
ATOM     12  O   UNL     1       5.693  -6.343  26.605  0.00  0.00    -0.492 OA
ATOM     13  H   UNL     1       6.551  -5.908  26.788  0.00  0.00    +0.294 HD
ENDBRANCH   3  12
BRANCH   2  14
ATOM     14  C   UNL     1       7.317  -4.547  25.026  0.00  0.00    +0.246 C 
BRANCH  14  15
ATOM     15  C   UNL     1       8.591  -5.225  25.474  0.00  0.00    +0.325 C 
ATOM     16  O   UNL     1       9.573  -5.285  24.738  0.00  0.00    -0.249 OA
BRANCH  15  17
ATOM     17  O   UNL     1       8.659  -5.721  26.726  0.00  0.00    -0.479 OA
ATOM     18  H   UNL     1       7.805  -5.739  27.202  0.00  0.00    +0.295 HD
ENDBRANCH  15  17
ENDBRANCH  14  15
ENDBRANCH   2  14
TORSDOF 6
ENDMDL
