MODEL 1
REMARK VINA RESULT:      -5.9      0.000      0.000
REMARK  Name = 
REMARK  9 active torsions:
REMARK  status: ('A' for Active; 'I' for Inactive)
REMARK    1  A    between atoms: C_1  and  C_2
REMARK    2  A    between atoms: N_4  and  C_5
REMARK    3  A    between atoms: C_7  and  O_9
REMARK    4  A    between atoms: C_11  and  C_13
REMARK    5  A    between atoms: C_13  and  O_14
REMARK    6  A    between atoms: C_15  and  O_17
REMARK    7  A    between atoms: O_17  and  S_18
REMARK    8  A    between atoms: S_18  and  O_19
REMARK    9  A    between atoms: C_22  and  O_24
REMARK                            x       y       z     vdW  Elec       q    Type
REMARK                         _______ _______ _______ _____ _____    ______ ____
ROOT
ATOM      1  C   UNL     1       7.378  -1.752  22.690  0.00  0.00    +0.160 C 
ATOM      2  C   UNL     1       8.798  -2.363  22.691  0.00  0.00    +0.173 C 
ATOM      3  C   UNL     1       9.363  -2.464  24.122  0.00  0.00    +0.213 C 
ATOM      4  C   UNL     1       9.350  -1.082  24.805  0.00  0.00    +0.180 C 
ATOM      5  O   UNL     1       8.052  -0.479  24.748  0.00  0.00    -0.341 OA
ATOM      6  C   UNL     1       7.428  -0.395  23.464  0.00  0.00    +0.270 C 
ENDROOT
BRANCH   1   9
ATOM      7  C   UNL     1       4.774  -4.512  23.098  0.00  0.00    +0.109 C 
ATOM      8  C   UNL     1       5.633  -3.520  22.350  0.00  0.00    +0.210 C 
ATOM      9  N   UNL     1       6.406  -2.742  23.175  0.00  0.00    -0.305 N 
ATOM     10  H   UNL     1       6.612  -3.165  24.078  0.00  0.00    +0.149 HD
ATOM     11  O   UNL     1       5.614  -3.417  21.132  0.00  0.00    -0.276 OA
ENDBRANCH   1   9
BRANCH   2  12
ATOM     12  O   UNL     1       9.642  -1.577  21.840  0.00  0.00    -0.387 OA
ATOM     13  H   UNL     1       9.232  -0.696  21.732  0.00  0.00    +0.210 HD
ENDBRANCH   2  12
BRANCH   6  14
ATOM     14  O   UNL     1       8.060   0.622  22.687  0.00  0.00    -0.365 OA
ATOM     15  H   UNL     1       8.844   0.221  22.263  0.00  0.00    +0.213 HD
ENDBRANCH   6  14
BRANCH   3  16
ATOM     16  O   UNL     1       8.570  -3.328  24.956  0.00  0.00    -0.207 OA
BRANCH  16  17
ATOM     17  S   UNL     1       8.803  -4.929  24.900  0.00  0.00    +0.208 S 
ATOM     18  O   UNL     1       8.318  -5.426  23.640  0.00  0.00    -0.118 OA
ATOM     19  O   UNL     1       8.356  -5.471  26.166  0.00  0.00    -0.118 OA
BRANCH  17  20
ATOM     20  O   UNL     1      10.405  -5.063  24.919  0.00  0.00    -0.231 OA
ATOM     21  H   UNL     1      10.785  -4.162  24.880  0.00  0.00    +0.247 HD
ENDBRANCH  17  20
ENDBRANCH  16  17
ENDBRANCH   3  16
BRANCH   4  22
ATOM     22  C   UNL     1      10.483  -0.139  24.361  0.00  0.00    +0.190 C 
BRANCH  22  23
ATOM     23  O   UNL     1      10.286   1.173  24.886  0.00  0.00    -0.392 OA
ATOM     24  H   UNL     1      10.999   1.340  25.530  0.00  0.00    +0.210 HD
ENDBRANCH  22  23
ENDBRANCH   4  22
TORSDOF 8
ENDMDL
MODEL 2
REMARK VINA RESULT:      -5.6      1.842      4.659
REMARK  Name = 
REMARK  9 active torsions:
REMARK  status: ('A' for Active; 'I' for Inactive)
REMARK    1  A    between atoms: C_1  and  C_2
REMARK    2  A    between atoms: N_4  and  C_5
REMARK    3  A    between atoms: C_7  and  O_9
REMARK    4  A    between atoms: C_11  and  C_13
REMARK    5  A    between atoms: C_13  and  O_14
REMARK    6  A    between atoms: C_15  and  O_17
REMARK    7  A    between atoms: O_17  and  S_18
REMARK    8  A    between atoms: S_18  and  O_19
REMARK    9  A    between atoms: C_22  and  O_24
REMARK                            x       y       z     vdW  Elec       q    Type
REMARK                         _______ _______ _______ _____ _____    ______ ____
ROOT
ATOM      1  C   UNL     1       6.666  -2.571  23.501  0.00  0.00    +0.160 C 
ATOM      2  C   UNL     1       6.105  -3.672  24.429  0.00  0.00    +0.173 C 
ATOM      3  C   UNL     1       6.867  -5.000  24.245  0.00  0.00    +0.213 C 
ATOM      4  C   UNL     1       6.830  -5.443  22.769  0.00  0.00    +0.180 C 
ATOM      5  O   UNL     1       7.285  -4.402  21.897  0.00  0.00    -0.341 OA
ATOM      6  C   UNL     1       6.670  -3.118  22.037  0.00  0.00    +0.270 C 
ENDROOT
BRANCH   1   9
ATOM      7  C   UNL     1       9.732  -0.546  24.535  0.00  0.00    +0.109 C 
ATOM      8  C   UNL     1       8.419  -0.809  23.837  0.00  0.00    +0.210 C 
ATOM      9  N   UNL     1       7.955  -2.088  24.018  0.00  0.00    -0.305 N 
ATOM     10  H   UNL     1       8.295  -2.540  24.864  0.00  0.00    +0.149 HD
ATOM     11  O   UNL     1       7.848   0.038  23.164  0.00  0.00    -0.276 OA
ENDBRANCH   1   9
BRANCH   2  12
ATOM     12  O   UNL     1       4.703  -3.824  24.175  0.00  0.00    -0.387 OA
ATOM     13  H   UNL     1       4.593  -4.158  23.262  0.00  0.00    +0.210 HD
ENDBRANCH   2  12
BRANCH   6  14
ATOM     14  O   UNL     1       5.351  -3.154  21.494  0.00  0.00    -0.365 OA
ATOM     15  H   UNL     1       4.938  -3.990  21.784  0.00  0.00    +0.213 HD
ENDBRANCH   6  14
BRANCH   3  16
ATOM     16  O   UNL     1       8.258  -4.877  24.590  0.00  0.00    -0.207 OA
BRANCH  16  17
ATOM     17  S   UNL     1       8.703  -4.900  26.147  0.00  0.00    +0.208 S 
ATOM     18  O   UNL     1       7.871  -5.835  26.854  0.00  0.00    -0.118 OA
ATOM     19  O   UNL     1       8.849  -3.523  26.571  0.00  0.00    -0.118 OA
BRANCH  17  20
ATOM     20  O   UNL     1      10.198  -5.489  26.087  0.00  0.00    -0.231 OA
ATOM     21  H   UNL     1      10.591  -5.231  25.228  0.00  0.00    +0.247 HD
ENDBRANCH  17  20
ENDBRANCH  16  17
ENDBRANCH   3  16
BRANCH   4  22
ATOM     22  C   UNL     1       5.499  -6.076  22.325  0.00  0.00    +0.190 C 
BRANCH  22  23
ATOM     23  O   UNL     1       4.913  -6.824  23.390  0.00  0.00    -0.392 OA
ATOM     24  H   UNL     1       4.108  -7.247  23.040  0.00  0.00    +0.210 HD
ENDBRANCH  22  23
ENDBRANCH   4  22
TORSDOF 8
ENDMDL
MODEL 3
REMARK VINA RESULT:      -5.4      2.534      5.029
REMARK  Name = 
REMARK  9 active torsions:
REMARK  status: ('A' for Active; 'I' for Inactive)
REMARK    1  A    between atoms: C_1  and  C_2
REMARK    2  A    between atoms: N_4  and  C_5
REMARK    3  A    between atoms: C_7  and  O_9
REMARK    4  A    between atoms: C_11  and  C_13
REMARK    5  A    between atoms: C_13  and  O_14
REMARK    6  A    between atoms: C_15  and  O_17
REMARK    7  A    between atoms: O_17  and  S_18
REMARK    8  A    between atoms: S_18  and  O_19
REMARK    9  A    between atoms: C_22  and  O_24
REMARK                            x       y       z     vdW  Elec       q    Type
REMARK                         _______ _______ _______ _____ _____    ______ ____
ROOT
ATOM      1  C   UNL     1       9.173  -3.548  24.630  0.00  0.00    +0.160 C 
ATOM      2  C   UNL     1       8.827  -5.034  24.381  0.00  0.00    +0.173 C 
ATOM      3  C   UNL     1       7.307  -5.233  24.210  0.00  0.00    +0.213 C 
ATOM      4  C   UNL     1       6.550  -4.681  25.435  0.00  0.00    +0.180 C 
ATOM      5  O   UNL     1       6.916  -3.325  25.712  0.00  0.00    -0.341 OA
ATOM      6  C   UNL     1       8.313  -3.039  25.832  0.00  0.00    +0.270 C 
ENDROOT
BRANCH   1   9
ATOM      7  C   UNL     1       9.439  -1.042  21.763  0.00  0.00    +0.109 C 
ATOM      8  C   UNL     1       9.654  -1.574  23.161  0.00  0.00    +0.210 C 
ATOM      9  N   UNL     1       9.053  -2.789  23.377  0.00  0.00    -0.305 N 
ATOM     10  H   UNL     1       8.906  -3.339  22.534  0.00  0.00    +0.149 HD
ATOM     11  O   UNL     1      10.284  -0.961  24.010  0.00  0.00    -0.276 OA
ENDBRANCH   1   9
BRANCH   2  12
ATOM     12  O   UNL     1       9.347  -5.819  25.461  0.00  0.00    -0.387 OA
ATOM     13  H   UNL     1       9.052  -5.416  26.302  0.00  0.00    +0.210 HD
ENDBRANCH   2  12
BRANCH   6  14
ATOM     14  O   UNL     1       8.804  -3.546  27.072  0.00  0.00    -0.365 OA
ATOM     15  H   UNL     1       8.788  -4.521  27.016  0.00  0.00    +0.213 HD
ENDBRANCH   6  14
BRANCH   3  16
ATOM     16  O   UNL     1       6.794  -4.521  23.070  0.00  0.00    -0.207 OA
BRANCH  16  17
ATOM     17  S   UNL     1       5.591  -5.165  22.199  0.00  0.00    +0.208 S 
ATOM     18  O   UNL     1       5.989  -5.206  20.817  0.00  0.00    -0.118 OA
ATOM     19  O   UNL     1       4.363  -4.529  22.629  0.00  0.00    -0.118 OA
BRANCH  17  20
ATOM     20  O   UNL     1       5.509  -6.672  22.752  0.00  0.00    -0.231 OA
ATOM     21  H   UNL     1       4.750  -6.728  23.368  0.00  0.00    +0.247 HD
ENDBRANCH  17  20
ENDBRANCH  16  17
ENDBRANCH   3  16
BRANCH   4  22
ATOM     22  C   UNL     1       6.589  -5.593  26.675  0.00  0.00    +0.190 C 
BRANCH  22  23
ATOM     23  O   UNL     1       5.652  -6.662  26.548  0.00  0.00    -0.392 OA
ATOM     24  H   UNL     1       6.161  -7.492  26.498  0.00  0.00    +0.210 HD
ENDBRANCH  22  23
ENDBRANCH   4  22
TORSDOF 8
ENDMDL
MODEL 4
REMARK VINA RESULT:      -5.4      2.133      3.729
REMARK  Name = 
REMARK  9 active torsions:
REMARK  status: ('A' for Active; 'I' for Inactive)
REMARK    1  A    between atoms: C_1  and  C_2
REMARK    2  A    between atoms: N_4  and  C_5
REMARK    3  A    between atoms: C_7  and  O_9
REMARK    4  A    between atoms: C_11  and  C_13
REMARK    5  A    between atoms: C_13  and  O_14
REMARK    6  A    between atoms: C_15  and  O_17
REMARK    7  A    between atoms: O_17  and  S_18
REMARK    8  A    between atoms: S_18  and  O_19
REMARK    9  A    between atoms: C_22  and  O_24
REMARK                            x       y       z     vdW  Elec       q    Type
REMARK                         _______ _______ _______ _____ _____    ______ ____
ROOT
ATOM      1  C   UNL     1       9.362  -1.587  24.543  0.00  0.00    +0.160 C 
ATOM      2  C   UNL     1       7.936  -1.145  24.143  0.00  0.00    +0.173 C 
ATOM      3  C   UNL     1       7.723  -1.253  22.619  0.00  0.00    +0.213 C 
ATOM      4  C   UNL     1       8.791  -0.434  21.867  0.00  0.00    +0.180 C 
ATOM      5  O   UNL     1      10.115  -0.791  22.282  0.00  0.00    -0.341 OA
ATOM      6  C   UNL     1      10.385  -0.773  23.687  0.00  0.00    +0.270 C 
ENDROOT
BRANCH   1   9
ATOM      7  C   UNL     1       9.239  -5.357  25.127  0.00  0.00    +0.109 C 
ATOM      8  C   UNL     1       9.098  -3.896  25.484  0.00  0.00    +0.210 C 
ATOM      9  N   UNL     1       9.473  -3.051  24.469  0.00  0.00    -0.305 N 
ATOM     10  H   UNL     1       9.404  -3.458  23.539  0.00  0.00    +0.149 HD
ATOM     11  O   UNL     1       8.709  -3.519  26.580  0.00  0.00    -0.276 OA
ENDBRANCH   1   9
BRANCH   2  12
ATOM     12  O   UNL     1       7.712   0.188  24.618  0.00  0.00    -0.387 OA
ATOM     13  H   UNL     1       7.067   0.147  25.352  0.00  0.00    +0.210 HD
ENDBRANCH   2  12
BRANCH   6  14
ATOM     14  O   UNL     1      10.483   0.577  24.141  0.00  0.00    -0.365 OA
ATOM     15  H   UNL     1       9.579   0.878  24.360  0.00  0.00    +0.213 HD
ENDBRANCH   6  14
BRANCH   3  16
ATOM     16  O   UNL     1       7.854  -2.606  22.150  0.00  0.00    -0.207 OA
BRANCH  16  17
ATOM     17  S   UNL     1       6.598  -3.622  22.273  0.00  0.00    +0.208 S 
ATOM     18  O   UNL     1       5.571  -3.203  21.357  0.00  0.00    -0.118 OA
ATOM     19  O   UNL     1       6.341  -3.816  23.684  0.00  0.00    -0.118 OA
BRANCH  17  20
ATOM     20  O   UNL     1       7.209  -5.015  21.754  0.00  0.00    -0.231 OA
ATOM     21  H   UNL     1       8.184  -4.961  21.815  0.00  0.00    +0.247 HD
ENDBRANCH  17  20
ENDBRANCH  16  17
ENDBRANCH   3  16
BRANCH   4  22
ATOM     22  C   UNL     1       8.542   1.084  21.854  0.00  0.00    +0.190 C 
BRANCH  22  23
ATOM     23  O   UNL     1       9.702   1.785  21.407  0.00  0.00    -0.392 OA
ATOM     24  H   UNL     1      10.479   1.254  21.662  0.00  0.00    +0.210 HD
ENDBRANCH  22  23
ENDBRANCH   4  22
TORSDOF 8
ENDMDL
MODEL 5
REMARK VINA RESULT:      -5.4      2.544      4.318
REMARK  Name = 
REMARK  9 active torsions:
REMARK  status: ('A' for Active; 'I' for Inactive)
REMARK    1  A    between atoms: C_1  and  C_2
REMARK    2  A    between atoms: N_4  and  C_5
REMARK    3  A    between atoms: C_7  and  O_9
REMARK    4  A    between atoms: C_11  and  C_13
REMARK    5  A    between atoms: C_13  and  O_14
REMARK    6  A    between atoms: C_15  and  O_17
REMARK    7  A    between atoms: O_17  and  S_18
REMARK    8  A    between atoms: S_18  and  O_19
REMARK    9  A    between atoms: C_22  and  O_24
REMARK                            x       y       z     vdW  Elec       q    Type
REMARK                         _______ _______ _______ _____ _____    ______ ____
ROOT
ATOM      1  C   UNL     1       9.767  -1.816  23.943  0.00  0.00    +0.160 C 
ATOM      2  C   UNL     1       9.861  -0.322  24.325  0.00  0.00    +0.173 C 
ATOM      3  C   UNL     1       8.531   0.410  24.052  0.00  0.00    +0.213 C 
ATOM      4  C   UNL     1       8.112   0.236  22.579  0.00  0.00    +0.180 C 
ATOM      5  O   UNL     1       8.088  -1.144  22.199  0.00  0.00    -0.341 OA
ATOM      6  C   UNL     1       9.264  -1.914  22.467  0.00  0.00    +0.270 C 
ENDROOT
BRANCH   1   9
ATOM      7  C   UNL     1       8.290  -4.343  26.393  0.00  0.00    +0.109 C 
ATOM      8  C   UNL     1       9.181  -3.860  25.273  0.00  0.00    +0.210 C 
ATOM      9  N   UNL     1       8.977  -2.541  24.949  0.00  0.00    -0.305 N 
ATOM     10  H   UNL     1       8.592  -1.979  25.705  0.00  0.00    +0.149 HD
ATOM     11  O   UNL     1       9.984  -4.588  24.708  0.00  0.00    -0.276 OA
ENDBRANCH   1   9
BRANCH   2  12
ATOM     12  O   UNL     1      10.951   0.273  23.608  0.00  0.00    -0.387 OA
ATOM     13  H   UNL     1      11.143  -0.284  22.828  0.00  0.00    +0.210 HD
ENDBRANCH   2  12
BRANCH   6  14
ATOM     14  O   UNL     1      10.293  -1.560  21.543  0.00  0.00    -0.365 OA
ATOM     15  H   UNL     1      10.085  -1.995  20.694  0.00  0.00    +0.213 HD
ENDBRANCH   6  14
BRANCH   3  16
ATOM     16  O   UNL     1       7.451  -0.121  24.840  0.00  0.00    -0.207 OA
BRANCH  16  17
ATOM     17  S   UNL     1       7.274   0.350  26.379  0.00  0.00    +0.208 S 
ATOM     18  O   UNL     1       8.060  -0.510  27.222  0.00  0.00    -0.118 OA
ATOM     19  O   UNL     1       5.859   0.564  26.600  0.00  0.00    -0.118 OA
BRANCH  17  20
ATOM     20  O   UNL     1       7.934   1.816  26.386  0.00  0.00    -0.231 OA
ATOM     21  H   UNL     1       8.628   1.833  27.076  0.00  0.00    +0.247 HD
ENDBRANCH  17  20
ENDBRANCH  16  17
ENDBRANCH   3  16
BRANCH   4  22
ATOM     22  C   UNL     1       8.876   1.132  21.587  0.00  0.00    +0.190 C 
BRANCH  22  23
ATOM     23  O   UNL     1       9.200   2.387  22.183  0.00  0.00    -0.392 OA
ATOM     24  H   UNL     1       9.169   3.061  21.479  0.00  0.00    +0.210 HD
ENDBRANCH  22  23
ENDBRANCH   4  22
TORSDOF 8
ENDMDL
MODEL 6
REMARK VINA RESULT:      -5.4      3.322      6.194
REMARK  Name = 
REMARK  9 active torsions:
REMARK  status: ('A' for Active; 'I' for Inactive)
REMARK    1  A    between atoms: C_1  and  C_2
REMARK    2  A    between atoms: N_4  and  C_5
REMARK    3  A    between atoms: C_7  and  O_9
REMARK    4  A    between atoms: C_11  and  C_13
REMARK    5  A    between atoms: C_13  and  O_14
REMARK    6  A    between atoms: C_15  and  O_17
REMARK    7  A    between atoms: O_17  and  S_18
REMARK    8  A    between atoms: S_18  and  O_19
REMARK    9  A    between atoms: C_22  and  O_24
REMARK                            x       y       z     vdW  Elec       q    Type
REMARK                         _______ _______ _______ _____ _____    ______ ____
ROOT
ATOM      1  C   UNL     1       6.217  -4.641  24.232  0.00  0.00    +0.160 C 
ATOM      2  C   UNL     1       5.044  -4.468  25.223  0.00  0.00    +0.173 C 
ATOM      3  C   UNL     1       4.506  -5.833  25.698  0.00  0.00    +0.213 C 
ATOM      4  C   UNL     1       4.093  -6.699  24.491  0.00  0.00    +0.180 C 
ATOM      5  O   UNL     1       5.155  -6.809  23.536  0.00  0.00    -0.341 OA
ATOM      6  C   UNL     1       5.751  -5.590  23.082  0.00  0.00    +0.270 C 
ENDROOT
BRANCH   1   9
ATOM      7  C   UNL     1       9.748  -5.087  25.612  0.00  0.00    +0.109 C 
ATOM      8  C   UNL     1       8.686  -4.576  24.668  0.00  0.00    +0.210 C 
ATOM      9  N   UNL     1       7.430  -5.047  24.958  0.00  0.00    -0.305 N 
ATOM     10  H   UNL     1       7.299  -5.317  25.931  0.00  0.00    +0.149 HD
ATOM     11  O   UNL     1       8.939  -3.833  23.729  0.00  0.00    -0.276 OA
ENDBRANCH   1   9
BRANCH   2  12
ATOM     12  O   UNL     1       4.021  -3.682  24.598  0.00  0.00    -0.387 OA
ATOM     13  H   UNL     1       3.973  -2.821  25.059  0.00  0.00    +0.210 HD
ENDBRANCH   2  12
BRANCH   6  14
ATOM     14  O   UNL     1       4.861  -4.922  22.187  0.00  0.00    -0.365 OA
ATOM     15  H   UNL     1       4.307  -5.605  21.763  0.00  0.00    +0.213 HD
ENDBRANCH   6  14
BRANCH   3  16
ATOM     16  O   UNL     1       5.502  -6.588  26.409  0.00  0.00    -0.207 OA
BRANCH  16  17
ATOM     17  S   UNL     1       5.802  -6.253  27.965  0.00  0.00    +0.208 S 
ATOM     18  O   UNL     1       4.765  -5.391  28.463  0.00  0.00    -0.118 OA
ATOM     19  O   UNL     1       7.205  -5.910  28.066  0.00  0.00    -0.118 OA
BRANCH  17  20
ATOM     20  O   UNL     1       5.661  -7.688  28.677  0.00  0.00    -0.231 OA
ATOM     21  H   UNL     1       4.913  -7.642  29.307  0.00  0.00    +0.247 HD
ENDBRANCH  17  20
ENDBRANCH  16  17
ENDBRANCH   3  16
BRANCH   4  22
ATOM     22  C   UNL     1       2.741  -6.318  23.863  0.00  0.00    +0.190 C 
BRANCH  22  23
ATOM     23  O   UNL     1       2.577  -6.946  22.592  0.00  0.00    -0.392 OA
ATOM     24  H   UNL     1       2.763  -6.275  21.909  0.00  0.00    +0.210 HD
ENDBRANCH  22  23
ENDBRANCH   4  22
TORSDOF 8
ENDMDL
MODEL 7
REMARK VINA RESULT:      -5.4      2.591      5.164
REMARK  Name = 
REMARK  9 active torsions:
REMARK  status: ('A' for Active; 'I' for Inactive)
REMARK    1  A    between atoms: C_1  and  C_2
REMARK    2  A    between atoms: N_4  and  C_5
REMARK    3  A    between atoms: C_7  and  O_9
REMARK    4  A    between atoms: C_11  and  C_13
REMARK    5  A    between atoms: C_13  and  O_14
REMARK    6  A    between atoms: C_15  and  O_17
REMARK    7  A    between atoms: O_17  and  S_18
REMARK    8  A    between atoms: S_18  and  O_19
REMARK    9  A    between atoms: C_22  and  O_24
REMARK                            x       y       z     vdW  Elec       q    Type
REMARK                         _______ _______ _______ _____ _____    ______ ____
ROOT
ATOM      1  C   UNL     1       8.686  -3.244  23.824  0.00  0.00    +0.160 C 
ATOM      2  C   UNL     1       7.171  -3.487  24.010  0.00  0.00    +0.173 C 
ATOM      3  C   UNL     1       6.716  -3.117  25.437  0.00  0.00    +0.213 C 
ATOM      4  C   UNL     1       7.539  -3.895  26.484  0.00  0.00    +0.180 C 
ATOM      5  O   UNL     1       8.946  -3.729  26.275  0.00  0.00    -0.341 OA
ATOM      6  C   UNL     1       9.446  -3.997  24.962  0.00  0.00    +0.270 C 
ENDROOT
BRANCH   1   9
ATOM      7  C   UNL     1       9.957   0.239  22.918  0.00  0.00    +0.109 C 
ATOM      8  C   UNL     1       9.946  -1.271  22.924  0.00  0.00    +0.210 C 
ATOM      9  N   UNL     1       8.952  -1.803  23.708  0.00  0.00    -0.305 N 
ATOM     10  H   UNL     1       8.151  -1.188  23.842  0.00  0.00    +0.149 HD
ATOM     11  O   UNL     1      10.761  -1.940  22.305  0.00  0.00    -0.276 OA
ENDBRANCH   1   9
BRANCH   2  12
ATOM     12  O   UNL     1       6.877  -4.854  23.697  0.00  0.00    -0.387 OA
ATOM     13  H   UNL     1       5.913  -4.935  23.557  0.00  0.00    +0.210 HD
ENDBRANCH   2  12
BRANCH   6  14
ATOM     14  O   UNL     1       9.462  -5.406  24.731  0.00  0.00    -0.365 OA
ATOM     15  H   UNL     1      10.018  -5.809  25.425  0.00  0.00    +0.213 HD
ENDBRANCH   6  14
BRANCH   3  16
ATOM     16  O   UNL     1       6.922  -1.723  25.725  0.00  0.00    -0.207 OA
BRANCH  16  17
ATOM     17  S   UNL     1       5.764  -0.650  25.362  0.00  0.00    +0.208 S 
ATOM     18  O   UNL     1       5.974   0.541  26.140  0.00  0.00    -0.118 OA
ATOM     19  O   UNL     1       4.504  -1.363  25.367  0.00  0.00    -0.118 OA
BRANCH  17  20
ATOM     20  O   UNL     1       6.057  -0.311  23.818  0.00  0.00    -0.231 OA
ATOM     21  H   UNL     1       6.494   0.565  23.777  0.00  0.00    +0.247 HD
ENDBRANCH  17  20
ENDBRANCH  16  17
ENDBRANCH   3  16
BRANCH   4  22
ATOM     22  C   UNL     1       7.116  -5.364  26.666  0.00  0.00    +0.190 C 
BRANCH  22  23
ATOM     23  O   UNL     1       8.038  -6.057  27.506  0.00  0.00    -0.392 OA
ATOM     24  H   UNL     1       8.017  -6.997  27.248  0.00  0.00    +0.210 HD
ENDBRANCH  22  23
ENDBRANCH   4  22
TORSDOF 8
ENDMDL
MODEL 8
REMARK VINA RESULT:      -5.2      3.825      5.778
REMARK  Name = 
REMARK  9 active torsions:
REMARK  status: ('A' for Active; 'I' for Inactive)
REMARK    1  A    between atoms: C_1  and  C_2
REMARK    2  A    between atoms: N_4  and  C_5
REMARK    3  A    between atoms: C_7  and  O_9
REMARK    4  A    between atoms: C_11  and  C_13
REMARK    5  A    between atoms: C_13  and  O_14
REMARK    6  A    between atoms: C_15  and  O_17
REMARK    7  A    between atoms: O_17  and  S_18
REMARK    8  A    between atoms: S_18  and  O_19
REMARK    9  A    between atoms: C_22  and  O_24
REMARK                            x       y       z     vdW  Elec       q    Type
REMARK                         _______ _______ _______ _____ _____    ______ ____
ROOT
ATOM      1  C   UNL     1       4.857  -5.449  25.461  0.00  0.00    +0.160 C 
ATOM      2  C   UNL     1       5.648  -4.405  26.281  0.00  0.00    +0.173 C 
ATOM      3  C   UNL     1       6.787  -5.070  27.082  0.00  0.00    +0.213 C 
ATOM      4  C   UNL     1       6.229  -6.185  27.989  0.00  0.00    +0.180 C 
ATOM      5  O   UNL     1       5.437  -7.119  27.246  0.00  0.00    -0.341 OA
ATOM      6  C   UNL     1       4.391  -6.583  26.430  0.00  0.00    +0.270 C 
ENDROOT
BRANCH   1   9
ATOM      7  C   UNL     1       6.280  -6.127  21.985  0.00  0.00    +0.109 C 
ATOM      8  C   UNL     1       5.255  -5.668  22.995  0.00  0.00    +0.210 C 
ATOM      9  N   UNL     1       5.645  -5.873  24.295  0.00  0.00    -0.305 N 
ATOM     10  H   UNL     1       6.653  -5.913  24.428  0.00  0.00    +0.149 HD
ATOM     11  O   UNL     1       4.180  -5.184  22.671  0.00  0.00    -0.276 OA
ENDBRANCH   1   9
BRANCH   2  12
ATOM     12  O   UNL     1       4.739  -3.700  27.136  0.00  0.00    -0.387 OA
ATOM     13  H   UNL     1       5.246  -3.346  27.894  0.00  0.00    +0.210 HD
ENDBRANCH   2  12
BRANCH   6  14
ATOM     14  O   UNL     1       3.310  -6.149  27.255  0.00  0.00    -0.365 OA
ATOM     15  H   UNL     1       3.404  -6.597  28.118  0.00  0.00    +0.213 HD
ENDBRANCH   6  14
BRANCH   3  16
ATOM     16  O   UNL     1       7.754  -5.700  26.224  0.00  0.00    -0.207 OA
BRANCH  16  17
ATOM     17  S   UNL     1       8.898  -4.803  25.510  0.00  0.00    +0.208 S 
ATOM     18  O   UNL     1       8.982  -3.536  26.185  0.00  0.00    -0.118 OA
ATOM     19  O   UNL     1       8.690  -4.903  24.081  0.00  0.00    -0.118 OA
BRANCH  17  20
ATOM     20  O   UNL     1      10.243  -5.631  25.806  0.00  0.00    -0.231 OA
ATOM     21  H   UNL     1      11.000  -5.115  25.461  0.00  0.00    +0.247 HD
ENDBRANCH  17  20
ENDBRANCH  16  17
ENDBRANCH   3  16
BRANCH   4  22
ATOM     22  C   UNL     1       5.541  -5.682  29.271  0.00  0.00    +0.190 C 
BRANCH  22  23
ATOM     23  O   UNL     1       4.839  -6.743  29.919  0.00  0.00    -0.392 OA
ATOM     24  H   UNL     1       5.303  -7.573  29.704  0.00  0.00    +0.210 HD
ENDBRANCH  22  23
ENDBRANCH   4  22
TORSDOF 8
ENDMDL
MODEL 9
REMARK VINA RESULT:      -5.2      3.148      4.979
REMARK  Name = 
REMARK  9 active torsions:
REMARK  status: ('A' for Active; 'I' for Inactive)
REMARK    1  A    between atoms: C_1  and  C_2
REMARK    2  A    between atoms: N_4  and  C_5
REMARK    3  A    between atoms: C_7  and  O_9
REMARK    4  A    between atoms: C_11  and  C_13
REMARK    5  A    between atoms: C_13  and  O_14
REMARK    6  A    between atoms: C_15  and  O_17
REMARK    7  A    between atoms: O_17  and  S_18
REMARK    8  A    between atoms: S_18  and  O_19
REMARK    9  A    between atoms: C_22  and  O_24
REMARK                            x       y       z     vdW  Elec       q    Type
REMARK                         _______ _______ _______ _____ _____    ______ ____
ROOT
ATOM      1  C   UNL     1       8.092  -5.199  26.581  0.00  0.00    +0.160 C 
ATOM      2  C   UNL     1       7.829  -3.685  26.414  0.00  0.00    +0.173 C 
ATOM      3  C   UNL     1       7.400  -3.347  24.972  0.00  0.00    +0.213 C 
ATOM      4  C   UNL     1       8.456  -3.844  23.965  0.00  0.00    +0.180 C 
ATOM      5  O   UNL     1       8.754  -5.231  24.158  0.00  0.00    -0.341 OA
ATOM      6  C   UNL     1       9.109  -5.643  25.481  0.00  0.00    +0.270 C 
ENDROOT
BRANCH   1   9
ATOM      7  C   UNL     1       4.728  -6.756  27.489  0.00  0.00    +0.109 C 
ATOM      8  C   UNL     1       6.023  -6.018  27.736  0.00  0.00    +0.210 C 
ATOM      9  N   UNL     1       6.816  -5.928  26.619  0.00  0.00    -0.305 N 
ATOM     10  H   UNL     1       6.308  -5.987  25.739  0.00  0.00    +0.149 HD
ATOM     11  O   UNL     1       6.329  -5.571  28.832  0.00  0.00    -0.276 OA
ENDBRANCH   1   9
BRANCH   2  12
ATOM     12  O   UNL     1       9.006  -2.964  26.801  0.00  0.00    -0.387 OA
ATOM     13  H   UNL     1       9.772  -3.567  26.727  0.00  0.00    +0.210 HD
ENDBRANCH   2  12
BRANCH   6  14
ATOM     14  O   UNL     1      10.431  -5.199  25.786  0.00  0.00    -0.365 OA
ATOM     15  H   UNL     1      10.677  -5.586  26.649  0.00  0.00    +0.213 HD
ENDBRANCH   6  14
BRANCH   3  16
ATOM     16  O   UNL     1       6.168  -3.995  24.610  0.00  0.00    -0.207 OA
BRANCH  16  17
ATOM     17  S   UNL     1       5.019  -3.157  23.834  0.00  0.00    +0.208 S 
ATOM     18  O   UNL     1       3.989  -2.802  24.774  0.00  0.00    -0.118 OA
ATOM     19  O   UNL     1       4.730  -3.863  22.604  0.00  0.00    -0.118 OA
BRANCH  17  20
ATOM     20  O   UNL     1       5.788  -1.817  23.388  0.00  0.00    -0.231 OA
ATOM     21  H   UNL     1       5.617  -1.130  24.064  0.00  0.00    +0.247 HD
ENDBRANCH  17  20
ENDBRANCH  16  17
ENDBRANCH   3  16
BRANCH   4  22
ATOM     22  C   UNL     1       9.709  -2.955  23.863  0.00  0.00    +0.190 C 
BRANCH  22  23
ATOM     23  O   UNL     1       9.388  -1.592  24.135  0.00  0.00    -0.392 OA
ATOM     24  H   UNL     1      10.076  -1.041  23.719  0.00  0.00    +0.210 HD
ENDBRANCH  22  23
ENDBRANCH   4  22
TORSDOF 8
ENDMDL
