MODEL 1
REMARK VINA RESULT:      -6.1      0.000      0.000
REMARK  Name = 
REMARK  20 active torsions:
REMARK  status: ('A' for Active; 'I' for Inactive)
REMARK    1  A    between atoms: N_1  and  C_2
REMARK    2  A    between atoms: C_2  and  C_4
REMARK    3  A    between atoms: C_2  and  C_35
REMARK    4  A    between atoms: C_4  and  C_5
REMARK    5  A    between atoms: C_5  and  C_6
REMARK    6  A    between atoms: N_8  and  C_9
REMARK    7  A    between atoms: C_9  and  C_11
REMARK    8  A    between atoms: C_9  and  C_28
REMARK    9  A    between atoms: C_11  and  S_12
REMARK   10  A    between atoms: S_12  and  C_13
REMARK   11  A    between atoms: C_13  and  C_15
REMARK   12  A    between atoms: C_13  and  C_17
REMARK   13  A    between atoms: C_15  and  O_16
REMARK   14  A    between atoms: C_17  and  O_18
REMARK   15  A    between atoms: O_18  and  C_19
REMARK   16  A    between atoms: C_22  and  N_25
REMARK   17  A    between atoms: N_30  and  CA_31
REMARK   18  A    between atoms: CA_31  and  C_32
REMARK   19  A    between atoms: C_32  and  O_33
REMARK   20  A    between atoms: C_35  and  O_36
REMARK                            x       y       z     vdW  Elec       q    Type
REMARK                         _______ _______ _______ _____ _____    ______ ____
ROOT
ATOM      1  C   UNK A   1       8.283  -3.413  25.823  0.00  0.00    +0.169 C 
ENDROOT
BRANCH   1   3
ATOM      2  C   UNK A   1       6.755  -5.346  26.188  0.00  0.00    +0.214 C 
ATOM      3  N   UNK A   1       6.987  -4.102  25.659  0.00  0.00    -0.303 N 
ATOM      4  H   UNK A   1       6.362  -3.747  24.945  0.00  0.00    +0.149 HD
ATOM      5  O   UNK A   1       7.565  -5.933  26.900  0.00  0.00    -0.276 OA
BRANCH   2   6
ATOM      6  C   UNK A   1       5.410  -5.968  25.846  0.00  0.00    +0.098 C 
BRANCH   6   7
ATOM      7  C   UNK A   1       5.192  -6.312  24.367  0.00  0.00    +0.039 C 
BRANCH   7   8
ATOM      8  C   UNK A   1       4.239  -5.406  23.571  0.00  0.00    +0.161 C 
BRANCH   8   9
ATOM      9  N   UNK A   1       3.335  -6.116  22.635  0.00  0.00    -0.318 NA
ATOM     10  H   UNK A   1       3.098  -5.519  21.840  0.00  0.00    +0.119 HD
ATOM     11  H   UNK A   1       3.849  -6.903  22.230  0.00  0.00    +0.119 HD
ENDBRANCH   8   9
BRANCH   8  12
ATOM     12  C   UNK A   1       5.025  -4.354  22.810  0.00  0.00    +0.322 C 
ATOM     13  O   UNK A   1       5.515  -4.507  21.701  0.00  0.00    -0.249 OA
BRANCH  12  14
ATOM     14  O   UNK A   1       5.124  -3.180  23.472  0.00  0.00    -0.480 OA
ATOM     15  H   UNK A   1       6.070  -2.900  23.404  0.00  0.00    +0.295 HD
ENDBRANCH  12  14
ENDBRANCH   8  12
ENDBRANCH   7   8
ENDBRANCH   6   7
ENDBRANCH   2   6
ENDBRANCH   1   3
BRANCH   1  16
ATOM     16  C   UNK A   1       8.875  -3.145  24.424  0.00  0.00    +0.235 C 
ATOM     17  N   GLY A   2       8.090  -2.389  23.566  0.00  0.00    -0.303 N 
ATOM     18  H   GLY A   2       7.130  -2.189  23.831  0.00  0.00    +0.149 HD
ATOM     19  O   UNK A   1      10.013  -3.509  24.130  0.00  0.00    -0.274 OA
BRANCH  17  20
ATOM     20  CA  GLY A   2       8.472  -2.277  22.158  0.00  0.00    +0.224 C 
BRANCH  20  21
ATOM     21  C   GLY A   2       9.525  -1.233  21.798  0.00  0.00    +0.322 C 
ATOM     22  OXT GLY A   2       9.255  -0.149  21.298  0.00  0.00    -0.249 OA
BRANCH  21  23
ATOM     23  O   GLY A   2      10.795  -1.627  21.983  0.00  0.00    -0.480 OA
ATOM     24  H   GLY A   2      11.344  -1.384  21.201  0.00  0.00    +0.295 HD
ENDBRANCH  21  23
ENDBRANCH  20  21
ENDBRANCH  17  20
ENDBRANCH   1  16
BRANCH   1  25
ATOM     25  C   UNK A   1       8.060  -2.082  26.572  0.00  0.00    +0.101 C 
BRANCH  25  26
ATOM     26  S   UNK A   1       6.312  -1.527  26.561  0.00  0.00    -0.149 S 
BRANCH  26  27
ATOM     27  C   UNK A   1       6.510   0.255  26.072  0.00  0.00    +0.109 C 
BRANCH  27  28
ATOM     28  C   UNK A   1       7.999   0.598  25.937  0.00  0.00    +0.245 C 
BRANCH  28  29
ATOM     29  O   UNK A   1       8.378   0.752  24.565  0.00  0.00    -0.491 OA
BRANCH  29  30
ATOM     30  C   UNK A   1       9.126   1.866  24.291  0.00  0.00    +0.121 A 
ATOM     31  C   UNK A   1       8.504   3.091  24.546  0.00  0.00    +0.052 A 
ATOM     32  C   UNK A   1       9.181   4.295  24.324  0.00  0.00    +0.088 A 
ATOM     33  C   UNK A   1      10.495   4.267  23.830  0.00  0.00    +0.273 A 
ATOM     34  C   UNK A   1      11.119   3.049  23.552  0.00  0.00    +0.088 A 
ATOM     35  C   UNK A   1      10.437   1.853  23.783  0.00  0.00    +0.052 A 
BRANCH  33  36
ATOM     36  N   UNK A   1      11.225   5.519  23.602  0.00  0.00    +0.080 N 
ATOM     37  O   UNK A   1      10.898   6.509  24.272  0.00  0.00    +0.041 OA
ATOM     38  O   UNK A   1      12.133   5.511  22.757  0.00  0.00    -0.576 OA
ENDBRANCH  33  36
ENDBRANCH  29  30
ENDBRANCH  28  29
ENDBRANCH  27  28
BRANCH  27  39
ATOM     39  C   UNK A   1       5.726   0.534  24.771  0.00  0.00    +0.173 C 
BRANCH  39  40
ATOM     40  O   UNK A   1       5.963  -0.410  23.728  0.00  0.00    -0.394 OA
ATOM     41  H   UNK A   1       5.605  -0.064  22.895  0.00  0.00    +0.209 HD
ENDBRANCH  39  40
ENDBRANCH  27  39
ENDBRANCH  26  27
ENDBRANCH  25  26
ENDBRANCH   1  25
TORSDOF 20
ENDMDL
MODEL 2
REMARK VINA RESULT:      -6.0      2.046      3.239
REMARK  Name = 
REMARK  20 active torsions:
REMARK  status: ('A' for Active; 'I' for Inactive)
REMARK    1  A    between atoms: N_1  and  C_2
REMARK    2  A    between atoms: C_2  and  C_4
REMARK    3  A    between atoms: C_2  and  C_35
REMARK    4  A    between atoms: C_4  and  C_5
REMARK    5  A    between atoms: C_5  and  C_6
REMARK    6  A    between atoms: N_8  and  C_9
REMARK    7  A    between atoms: C_9  and  C_11
REMARK    8  A    between atoms: C_9  and  C_28
REMARK    9  A    between atoms: C_11  and  S_12
REMARK   10  A    between atoms: S_12  and  C_13
REMARK   11  A    between atoms: C_13  and  C_15
REMARK   12  A    between atoms: C_13  and  C_17
REMARK   13  A    between atoms: C_15  and  O_16
REMARK   14  A    between atoms: C_17  and  O_18
REMARK   15  A    between atoms: O_18  and  C_19
REMARK   16  A    between atoms: C_22  and  N_25
REMARK   17  A    between atoms: N_30  and  CA_31
REMARK   18  A    between atoms: CA_31  and  C_32
REMARK   19  A    between atoms: C_32  and  O_33
REMARK   20  A    between atoms: C_35  and  O_36
REMARK                            x       y       z     vdW  Elec       q    Type
REMARK                         _______ _______ _______ _____ _____    ______ ____
ROOT
ATOM      1  C   UNK A   1       8.103  -4.702  26.029  0.00  0.00    +0.169 C 
ENDROOT
BRANCH   1   3
ATOM      2  C   UNK A   1       6.307  -5.549  27.533  0.00  0.00    +0.214 C 
ATOM      3  N   UNK A   1       6.697  -4.767  26.476  0.00  0.00    -0.303 N 
ATOM      4  H   UNK A   1       5.993  -4.415  25.839  0.00  0.00    +0.149 HD
ATOM      5  O   UNK A   1       7.099  -6.178  28.229  0.00  0.00    -0.276 OA
BRANCH   2   6
ATOM      6  C   UNK A   1       4.812  -5.590  27.808  0.00  0.00    +0.098 C 
BRANCH   6   7
ATOM      7  C   UNK A   1       4.062  -6.798  27.231  0.00  0.00    +0.039 C 
BRANCH   7   8
ATOM      8  C   UNK A   1       3.562  -6.683  25.782  0.00  0.00    +0.161 C 
BRANCH   8   9
ATOM      9  N   UNK A   1       4.493  -7.210  24.754  0.00  0.00    -0.318 NA
ATOM     10  H   UNK A   1       5.046  -6.454  24.347  0.00  0.00    +0.119 HD
ATOM     11  H   UNK A   1       5.175  -7.814  25.221  0.00  0.00    +0.119 HD
ENDBRANCH   8   9
BRANCH   8  12
ATOM     12  C   UNK A   1       3.218  -5.241  25.455  0.00  0.00    +0.322 C 
ATOM     13  O   UNK A   1       2.187  -4.673  25.779  0.00  0.00    -0.249 OA
BRANCH  12  14
ATOM     14  O   UNK A   1       4.194  -4.603  24.771  0.00  0.00    -0.480 OA
ATOM     15  H   UNK A   1       4.824  -4.252  25.447  0.00  0.00    +0.295 HD
ENDBRANCH  12  14
ENDBRANCH   8  12
ENDBRANCH   7   8
ENDBRANCH   6   7
ENDBRANCH   2   6
ENDBRANCH   1   3
BRANCH   1  16
ATOM     16  C   UNK A   1       8.197  -5.327  24.621  0.00  0.00    +0.235 C 
ATOM     17  N   GLY A   2       7.040  -5.283  23.858  0.00  0.00    -0.303 N 
ATOM     18  H   GLY A   2       6.173  -4.996  24.302  0.00  0.00    +0.149 HD
ATOM     19  O   UNK A   1       9.264  -5.756  24.181  0.00  0.00    -0.274 OA
BRANCH  17  20
ATOM     20  CA  GLY A   2       6.977  -6.043  22.609  0.00  0.00    +0.224 C 
BRANCH  20  21
ATOM     21  C   GLY A   2       5.851  -5.703  21.638  0.00  0.00    +0.322 C 
ATOM     22  OXT GLY A   2       6.002  -5.648  20.425  0.00  0.00    -0.249 OA
BRANCH  21  23
ATOM     23  O   GLY A   2       4.687  -5.371  22.219  0.00  0.00    -0.480 OA
ATOM     24  H   GLY A   2       4.686  -5.649  23.165  0.00  0.00    +0.295 HD
ENDBRANCH  21  23
ENDBRANCH  20  21
ENDBRANCH  17  20
ENDBRANCH   1  16
BRANCH   1  25
ATOM     25  C   UNK A   1       8.559  -3.229  25.990  0.00  0.00    +0.101 C 
BRANCH  25  26
ATOM     26  S   UNK A   1       7.242  -2.077  25.438  0.00  0.00    -0.149 S 
BRANCH  26  27
ATOM     27  C   UNK A   1       7.816  -1.683  23.716  0.00  0.00    +0.109 C 
BRANCH  27  28
ATOM     28  C   UNK A   1       9.189  -2.320  23.463  0.00  0.00    +0.245 C 
BRANCH  28  29
ATOM     29  O   UNK A   1       9.936  -1.585  22.487  0.00  0.00    -0.491 OA
BRANCH  29  30
ATOM     30  C   UNK A   1      10.159  -0.270  22.795  0.00  0.00    +0.121 A 
ATOM     31  C   UNK A   1       9.758   0.656  21.828  0.00  0.00    +0.052 A 
ATOM     32  C   UNK A   1       9.918   2.029  22.045  0.00  0.00    +0.088 A 
ATOM     33  C   UNK A   1      10.494   2.476  23.244  0.00  0.00    +0.273 A 
ATOM     34  C   UNK A   1      10.916   1.559  24.209  0.00  0.00    +0.088 A 
ATOM     35  C   UNK A   1      10.747   0.192  23.986  0.00  0.00    +0.052 A 
BRANCH  33  36
ATOM     36  N   UNK A   1      10.658   3.912  23.494  0.00  0.00    +0.080 N 
ATOM     37  O   UNK A   1       9.646   4.566  23.788  0.00  0.00    +0.041 OA
ATOM     38  O   UNK A   1      11.800   4.386  23.407  0.00  0.00    -0.576 OA
ENDBRANCH  33  36
ENDBRANCH  29  30
ENDBRANCH  28  29
ENDBRANCH  27  28
BRANCH  27  39
ATOM     39  C   UNK A   1       6.760  -2.147  22.689  0.00  0.00    +0.173 C 
BRANCH  39  40
ATOM     40  O   UNK A   1       5.565  -2.666  23.269  0.00  0.00    -0.394 OA
ATOM     41  H   UNK A   1       5.768  -3.049  24.136  0.00  0.00    +0.209 HD
ENDBRANCH  39  40
ENDBRANCH  27  39
ENDBRANCH  26  27
ENDBRANCH  25  26
ENDBRANCH   1  25
TORSDOF 20
ENDMDL
MODEL 3
REMARK VINA RESULT:      -5.8      1.710      2.910
REMARK  Name = 
REMARK  20 active torsions:
REMARK  status: ('A' for Active; 'I' for Inactive)
REMARK    1  A    between atoms: N_1  and  C_2
REMARK    2  A    between atoms: C_2  and  C_4
REMARK    3  A    between atoms: C_2  and  C_35
REMARK    4  A    between atoms: C_4  and  C_5
REMARK    5  A    between atoms: C_5  and  C_6
REMARK    6  A    between atoms: N_8  and  C_9
REMARK    7  A    between atoms: C_9  and  C_11
REMARK    8  A    between atoms: C_9  and  C_28
REMARK    9  A    between atoms: C_11  and  S_12
REMARK   10  A    between atoms: S_12  and  C_13
REMARK   11  A    between atoms: C_13  and  C_15
REMARK   12  A    between atoms: C_13  and  C_17
REMARK   13  A    between atoms: C_15  and  O_16
REMARK   14  A    between atoms: C_17  and  O_18
REMARK   15  A    between atoms: O_18  and  C_19
REMARK   16  A    between atoms: C_22  and  N_25
REMARK   17  A    between atoms: N_30  and  CA_31
REMARK   18  A    between atoms: CA_31  and  C_32
REMARK   19  A    between atoms: C_32  and  O_33
REMARK   20  A    between atoms: C_35  and  O_36
REMARK                            x       y       z     vdW  Elec       q    Type
REMARK                         _______ _______ _______ _____ _____    ______ ____
ROOT
ATOM      1  C   UNK A   1       7.402  -4.470  25.680  0.00  0.00    +0.169 C 
ENDROOT
BRANCH   1   3
ATOM      2  C   UNK A   1       5.879  -6.005  26.916  0.00  0.00    +0.214 C 
ATOM      3  N   UNK A   1       6.074  -5.062  25.940  0.00  0.00    -0.303 N 
ATOM      4  H   UNK A   1       5.366  -4.940  25.226  0.00  0.00    +0.149 HD
ATOM      5  O   UNK A   1       6.761  -6.359  27.692  0.00  0.00    -0.276 OA
BRANCH   2   6
ATOM      6  C   UNK A   1       4.479  -6.594  26.993  0.00  0.00    +0.098 C 
BRANCH   6   7
ATOM      7  C   UNK A   1       3.421  -5.915  26.113  0.00  0.00    +0.039 C 
BRANCH   7   8
ATOM      8  C   UNK A   1       3.284  -6.422  24.669  0.00  0.00    +0.161 C 
BRANCH   8   9
ATOM      9  N   UNK A   1       4.329  -7.383  24.240  0.00  0.00    -0.318 NA
ATOM     10  H   UNK A   1       4.135  -8.316  24.610  0.00  0.00    +0.119 HD
ATOM     11  H   UNK A   1       4.271  -7.485  23.223  0.00  0.00    +0.119 HD
ENDBRANCH   8   9
BRANCH   8  12
ATOM     12  C   UNK A   1       3.248  -5.254  23.701  0.00  0.00    +0.322 C 
ATOM     13  O   UNK A   1       4.118  -4.403  23.593  0.00  0.00    -0.249 OA
BRANCH  12  14
ATOM     14  O   UNK A   1       2.146  -5.243  22.919  0.00  0.00    -0.480 OA
ATOM     15  H   UNK A   1       1.974  -4.297  22.692  0.00  0.00    +0.295 HD
ENDBRANCH  12  14
ENDBRANCH   8  12
ENDBRANCH   7   8
ENDBRANCH   6   7
ENDBRANCH   2   6
ENDBRANCH   1   3
BRANCH   1  16
ATOM     16  C   UNK A   1       7.895  -4.961  24.303  0.00  0.00    +0.235 C 
ATOM     17  N   GLY A   2       7.019  -4.782  23.243  0.00  0.00    -0.303 N 
ATOM     18  H   GLY A   2       6.066  -4.492  23.442  0.00  0.00    +0.149 HD
ATOM     19  O   UNK A   1       9.034  -5.403  24.151  0.00  0.00    -0.274 OA
BRANCH  17  20
ATOM     20  CA  GLY A   2       7.312  -5.414  21.957  0.00  0.00    +0.224 C 
BRANCH  20  21
ATOM     21  C   GLY A   2       6.141  -5.645  21.006  0.00  0.00    +0.322 C 
ATOM     22  OXT GLY A   2       6.042  -5.101  19.915  0.00  0.00    -0.249 OA
BRANCH  21  23
ATOM     23  O   GLY A   2       5.164  -6.425  21.496  0.00  0.00    -0.480 OA
ATOM     24  H   GLY A   2       5.272  -6.536  22.470  0.00  0.00    +0.295 HD
ENDBRANCH  21  23
ENDBRANCH  20  21
ENDBRANCH  17  20
ENDBRANCH   1  16
BRANCH   1  25
ATOM     25  C   UNK A   1       7.284  -2.932  25.686  0.00  0.00    +0.101 C 
BRANCH  25  26
ATOM     26  S   UNK A   1       8.887  -2.080  25.416  0.00  0.00    -0.149 S 
BRANCH  26  27
ATOM     27  C   UNK A   1       8.761  -1.655  23.612  0.00  0.00    +0.109 C 
BRANCH  27  28
ATOM     28  C   UNK A   1       8.225  -0.227  23.447  0.00  0.00    +0.245 C 
BRANCH  28  29
ATOM     29  O   UNK A   1       8.508   0.575  24.599  0.00  0.00    -0.491 OA
BRANCH  29  30
ATOM     30  C   UNK A   1       9.033   1.810  24.333  0.00  0.00    +0.121 A 
ATOM     31  C   UNK A   1       8.325   2.896  24.857  0.00  0.00    +0.052 A 
ATOM     32  C   UNK A   1       8.782   4.204  24.666  0.00  0.00    +0.088 A 
ATOM     33  C   UNK A   1       9.957   4.425  23.932  0.00  0.00    +0.273 A 
ATOM     34  C   UNK A   1      10.662   3.349  23.386  0.00  0.00    +0.088 A 
ATOM     35  C   UNK A   1      10.201   2.048  23.588  0.00  0.00    +0.052 A 
BRANCH  33  36
ATOM     36  N   UNK A   1      10.458   5.789  23.732  0.00  0.00    +0.080 N 
ATOM     37  O   UNK A   1       9.628   6.683  23.507  0.00  0.00    +0.041 OA
ATOM     38  O   UNK A   1      11.683   5.971  23.807  0.00  0.00    -0.576 OA
ENDBRANCH  33  36
ENDBRANCH  29  30
ENDBRANCH  28  29
ENDBRANCH  27  28
BRANCH  27  39
ATOM     39  C   UNK A   1      10.132  -1.847  22.929  0.00  0.00    +0.173 C 
BRANCH  39  40
ATOM     40  O   UNK A   1      10.156  -1.493  21.547  0.00  0.00    -0.394 OA
ATOM     41  H   UNK A   1       9.616  -0.700  21.409  0.00  0.00    +0.209 HD
ENDBRANCH  39  40
ENDBRANCH  27  39
ENDBRANCH  26  27
ENDBRANCH  25  26
ENDBRANCH   1  25
TORSDOF 20
ENDMDL
MODEL 4
REMARK VINA RESULT:      -5.8      2.393      5.445
REMARK  Name = 
REMARK  20 active torsions:
REMARK  status: ('A' for Active; 'I' for Inactive)
REMARK    1  A    between atoms: N_1  and  C_2
REMARK    2  A    between atoms: C_2  and  C_4
REMARK    3  A    between atoms: C_2  and  C_35
REMARK    4  A    between atoms: C_4  and  C_5
REMARK    5  A    between atoms: C_5  and  C_6
REMARK    6  A    between atoms: N_8  and  C_9
REMARK    7  A    between atoms: C_9  and  C_11
REMARK    8  A    between atoms: C_9  and  C_28
REMARK    9  A    between atoms: C_11  and  S_12
REMARK   10  A    between atoms: S_12  and  C_13
REMARK   11  A    between atoms: C_13  and  C_15
REMARK   12  A    between atoms: C_13  and  C_17
REMARK   13  A    between atoms: C_15  and  O_16
REMARK   14  A    between atoms: C_17  and  O_18
REMARK   15  A    between atoms: O_18  and  C_19
REMARK   16  A    between atoms: C_22  and  N_25
REMARK   17  A    between atoms: N_30  and  CA_31
REMARK   18  A    between atoms: CA_31  and  C_32
REMARK   19  A    between atoms: C_32  and  O_33
REMARK   20  A    between atoms: C_35  and  O_36
REMARK                            x       y       z     vdW  Elec       q    Type
REMARK                         _______ _______ _______ _____ _____    ______ ____
ROOT
ATOM      1  C   UNK A   1       5.502  -2.314  25.056  0.00  0.00    +0.169 C 
ENDROOT
BRANCH   1   3
ATOM      2  C   UNK A   1       5.856   0.141  24.826  0.00  0.00    +0.214 C 
ATOM      3  N   UNK A   1       6.325  -1.141  24.695  0.00  0.00    -0.303 N 
ATOM      4  H   UNK A   1       7.143  -1.310  24.122  0.00  0.00    +0.149 HD
ATOM      5  O   UNK A   1       4.768   0.409  25.328  0.00  0.00    -0.276 OA
BRANCH   2   6
ATOM      6  C   UNK A   1       6.780   1.236  24.317  0.00  0.00    +0.098 C 
BRANCH   6   7
ATOM      7  C   UNK A   1       6.401   1.850  22.962  0.00  0.00    +0.039 C 
BRANCH   7   8
ATOM      8  C   UNK A   1       6.084   3.354  22.940  0.00  0.00    +0.161 C 
BRANCH   8   9
ATOM      9  N   UNK A   1       6.629   4.126  24.083  0.00  0.00    -0.318 NA
ATOM     10  H   UNK A   1       6.233   3.794  24.964  0.00  0.00    +0.119 HD
ATOM     11  H   UNK A   1       7.631   3.927  24.153  0.00  0.00    +0.119 HD
ENDBRANCH   8   9
BRANCH   8  12
ATOM     12  C   UNK A   1       4.585   3.575  22.855  0.00  0.00    +0.322 C 
ATOM     13  O   UNK A   1       4.045   4.577  22.412  0.00  0.00    -0.249 OA
BRANCH  12  14
ATOM     14  O   UNK A   1       3.865   2.522  23.303  0.00  0.00    -0.480 OA
ATOM     15  H   UNK A   1       3.099   2.900  23.801  0.00  0.00    +0.295 HD
ENDBRANCH  12  14
ENDBRANCH   8  12
ENDBRANCH   7   8
ENDBRANCH   6   7
ENDBRANCH   2   6
ENDBRANCH   1   3
BRANCH   1  16
ATOM     16  C   UNK A   1       5.259  -3.151  23.783  0.00  0.00    +0.235 C 
ATOM     17  N   GLY A   2       6.231  -3.059  22.799  0.00  0.00    -0.303 N 
ATOM     18  H   GLY A   2       6.952  -2.349  22.891  0.00  0.00    +0.149 HD
ATOM     19  O   UNK A   1       4.300  -3.918  23.695  0.00  0.00    -0.274 OA
BRANCH  17  20
ATOM     20  CA  GLY A   2       5.974  -3.639  21.481  0.00  0.00    +0.224 C 
BRANCH  20  21
ATOM     21  C   GLY A   2       6.446  -5.069  21.240  0.00  0.00    +0.322 C 
ATOM     22  OXT GLY A   2       7.251  -5.644  21.960  0.00  0.00    -0.249 OA
BRANCH  21  23
ATOM     23  O   GLY A   2       5.984  -5.632  20.111  0.00  0.00    -0.480 OA
ATOM     24  H   GLY A   2       5.017  -5.804  20.188  0.00  0.00    +0.295 HD
ENDBRANCH  21  23
ENDBRANCH  20  21
ENDBRANCH  17  20
ENDBRANCH   1  16
BRANCH   1  25
ATOM     25  C   UNK A   1       6.250  -3.154  26.112  0.00  0.00    +0.101 C 
BRANCH  25  26
ATOM     26  S   UNK A   1       8.045  -2.785  26.195  0.00  0.00    -0.149 S 
BRANCH  26  27
ATOM     27  C   UNK A   1       8.675  -3.766  24.748  0.00  0.00    +0.109 C 
BRANCH  27  28
ATOM     28  C   UNK A   1       9.876  -3.052  24.114  0.00  0.00    +0.245 C 
BRANCH  28  29
ATOM     29  O   UNK A   1       9.470  -2.191  23.045  0.00  0.00    -0.491 OA
BRANCH  29  30
ATOM     30  C   UNK A   1       9.770  -0.867  23.220  0.00  0.00    +0.121 A 
ATOM     31  C   UNK A   1       9.672  -0.068  22.077  0.00  0.00    +0.052 A 
ATOM     32  C   UNK A   1       9.935   1.305  22.143  0.00  0.00    +0.088 A 
ATOM     33  C   UNK A   1      10.309   1.879  23.367  0.00  0.00    +0.273 A 
ATOM     34  C   UNK A   1      10.430   1.086  24.511  0.00  0.00    +0.088 A 
ATOM     35  C   UNK A   1      10.160  -0.281  24.437  0.00  0.00    +0.052 A 
BRANCH  33  36
ATOM     36  N   UNK A   1      10.576   3.319  23.458  0.00  0.00    +0.080 N 
ATOM     37  O   UNK A   1      11.745   3.701  23.299  0.00  0.00    +0.041 OA
ATOM     38  O   UNK A   1       9.615   4.070  23.680  0.00  0.00    -0.576 OA
ENDBRANCH  33  36
ENDBRANCH  29  30
ENDBRANCH  28  29
ENDBRANCH  27  28
BRANCH  27  39
ATOM     39  C   UNK A   1       9.019  -5.203  25.196  0.00  0.00    +0.173 C 
BRANCH  39  40
ATOM     40  O   UNK A   1      10.337  -5.356  25.718  0.00  0.00    -0.394 OA
ATOM     41  H   UNK A   1      10.956  -4.833  25.187  0.00  0.00    +0.209 HD
ENDBRANCH  39  40
ENDBRANCH  27  39
ENDBRANCH  26  27
ENDBRANCH  25  26
ENDBRANCH   1  25
TORSDOF 20
ENDMDL
MODEL 5
REMARK VINA RESULT:      -5.8      2.654      3.775
REMARK  Name = 
REMARK  20 active torsions:
REMARK  status: ('A' for Active; 'I' for Inactive)
REMARK    1  A    between atoms: N_1  and  C_2
REMARK    2  A    between atoms: C_2  and  C_4
REMARK    3  A    between atoms: C_2  and  C_35
REMARK    4  A    between atoms: C_4  and  C_5
REMARK    5  A    between atoms: C_5  and  C_6
REMARK    6  A    between atoms: N_8  and  C_9
REMARK    7  A    between atoms: C_9  and  C_11
REMARK    8  A    between atoms: C_9  and  C_28
REMARK    9  A    between atoms: C_11  and  S_12
REMARK   10  A    between atoms: S_12  and  C_13
REMARK   11  A    between atoms: C_13  and  C_15
REMARK   12  A    between atoms: C_13  and  C_17
REMARK   13  A    between atoms: C_15  and  O_16
REMARK   14  A    between atoms: C_17  and  O_18
REMARK   15  A    between atoms: O_18  and  C_19
REMARK   16  A    between atoms: C_22  and  N_25
REMARK   17  A    between atoms: N_30  and  CA_31
REMARK   18  A    between atoms: CA_31  and  C_32
REMARK   19  A    between atoms: C_32  and  O_33
REMARK   20  A    between atoms: C_35  and  O_36
REMARK                            x       y       z     vdW  Elec       q    Type
REMARK                         _______ _______ _______ _____ _____    ______ ____
ROOT
ATOM      1  C   UNK A   1       7.497  -4.446  25.707  0.00  0.00    +0.169 C 
ENDROOT
BRANCH   1   3
ATOM      2  C   UNK A   1       6.200  -5.861  27.294  0.00  0.00    +0.214 C 
ATOM      3  N   UNK A   1       6.248  -5.092  26.159  0.00  0.00    -0.303 N 
ATOM      4  H   UNK A   1       5.492  -5.157  25.488  0.00  0.00    +0.149 HD
ATOM      5  O   UNK A   1       7.155  -5.997  28.052  0.00  0.00    -0.276 OA
BRANCH   2   6
ATOM      6  C   UNK A   1       4.869  -6.543  27.572  0.00  0.00    +0.098 C 
BRANCH   6   7
ATOM      7  C   UNK A   1       3.806  -6.400  26.474  0.00  0.00    +0.039 C 
BRANCH   7   8
ATOM      8  C   UNK A   1       3.799  -7.465  25.366  0.00  0.00    +0.161 C 
BRANCH   8   9
ATOM      9  N   UNK A   1       4.812  -7.267  24.301  0.00  0.00    -0.318 NA
ATOM     10  H   UNK A   1       4.682  -7.947  23.549  0.00  0.00    +0.119 HD
ATOM     11  H   UNK A   1       4.643  -6.356  23.865  0.00  0.00    +0.119 HD
ENDBRANCH   8   9
BRANCH   8  12
ATOM     12  C   UNK A   1       2.421  -7.562  24.736  0.00  0.00    +0.322 C 
ATOM     13  O   UNK A   1       1.418  -7.001  25.149  0.00  0.00    -0.249 OA
BRANCH  12  14
ATOM     14  O   UNK A   1       2.397  -8.329  23.624  0.00  0.00    -0.480 OA
ATOM     15  H   UNK A   1       2.771  -7.776  22.895  0.00  0.00    +0.295 HD
ENDBRANCH  12  14
ENDBRANCH   8  12
ENDBRANCH   7   8
ENDBRANCH   6   7
ENDBRANCH   2   6
ENDBRANCH   1   3
BRANCH   1  16
ATOM     16  C   UNK A   1       7.908  -5.068  24.356  0.00  0.00    +0.235 C 
ATOM     17  N   GLY A   2       7.030  -4.867  23.302  0.00  0.00    -0.303 N 
ATOM     18  H   GLY A   2       6.115  -4.470  23.497  0.00  0.00    +0.149 HD
ATOM     19  O   UNK A   1       8.993  -5.631  24.214  0.00  0.00    -0.274 OA
BRANCH  17  20
ATOM     20  CA  GLY A   2       7.229  -5.603  22.053  0.00  0.00    +0.224 C 
BRANCH  20  21
ATOM     21  C   GLY A   2       6.016  -5.787  21.146  0.00  0.00    +0.322 C 
ATOM     22  OXT GLY A   2       6.053  -5.635  19.933  0.00  0.00    -0.249 OA
BRANCH  21  23
ATOM     23  O   GLY A   2       4.864  -6.039  21.790  0.00  0.00    -0.480 OA
ATOM     24  H   GLY A   2       4.101  -5.939  21.174  0.00  0.00    +0.295 HD
ENDBRANCH  21  23
ENDBRANCH  20  21
ENDBRANCH  17  20
ENDBRANCH   1  16
BRANCH   1  25
ATOM     25  C   UNK A   1       7.257  -2.930  25.545  0.00  0.00    +0.101 C 
BRANCH  25  26
ATOM     26  S   UNK A   1       8.674  -1.907  26.104  0.00  0.00    -0.149 S 
BRANCH  26  27
ATOM     27  C   UNK A   1       9.270  -1.216  24.486  0.00  0.00    +0.109 C 
BRANCH  27  28
ATOM     28  C   UNK A   1      10.200  -0.022  24.738  0.00  0.00    +0.245 C 
BRANCH  28  29
ATOM     29  O   UNK A   1      10.466   0.699  23.530  0.00  0.00    -0.491 OA
BRANCH  29  30
ATOM     30  C   UNK A   1       9.640   1.765  23.296  0.00  0.00    +0.121 A 
ATOM     31  C   UNK A   1       8.803   1.650  22.182  0.00  0.00    +0.052 A 
ATOM     32  C   UNK A   1       7.901   2.670  21.859  0.00  0.00    +0.088 A 
ATOM     33  C   UNK A   1       7.847   3.822  22.659  0.00  0.00    +0.273 A 
ATOM     34  C   UNK A   1       8.693   3.956  23.763  0.00  0.00    +0.088 A 
ATOM     35  C   UNK A   1       9.585   2.931  24.080  0.00  0.00    +0.052 A 
BRANCH  33  36
ATOM     36  N   UNK A   1       6.899   4.896  22.344  0.00  0.00    +0.080 N 
ATOM     37  O   UNK A   1       7.328   5.883  21.728  0.00  0.00    +0.041 OA
ATOM     38  O   UNK A   1       5.722   4.751  22.704  0.00  0.00    -0.576 OA
ENDBRANCH  33  36
ENDBRANCH  29  30
ENDBRANCH  28  29
ENDBRANCH  27  28
BRANCH  27  39
ATOM     39  C   UNK A   1       9.956  -2.326  23.660  0.00  0.00    +0.173 C 
BRANCH  39  40
ATOM     40  O   UNK A   1      10.572  -1.870  22.458  0.00  0.00    -0.394 OA
ATOM     41  H   UNK A   1      11.445  -1.500  22.664  0.00  0.00    +0.209 HD
ENDBRANCH  39  40
ENDBRANCH  27  39
ENDBRANCH  26  27
ENDBRANCH  25  26
ENDBRANCH   1  25
TORSDOF 20
ENDMDL
MODEL 6
REMARK VINA RESULT:      -5.7      2.189      4.728
REMARK  Name = 
REMARK  20 active torsions:
REMARK  status: ('A' for Active; 'I' for Inactive)
REMARK    1  A    between atoms: N_1  and  C_2
REMARK    2  A    between atoms: C_2  and  C_4
REMARK    3  A    between atoms: C_2  and  C_35
REMARK    4  A    between atoms: C_4  and  C_5
REMARK    5  A    between atoms: C_5  and  C_6
REMARK    6  A    between atoms: N_8  and  C_9
REMARK    7  A    between atoms: C_9  and  C_11
REMARK    8  A    between atoms: C_9  and  C_28
REMARK    9  A    between atoms: C_11  and  S_12
REMARK   10  A    between atoms: S_12  and  C_13
REMARK   11  A    between atoms: C_13  and  C_15
REMARK   12  A    between atoms: C_13  and  C_17
REMARK   13  A    between atoms: C_15  and  O_16
REMARK   14  A    between atoms: C_17  and  O_18
REMARK   15  A    between atoms: O_18  and  C_19
REMARK   16  A    between atoms: C_22  and  N_25
REMARK   17  A    between atoms: N_30  and  CA_31
REMARK   18  A    between atoms: CA_31  and  C_32
REMARK   19  A    between atoms: C_32  and  O_33
REMARK   20  A    between atoms: C_35  and  O_36
REMARK                            x       y       z     vdW  Elec       q    Type
REMARK                         _______ _______ _______ _____ _____    ______ ____
ROOT
ATOM      1  C   UNK A   1       7.027  -5.113  22.998  0.00  0.00    +0.169 C 
ENDROOT
BRANCH   1   3
ATOM      2  C   UNK A   1       8.294  -5.095  25.143  0.00  0.00    +0.214 C 
ATOM      3  N   UNK A   1       7.108  -4.966  24.466  0.00  0.00    -0.303 N 
ATOM      4  H   UNK A   1       6.239  -5.011  24.983  0.00  0.00    +0.149 HD
ATOM      5  O   UNK A   1       9.373  -5.254  24.581  0.00  0.00    -0.276 OA
BRANCH   2   6
ATOM      6  C   UNK A   1       8.199  -5.019  26.659  0.00  0.00    +0.098 C 
BRANCH   6   7
ATOM      7  C   UNK A   1       6.907  -4.405  27.215  0.00  0.00    +0.039 C 
BRANCH   7   8
ATOM      8  C   UNK A   1       6.027  -5.307  28.096  0.00  0.00    +0.161 C 
BRANCH   8   9
ATOM      9  N   UNK A   1       6.764  -6.331  28.876  0.00  0.00    -0.318 NA
ATOM     10  H   UNK A   1       6.484  -6.307  29.859  0.00  0.00    +0.119 HD
ATOM     11  H   UNK A   1       6.476  -7.255  28.542  0.00  0.00    +0.119 HD
ENDBRANCH   8   9
BRANCH   8  12
ATOM     12  C   UNK A   1       4.961  -5.986  27.257  0.00  0.00    +0.322 C 
ATOM     13  O   UNK A   1       3.757  -5.884  27.431  0.00  0.00    -0.249 OA
BRANCH  12  14
ATOM     14  O   UNK A   1       5.470  -6.724  26.245  0.00  0.00    -0.480 OA
ATOM     15  H   UNK A   1       6.032  -7.422  26.663  0.00  0.00    +0.295 HD
ENDBRANCH  12  14
ENDBRANCH   8  12
ENDBRANCH   7   8
ENDBRANCH   6   7
ENDBRANCH   2   6
ENDBRANCH   1   3
BRANCH   1  16
ATOM     16  C   UNK A   1       5.575  -5.477  22.623  0.00  0.00    +0.235 C 
ATOM     17  N   GLY A   2       4.633  -5.333  23.630  0.00  0.00    -0.303 N 
ATOM     18  H   GLY A   2       4.954  -5.156  24.577  0.00  0.00    +0.149 HD
ATOM     19  O   UNK A   1       5.271  -5.788  21.472  0.00  0.00    -0.274 OA
BRANCH  17  20
ATOM     20  CA  GLY A   2       3.284  -5.862  23.429  0.00  0.00    +0.224 C 
BRANCH  20  21
ATOM     21  C   GLY A   2       3.044  -7.326  23.783  0.00  0.00    +0.322 C 
ATOM     22  OXT GLY A   2       3.718  -7.941  24.598  0.00  0.00    -0.249 OA
BRANCH  21  23
ATOM     23  O   GLY A   2       2.087  -7.931  23.060  0.00  0.00    -0.480 OA
ATOM     24  H   GLY A   2       2.212  -8.908  23.079  0.00  0.00    +0.295 HD
ENDBRANCH  21  23
ENDBRANCH  20  21
ENDBRANCH  17  20
ENDBRANCH   1  16
BRANCH   1  25
ATOM     25  C   UNK A   1       7.435  -3.784  22.330  0.00  0.00    +0.101 C 
BRANCH  25  26
ATOM     26  S   UNK A   1       6.956  -2.305  23.305  0.00  0.00    -0.149 S 
BRANCH  26  27
ATOM     27  C   UNK A   1       8.466  -1.242  23.098  0.00  0.00    +0.109 C 
BRANCH  27  28
ATOM     28  C   UNK A   1       9.472  -1.539  24.217  0.00  0.00    +0.245 C 
BRANCH  28  29
ATOM     29  O   UNK A   1       9.425  -0.542  25.243  0.00  0.00    -0.491 OA
BRANCH  29  30
ATOM     30  C   UNK A   1       9.523   0.750  24.802  0.00  0.00    +0.121 A 
ATOM     31  C   UNK A   1       8.459   1.590  25.144  0.00  0.00    +0.052 A 
ATOM     32  C   UNK A   1       8.463   2.937  24.765  0.00  0.00    +0.088 A 
ATOM     33  C   UNK A   1       9.543   3.443  24.025  0.00  0.00    +0.273 A 
ATOM     34  C   UNK A   1      10.602   2.608  23.660  0.00  0.00    +0.088 A 
ATOM     35  C   UNK A   1      10.591   1.267  24.048  0.00  0.00    +0.052 A 
BRANCH  33  36
ATOM     36  N   UNK A   1       9.571   4.855  23.629  0.00  0.00    +0.080 N 
ATOM     37  O   UNK A   1       8.513   5.364  23.230  0.00  0.00    +0.041 OA
ATOM     38  O   UNK A   1      10.649   5.460  23.726  0.00  0.00    -0.576 OA
ENDBRANCH  33  36
ENDBRANCH  29  30
ENDBRANCH  28  29
ENDBRANCH  27  28
BRANCH  27  39
ATOM     39  C   UNK A   1       9.073  -1.457  21.695  0.00  0.00    +0.173 C 
BRANCH  39  40
ATOM     40  O   UNK A   1      10.486  -1.653  21.689  0.00  0.00    -0.394 OA
ATOM     41  H   UNK A   1      10.685  -2.566  21.947  0.00  0.00    +0.209 HD
ENDBRANCH  39  40
ENDBRANCH  27  39
ENDBRANCH  26  27
ENDBRANCH  25  26
ENDBRANCH   1  25
TORSDOF 20
ENDMDL
MODEL 7
REMARK VINA RESULT:      -5.7      2.883      8.700
REMARK  Name = 
REMARK  20 active torsions:
REMARK  status: ('A' for Active; 'I' for Inactive)
REMARK    1  A    between atoms: N_1  and  C_2
REMARK    2  A    between atoms: C_2  and  C_4
REMARK    3  A    between atoms: C_2  and  C_35
REMARK    4  A    between atoms: C_4  and  C_5
REMARK    5  A    between atoms: C_5  and  C_6
REMARK    6  A    between atoms: N_8  and  C_9
REMARK    7  A    between atoms: C_9  and  C_11
REMARK    8  A    between atoms: C_9  and  C_28
REMARK    9  A    between atoms: C_11  and  S_12
REMARK   10  A    between atoms: S_12  and  C_13
REMARK   11  A    between atoms: C_13  and  C_15
REMARK   12  A    between atoms: C_13  and  C_17
REMARK   13  A    between atoms: C_15  and  O_16
REMARK   14  A    between atoms: C_17  and  O_18
REMARK   15  A    between atoms: O_18  and  C_19
REMARK   16  A    between atoms: C_22  and  N_25
REMARK   17  A    between atoms: N_30  and  CA_31
REMARK   18  A    between atoms: CA_31  and  C_32
REMARK   19  A    between atoms: C_32  and  O_33
REMARK   20  A    between atoms: C_35  and  O_36
REMARK                            x       y       z     vdW  Elec       q    Type
REMARK                         _______ _______ _______ _____ _____    ______ ____
ROOT
ATOM      1  C   UNK A   1       9.380   2.213  23.527  0.00  0.00    +0.169 C 
ENDROOT
BRANCH   1   3
ATOM      2  C   UNK A   1       6.909   1.951  23.351  0.00  0.00    +0.214 C 
ATOM      3  N   UNK A   1       8.020   2.228  24.105  0.00  0.00    -0.303 N 
ATOM      4  H   UNK A   1       7.905   2.684  25.003  0.00  0.00    +0.149 HD
ATOM      5  O   UNK A   1       6.967   1.591  22.179  0.00  0.00    -0.276 OA
BRANCH   2   6
ATOM      6  C   UNK A   1       5.574   2.108  24.062  0.00  0.00    +0.098 C 
BRANCH   6   7
ATOM      7  C   UNK A   1       5.155   3.549  24.383  0.00  0.00    +0.039 C 
BRANCH   7   8
ATOM      8  C   UNK A   1       4.855   4.472  23.191  0.00  0.00    +0.161 C 
BRANCH   8   9
ATOM      9  N   UNK A   1       4.557   3.773  21.918  0.00  0.00    -0.318 NA
ATOM     10  H   UNK A   1       3.702   3.219  22.001  0.00  0.00    +0.119 HD
ATOM     11  H   UNK A   1       4.345   4.480  21.208  0.00  0.00    +0.119 HD
ENDBRANCH   8   9
BRANCH   8  12
ATOM     12  C   UNK A   1       6.001   5.443  22.975  0.00  0.00    +0.322 C 
ATOM     13  O   UNK A   1       6.202   6.452  23.634  0.00  0.00    -0.249 OA
BRANCH  12  14
ATOM     14  O   UNK A   1       6.827   5.076  21.971  0.00  0.00    -0.480 OA
ATOM     15  H   UNK A   1       6.323   5.211  21.131  0.00  0.00    +0.295 HD
ENDBRANCH  12  14
ENDBRANCH   8  12
ENDBRANCH   7   8
ENDBRANCH   6   7
ENDBRANCH   2   6
ENDBRANCH   1   3
BRANCH   1  16
ATOM     16  C   UNK A   1       9.956   3.643  23.596  0.00  0.00    +0.235 C 
ATOM     17  N   GLY A   2      11.275   3.787  23.194  0.00  0.00    -0.303 N 
ATOM     18  H   GLY A   2      11.829   2.952  23.031  0.00  0.00    +0.149 HD
ATOM     19  O   UNK A   1       9.250   4.603  23.905  0.00  0.00    -0.274 OA
BRANCH  17  20
ATOM     20  CA  GLY A   2      11.963   5.056  23.435  0.00  0.00    +0.224 C 
BRANCH  20  21
ATOM     21  C   GLY A   2      13.239   5.323  22.644  0.00  0.00    +0.322 C 
ATOM     22  OXT GLY A   2      13.244   5.699  21.480  0.00  0.00    -0.249 OA
BRANCH  21  23
ATOM     23  O   GLY A   2      14.377   5.023  23.293  0.00  0.00    -0.480 OA
ATOM     24  H   GLY A   2      15.071   5.692  23.089  0.00  0.00    +0.295 HD
ENDBRANCH  21  23
ENDBRANCH  20  21
ENDBRANCH  17  20
ENDBRANCH   1  16
BRANCH   1  25
ATOM     25  C   UNK A   1      10.266   1.242  24.335  0.00  0.00    +0.101 C 
BRANCH  25  26
ATOM     26  S   UNK A   1       9.321  -0.126  25.112  0.00  0.00    -0.149 S 
BRANCH  26  27
ATOM     27  C   UNK A   1       9.800  -1.551  24.021  0.00  0.00    +0.109 C 
BRANCH  27  28
ATOM     28  C   UNK A   1       9.325  -2.870  24.643  0.00  0.00    +0.245 C 
BRANCH  28  29
ATOM     29  O   UNK A   1       8.952  -3.819  23.639  0.00  0.00    -0.491 OA
BRANCH  29  30
ATOM     30  C   UNK A   1       7.810  -4.527  23.904  0.00  0.00    +0.121 A 
ATOM     31  C   UNK A   1       7.510  -4.707  25.257  0.00  0.00    +0.052 A 
ATOM     32  C   UNK A   1       6.356  -5.397  25.646  0.00  0.00    +0.088 A 
ATOM     33  C   UNK A   1       5.500  -5.919  24.664  0.00  0.00    +0.273 A 
ATOM     34  C   UNK A   1       5.801  -5.762  23.309  0.00  0.00    +0.088 A 
ATOM     35  C   UNK A   1       6.951  -5.068  22.931  0.00  0.00    +0.052 A 
BRANCH  33  36
ATOM     36  N   UNK A   1       4.279  -6.634  25.052  0.00  0.00    +0.080 N 
ATOM     37  O   UNK A   1       3.573  -6.132  25.939  0.00  0.00    +0.041 OA
ATOM     38  O   UNK A   1       4.021  -7.695  24.464  0.00  0.00    -0.576 OA
ENDBRANCH  33  36
ENDBRANCH  29  30
ENDBRANCH  28  29
ENDBRANCH  27  28
BRANCH  27  39
ATOM     39  C   UNK A   1       9.233  -1.339  22.600  0.00  0.00    +0.173 C 
BRANCH  39  40
ATOM     40  O   UNK A   1      10.143  -1.662  21.549  0.00  0.00    -0.394 OA
ATOM     41  H   UNK A   1       9.741  -1.436  20.696  0.00  0.00    +0.209 HD
ENDBRANCH  39  40
ENDBRANCH  27  39
ENDBRANCH  26  27
ENDBRANCH  25  26
ENDBRANCH   1  25
TORSDOF 20
ENDMDL
MODEL 8
REMARK VINA RESULT:      -5.6      2.258      5.515
REMARK  Name = 
REMARK  20 active torsions:
REMARK  status: ('A' for Active; 'I' for Inactive)
REMARK    1  A    between atoms: N_1  and  C_2
REMARK    2  A    between atoms: C_2  and  C_4
REMARK    3  A    between atoms: C_2  and  C_35
REMARK    4  A    between atoms: C_4  and  C_5
REMARK    5  A    between atoms: C_5  and  C_6
REMARK    6  A    between atoms: N_8  and  C_9
REMARK    7  A    between atoms: C_9  and  C_11
REMARK    8  A    between atoms: C_9  and  C_28
REMARK    9  A    between atoms: C_11  and  S_12
REMARK   10  A    between atoms: S_12  and  C_13
REMARK   11  A    between atoms: C_13  and  C_15
REMARK   12  A    between atoms: C_13  and  C_17
REMARK   13  A    between atoms: C_15  and  O_16
REMARK   14  A    between atoms: C_17  and  O_18
REMARK   15  A    between atoms: O_18  and  C_19
REMARK   16  A    between atoms: C_22  and  N_25
REMARK   17  A    between atoms: N_30  and  CA_31
REMARK   18  A    between atoms: CA_31  and  C_32
REMARK   19  A    between atoms: C_32  and  O_33
REMARK   20  A    between atoms: C_35  and  O_36
REMARK                            x       y       z     vdW  Elec       q    Type
REMARK                         _______ _______ _______ _____ _____    ______ ____
ROOT
ATOM      1  C   UNK A   1       7.304  -4.086  26.257  0.00  0.00    +0.169 C 
ENDROOT
BRANCH   1   3
ATOM      2  C   UNK A   1       7.720  -1.660  26.644  0.00  0.00    +0.214 C 
ATOM      3  N   UNK A   1       6.843  -2.708  26.528  0.00  0.00    -0.303 N 
ATOM      4  H   UNK A   1       5.895  -2.597  26.868  0.00  0.00    +0.149 HD
ATOM      5  O   UNK A   1       8.926  -1.770  26.449  0.00  0.00    -0.276 OA
BRANCH   2   6
ATOM      6  C   UNK A   1       7.102  -0.324  27.026  0.00  0.00    +0.098 C 
BRANCH   6   7
ATOM      7  C   UNK A   1       7.338   0.825  26.037  0.00  0.00    +0.039 C 
BRANCH   7   8
ATOM      8  C   UNK A   1       6.151   1.244  25.155  0.00  0.00    +0.161 C 
BRANCH   8   9
ATOM      9  N   UNK A   1       5.137   0.186  24.927  0.00  0.00    -0.318 NA
ATOM     10  H   UNK A   1       4.223   0.481  25.278  0.00  0.00    +0.119 HD
ATOM     11  H   UNK A   1       5.009   0.078  23.917  0.00  0.00    +0.119 HD
ENDBRANCH   8   9
BRANCH   8  12
ATOM     12  C   UNK A   1       6.645   1.762  23.817  0.00  0.00    +0.322 C 
ATOM     13  O   UNK A   1       6.599   1.146  22.763  0.00  0.00    -0.249 OA
BRANCH  12  14
ATOM     14  O   UNK A   1       7.138   3.019  23.882  0.00  0.00    -0.480 OA
ATOM     15  H   UNK A   1       7.246   3.325  22.948  0.00  0.00    +0.295 HD
ENDBRANCH  12  14
ENDBRANCH   8  12
ENDBRANCH   7   8
ENDBRANCH   6   7
ENDBRANCH   2   6
ENDBRANCH   1   3
BRANCH   1  16
ATOM     16  C   UNK A   1       6.885  -4.983  27.441  0.00  0.00    +0.235 C 
ATOM     17  N   GLY A   2       5.625  -4.745  27.968  0.00  0.00    -0.303 N 
ATOM     18  H   GLY A   2       5.119  -3.917  27.667  0.00  0.00    +0.149 HD
ATOM     19  O   UNK A   1       7.598  -5.909  27.825  0.00  0.00    -0.274 OA
BRANCH  17  20
ATOM     20  CA  GLY A   2       5.239  -5.393  29.221  0.00  0.00    +0.224 C 
BRANCH  20  21
ATOM     21  C   GLY A   2       4.696  -6.816  29.137  0.00  0.00    +0.322 C 
ATOM     22  OXT GLY A   2       3.807  -7.242  29.861  0.00  0.00    -0.249 OA
BRANCH  21  23
ATOM     23  O   GLY A   2       5.336  -7.612  28.264  0.00  0.00    -0.480 OA
ATOM     24  H   GLY A   2       5.621  -7.093  27.476  0.00  0.00    +0.295 HD
ENDBRANCH  21  23
ENDBRANCH  20  21
ENDBRANCH  17  20
ENDBRANCH   1  16
BRANCH   1  25
ATOM     25  C   UNK A   1       6.660  -4.591  24.950  0.00  0.00    +0.101 C 
BRANCH  25  26
ATOM     26  S   UNK A   1       7.740  -4.383  23.481  0.00  0.00    -0.149 S 
BRANCH  26  27
ATOM     27  C   UNK A   1       7.403  -2.610  23.043  0.00  0.00    +0.109 C 
BRANCH  27  28
ATOM     28  C   UNK A   1       8.442  -2.115  22.028  0.00  0.00    +0.245 C 
BRANCH  28  29
ATOM     29  O   UNK A   1       9.709  -1.876  22.650  0.00  0.00    -0.491 OA
BRANCH  29  30
ATOM     30  C   UNK A   1       9.990  -0.562  22.910  0.00  0.00    +0.121 A 
ATOM     31  C   UNK A   1       9.752   0.329  21.859  0.00  0.00    +0.052 A 
ATOM     32  C   UNK A   1       9.983   1.699  22.019  0.00  0.00    +0.088 A 
ATOM     33  C   UNK A   1      10.467   2.179  23.245  0.00  0.00    +0.273 A 
ATOM     34  C   UNK A   1      10.728   1.296  24.296  0.00  0.00    +0.088 A 
ATOM     35  C   UNK A   1      10.489  -0.068  24.128  0.00  0.00    +0.052 A 
BRANCH  33  36
ATOM     36  N   UNK A   1      10.703   3.614  23.436  0.00  0.00    +0.080 N 
ATOM     37  O   UNK A   1       9.726   4.332  23.697  0.00  0.00    +0.041 OA
ATOM     38  O   UNK A   1      11.869   4.025  23.334  0.00  0.00    -0.576 OA
ENDBRANCH  33  36
ENDBRANCH  29  30
ENDBRANCH  28  29
ENDBRANCH  27  28
BRANCH  27  39
ATOM     39  C   UNK A   1       5.958  -2.462  22.519  0.00  0.00    +0.173 C 
BRANCH  39  40
ATOM     40  O   UNK A   1       5.575  -3.451  21.565  0.00  0.00    -0.394 OA
ATOM     41  H   UNK A   1       5.678  -3.092  20.671  0.00  0.00    +0.209 HD
ENDBRANCH  39  40
ENDBRANCH  27  39
ENDBRANCH  26  27
ENDBRANCH  25  26
ENDBRANCH   1  25
TORSDOF 20
ENDMDL
MODEL 9
REMARK VINA RESULT:      -5.6      2.865      8.237
REMARK  Name = 
REMARK  20 active torsions:
REMARK  status: ('A' for Active; 'I' for Inactive)
REMARK    1  A    between atoms: N_1  and  C_2
REMARK    2  A    between atoms: C_2  and  C_4
REMARK    3  A    between atoms: C_2  and  C_35
REMARK    4  A    between atoms: C_4  and  C_5
REMARK    5  A    between atoms: C_5  and  C_6
REMARK    6  A    between atoms: N_8  and  C_9
REMARK    7  A    between atoms: C_9  and  C_11
REMARK    8  A    between atoms: C_9  and  C_28
REMARK    9  A    between atoms: C_11  and  S_12
REMARK   10  A    between atoms: S_12  and  C_13
REMARK   11  A    between atoms: C_13  and  C_15
REMARK   12  A    between atoms: C_13  and  C_17
REMARK   13  A    between atoms: C_15  and  O_16
REMARK   14  A    between atoms: C_17  and  O_18
REMARK   15  A    between atoms: O_18  and  C_19
REMARK   16  A    between atoms: C_22  and  N_25
REMARK   17  A    between atoms: N_30  and  CA_31
REMARK   18  A    between atoms: CA_31  and  C_32
REMARK   19  A    between atoms: C_32  and  O_33
REMARK   20  A    between atoms: C_35  and  O_36
REMARK                            x       y       z     vdW  Elec       q    Type
REMARK                         _______ _______ _______ _____ _____    ______ ____
ROOT
ATOM      1  C   UNK A   1       9.542  -1.130  24.734  0.00  0.00    +0.169 C 
ENDROOT
BRANCH   1   3
ATOM      2  C   UNK A   1      10.373   1.037  23.830  0.00  0.00    +0.214 C 
ATOM      3  N   UNK A   1       9.429   0.043  23.843  0.00  0.00    -0.303 N 
ATOM      4  H   UNK A   1       8.524   0.218  23.424  0.00  0.00    +0.149 HD
ATOM      5  O   UNK A   1      11.410   0.984  24.484  0.00  0.00    -0.276 OA
BRANCH   2   6
ATOM      6  C   UNK A   1      10.066   2.227  22.935  0.00  0.00    +0.098 C 
BRANCH   6   7
ATOM      7  C   UNK A   1       8.750   2.959  23.231  0.00  0.00    +0.039 C 
BRANCH   7   8
ATOM      8  C   UNK A   1       7.670   2.925  22.138  0.00  0.00    +0.161 C 
BRANCH   8   9
ATOM      9  N   UNK A   1       7.017   4.227  21.861  0.00  0.00    -0.318 NA
ATOM     10  H   UNK A   1       7.105   4.853  22.663  0.00  0.00    +0.119 HD
ATOM     11  H   UNK A   1       7.534   4.689  21.107  0.00  0.00    +0.119 HD
ENDBRANCH   8   9
BRANCH   8  12
ATOM     12  C   UNK A   1       6.609   1.894  22.478  0.00  0.00    +0.322 C 
ATOM     13  O   UNK A   1       6.815   0.702  22.647  0.00  0.00    -0.249 OA
BRANCH  12  14
ATOM     14  O   UNK A   1       5.373   2.425  22.608  0.00  0.00    -0.480 OA
ATOM     15  H   UNK A   1       4.918   2.289  21.740  0.00  0.00    +0.295 HD
ENDBRANCH  12  14
ENDBRANCH   8  12
ENDBRANCH   7   8
ENDBRANCH   6   7
ENDBRANCH   2   6
ENDBRANCH   1   3
BRANCH   1  16
ATOM     16  C   UNK A   1       8.390  -1.078  25.760  0.00  0.00    +0.235 C 
ATOM     17  N   GLY A   2       7.354  -0.203  25.467  0.00  0.00    -0.303 N 
ATOM     18  H   GLY A   2       7.473   0.454  24.702  0.00  0.00    +0.149 HD
ATOM     19  O   UNK A   1       8.361  -1.835  26.729  0.00  0.00    -0.274 OA
BRANCH  17  20
ATOM     20  CA  GLY A   2       6.340   0.072  26.484  0.00  0.00    +0.224 C 
BRANCH  20  21
ATOM     21  C   GLY A   2       4.925   0.374  26.000  0.00  0.00    +0.322 C 
ATOM     22  OXT GLY A   2       4.673   1.182  25.116  0.00  0.00    -0.249 OA
BRANCH  21  23
ATOM     23  O   GLY A   2       3.950  -0.246  26.686  0.00  0.00    -0.480 OA
ATOM     24  H   GLY A   2       4.220  -1.169  26.902  0.00  0.00    +0.295 HD
ENDBRANCH  21  23
ENDBRANCH  20  21
ENDBRANCH  17  20
ENDBRANCH   1  16
BRANCH   1  25
ATOM     25  C   UNK A   1       9.448  -2.420  23.893  0.00  0.00    +0.101 C 
BRANCH  25  26
ATOM     26  S   UNK A   1       8.724  -2.150  22.229  0.00  0.00    -0.149 S 
BRANCH  26  27
ATOM     27  C   UNK A   1       7.358  -3.410  22.230  0.00  0.00    +0.109 C 
BRANCH  27  28
ATOM     28  C   UNK A   1       7.573  -4.414  23.370  0.00  0.00    +0.245 C 
BRANCH  28  29
ATOM     29  O   UNK A   1       6.398  -5.197  23.606  0.00  0.00    -0.491 OA
BRANCH  29  30
ATOM     30  C   UNK A   1       6.173  -5.526  24.916  0.00  0.00    +0.121 A 
ATOM     31  C   UNK A   1       7.116  -5.050  25.831  0.00  0.00    +0.052 A 
ATOM     32  C   UNK A   1       6.975  -5.307  27.199  0.00  0.00    +0.088 A 
ATOM     33  C   UNK A   1       5.879  -6.058  27.651  0.00  0.00    +0.273 A 
ATOM     34  C   UNK A   1       4.941  -6.556  26.743  0.00  0.00    +0.088 A 
ATOM     35  C   UNK A   1       5.088  -6.289  25.381  0.00  0.00    +0.052 A 
BRANCH  33  36
ATOM     36  N   UNK A   1       5.708  -6.327  29.083  0.00  0.00    +0.080 N 
ATOM     37  O   UNK A   1       6.440  -5.718  29.877  0.00  0.00    +0.041 OA
ATOM     38  O   UNK A   1       4.835  -7.143  29.416  0.00  0.00    -0.576 OA
ENDBRANCH  33  36
ENDBRANCH  29  30
ENDBRANCH  28  29
ENDBRANCH  27  28
BRANCH  27  39
ATOM     39  C   UNK A   1       5.989  -2.701  22.326  0.00  0.00    +0.173 C 
BRANCH  39  40
ATOM     40  O   UNK A   1       5.761  -2.030  23.563  0.00  0.00    -0.394 OA
ATOM     41  H   UNK A   1       6.450  -2.281  24.198  0.00  0.00    +0.209 HD
ENDBRANCH  39  40
ENDBRANCH  27  39
ENDBRANCH  26  27
ENDBRANCH  25  26
ENDBRANCH   1  25
TORSDOF 20
ENDMDL
