MODEL 1
REMARK VINA RESULT:      -6.3      0.000      0.000
REMARK  Name = 
REMARK  9 active torsions:
REMARK  status: ('A' for Active; 'I' for Inactive)
REMARK    1  A    between atoms: O_1  and  C_2
REMARK    2  A    between atoms: C_2  and  C_3
REMARK    3  A    between atoms: C_3  and  O_4
REMARK    4  A    between atoms: O_4  and  C_5
REMARK    5  A    between atoms: C_5  and  C_6
REMARK    6  A    between atoms: C_6  and  N_7
REMARK    7  A    between atoms: N_10  and  C_13
REMARK    8  A    between atoms: C_13  and  C_14
REMARK    9  A    between atoms: C_13  and  C_20
REMARK                            x       y       z     vdW  Elec       q    Type
REMARK                         _______ _______ _______ _____ _____    ______ ____
ROOT
ATOM      1  C   UNL     1       7.160  -2.392  24.060  0.00  0.00    +0.117 C 
ENDROOT
BRANCH   1   2
ATOM      2  C   UNL     1       6.381  -2.702  25.350  0.00  0.00    -0.026 A 
ATOM      3  C   UNL     1       6.832  -3.643  26.289  0.00  0.00    +0.007 A 
ATOM      4  C   UNL     1       6.093  -3.922  27.444  0.00  0.00    +0.020 A 
ATOM      5  C   UNL     1       4.906  -3.239  27.688  0.00  0.00    +0.041 A 
ATOM      6 CL   UNL     1       4.002  -3.577  29.112  0.00  0.00    -0.084 Cl
ATOM      7  C   UNL     1       4.452  -2.278  26.789  0.00  0.00    +0.020 A 
ATOM      8  C   UNL     1       5.181  -2.015  25.624  0.00  0.00    +0.007 A 
ENDBRANCH   1   2
BRANCH   1  12
ATOM      9  N   UNL     1       8.897   0.935  23.570  0.00  0.00    -0.298 NA
ATOM     10  C   UNL     1       8.332   0.474  24.856  0.00  0.00    +0.100 C 
ATOM     11  C   UNL     1       8.765  -0.944  25.304  0.00  0.00    +0.100 C 
ATOM     12  N   UNL     1       8.589  -2.015  24.293  0.00  0.00    -0.289 NA
ATOM     13  C   UNL     1       9.234  -1.534  23.042  0.00  0.00    +0.100 C 
ATOM     14  C   UNL     1       8.752  -0.142  22.568  0.00  0.00    +0.100 C 
BRANCH   9  15
ATOM     15  C   UNL     1      10.294   1.404  23.713  0.00  0.00    +0.112 C 
BRANCH  15  16
ATOM     16  C   UNL     1      10.396   2.941  23.693  0.00  0.00    +0.175 C 
BRANCH  16  17
ATOM     17  O   UNL     1      11.714   3.390  23.344  0.00  0.00    -0.376 OA
BRANCH  17  18
ATOM     18  C   UNL     1      11.763   4.818  23.443  0.00  0.00    +0.187 C 
BRANCH  18  19
ATOM     19  C   UNL     1      12.908   5.400  22.627  0.00  0.00    +0.184 C 
BRANCH  19  20
ATOM     20  O   UNL     1      14.148   5.003  23.208  0.00  0.00    -0.393 OA
ATOM     21  H   UNL     1      13.981   4.838  24.150  0.00  0.00    +0.209 HD
ENDBRANCH  19  20
ENDBRANCH  18  19
ENDBRANCH  17  18
ENDBRANCH  16  17
ENDBRANCH  15  16
ENDBRANCH   9  15
ENDBRANCH   1  12
BRANCH   1  22
ATOM     22  C   UNL     1       7.039  -3.541  23.039  0.00  0.00    -0.026 A 
ATOM     23  C   UNL     1       7.709  -4.758  23.258  0.00  0.00    +0.005 A 
ATOM     24  C   UNL     1       7.517  -5.845  22.399  0.00  0.00    +0.000 A 
ATOM     25  C   UNL     1       6.672  -5.728  21.297  0.00  0.00    +0.000 A 
ATOM     26  C   UNL     1       6.019  -4.525  21.051  0.00  0.00    +0.000 A 
ATOM     27  C   UNL     1       6.192  -3.446  21.919  0.00  0.00    +0.005 A 
ENDBRANCH   1  22
TORSDOF 9
ENDMDL
MODEL 2
REMARK VINA RESULT:      -6.2      2.077      2.429
REMARK  Name = 
REMARK  9 active torsions:
REMARK  status: ('A' for Active; 'I' for Inactive)
REMARK    1  A    between atoms: O_1  and  C_2
REMARK    2  A    between atoms: C_2  and  C_3
REMARK    3  A    between atoms: C_3  and  O_4
REMARK    4  A    between atoms: O_4  and  C_5
REMARK    5  A    between atoms: C_5  and  C_6
REMARK    6  A    between atoms: C_6  and  N_7
REMARK    7  A    between atoms: N_10  and  C_13
REMARK    8  A    between atoms: C_13  and  C_14
REMARK    9  A    between atoms: C_13  and  C_20
REMARK                            x       y       z     vdW  Elec       q    Type
REMARK                         _______ _______ _______ _____ _____    ______ ____
ROOT
ATOM      1  C   UNL     1       7.032  -3.561  24.928  0.00  0.00    +0.117 C 
ENDROOT
BRANCH   1   2
ATOM      2  C   UNL     1       6.338  -4.394  26.020  0.00  0.00    -0.026 A 
ATOM      3  C   UNL     1       7.059  -5.187  26.927  0.00  0.00    +0.007 A 
ATOM      4  C   UNL     1       6.403  -5.951  27.898  0.00  0.00    +0.020 A 
ATOM      5  C   UNL     1       5.016  -5.908  27.991  0.00  0.00    +0.041 A 
ATOM      6 CL   UNL     1       4.210  -6.843  29.190  0.00  0.00    -0.084 Cl
ATOM      7  C   UNL     1       4.279  -5.106  27.125  0.00  0.00    +0.020 A 
ATOM      8  C   UNL     1       4.935  -4.358  26.141  0.00  0.00    +0.007 A 
ENDBRANCH   1   2
BRANCH   1  12
ATOM      9  N   UNL     1       8.855  -0.245  24.950  0.00  0.00    -0.298 NA
ATOM     10  C   UNL     1       8.271  -0.881  26.151  0.00  0.00    +0.100 C 
ATOM     11  C   UNL     1       8.666  -2.361  26.379  0.00  0.00    +0.100 C 
ATOM     12  N   UNL     1       8.468  -3.261  25.217  0.00  0.00    -0.289 NA
ATOM     13  C   UNL     1       9.132  -2.613  24.055  0.00  0.00    +0.100 C 
ATOM     14  C   UNL     1       8.688  -1.153  23.797  0.00  0.00    +0.100 C 
BRANCH   9  15
ATOM     15  C   UNL     1      10.262   0.161  25.165  0.00  0.00    +0.112 C 
BRANCH  15  16
ATOM     16  C   UNL     1      10.678   1.328  24.249  0.00  0.00    +0.175 C 
BRANCH  16  17
ATOM     17  O   UNL     1       9.727   2.402  24.278  0.00  0.00    -0.376 OA
BRANCH  17  18
ATOM     18  C   UNL     1       9.422   2.793  22.934  0.00  0.00    +0.187 C 
BRANCH  18  19
ATOM     19  C   UNL     1       9.985   1.808  21.920  0.00  0.00    +0.184 C 
BRANCH  19  20
ATOM     20  O   UNL     1       8.933   1.361  21.067  0.00  0.00    -0.393 OA
ATOM     21  H   UNL     1       9.313   0.698  20.469  0.00  0.00    +0.209 HD
ENDBRANCH  19  20
ENDBRANCH  18  19
ENDBRANCH  17  18
ENDBRANCH  16  17
ENDBRANCH  15  16
ENDBRANCH   9  15
ENDBRANCH   1  12
BRANCH   1  22
ATOM     22  C   UNL     1       6.858  -4.202  23.536  0.00  0.00    -0.026 A 
ATOM     23  C   UNL     1       7.413  -5.465  23.263  0.00  0.00    +0.005 A 
ATOM     24  C   UNL     1       7.168  -6.107  22.044  0.00  0.00    +0.000 A 
ATOM     25  C   UNL     1       6.384  -5.489  21.072  0.00  0.00    +0.000 A 
ATOM     26  C   UNL     1       5.845  -4.230  21.315  0.00  0.00    +0.000 A 
ATOM     27  C   UNL     1       6.072  -3.598  22.538  0.00  0.00    +0.005 A 
ENDBRANCH   1  22
TORSDOF 9
ENDMDL
MODEL 3
REMARK VINA RESULT:      -6.1      4.050      8.039
REMARK  Name = 
REMARK  9 active torsions:
REMARK  status: ('A' for Active; 'I' for Inactive)
REMARK    1  A    between atoms: O_1  and  C_2
REMARK    2  A    between atoms: C_2  and  C_3
REMARK    3  A    between atoms: C_3  and  O_4
REMARK    4  A    between atoms: O_4  and  C_5
REMARK    5  A    between atoms: C_5  and  C_6
REMARK    6  A    between atoms: C_6  and  N_7
REMARK    7  A    between atoms: N_10  and  C_13
REMARK    8  A    between atoms: C_13  and  C_14
REMARK    9  A    between atoms: C_13  and  C_20
REMARK                            x       y       z     vdW  Elec       q    Type
REMARK                         _______ _______ _______ _____ _____    ______ ____
ROOT
ATOM      1  C   UNL     1       8.913   2.317  23.878  0.00  0.00    +0.117 C 
ENDROOT
BRANCH   1   2
ATOM      2  C   UNL     1       7.433   2.683  23.678  0.00  0.00    -0.026 A 
ATOM      3  C   UNL     1       6.486   2.564  24.708  0.00  0.00    +0.007 A 
ATOM      4  C   UNL     1       5.142   2.884  24.492  0.00  0.00    +0.020 A 
ATOM      5  C   UNL     1       4.732   3.355  23.249  0.00  0.00    +0.041 A 
ATOM      6 CL   UNL     1       3.080   3.755  22.988  0.00  0.00    -0.084 Cl
ATOM      7  C   UNL     1       5.656   3.512  22.220  0.00  0.00    +0.020 A 
ATOM      8  C   UNL     1       6.997   3.172  22.430  0.00  0.00    +0.007 A 
ENDBRANCH   1   2
BRANCH   1  12
ATOM      9  N   UNL     1       9.119  -1.386  24.638  0.00  0.00    -0.298 NA
ATOM     10  C   UNL     1       7.974  -0.738  23.963  0.00  0.00    +0.100 C 
ATOM     11  C   UNL     1       8.335   0.165  22.757  0.00  0.00    +0.100 C 
ATOM     12  N   UNL     1       9.379   1.187  23.015  0.00  0.00    -0.289 NA
ATOM     13  C   UNL     1      10.533   0.476  23.627  0.00  0.00    +0.100 C 
ATOM     14  C   UNL     1      10.174  -0.376  24.868  0.00  0.00    +0.100 C 
BRANCH   9  15
ATOM     15  C   UNL     1       9.606  -2.569  23.893  0.00  0.00    +0.112 C 
BRANCH  15  16
ATOM     16  C   UNL     1       8.704  -3.800  24.104  0.00  0.00    +0.175 C 
BRANCH  16  17
ATOM     17  O   UNL     1       9.430  -4.917  24.637  0.00  0.00    -0.376 OA
BRANCH  17  18
ATOM     18  C   UNL     1       9.423  -4.839  26.068  0.00  0.00    +0.187 C 
BRANCH  18  19
ATOM     19  C   UNL     1       8.007  -4.849  26.625  0.00  0.00    +0.184 C 
BRANCH  19  20
ATOM     20  O   UNL     1       7.869  -5.937  27.537  0.00  0.00    -0.393 OA
ATOM     21  H   UNL     1       7.271  -5.643  28.243  0.00  0.00    +0.209 HD
ENDBRANCH  19  20
ENDBRANCH  18  19
ENDBRANCH  17  18
ENDBRANCH  16  17
ENDBRANCH  15  16
ENDBRANCH   9  15
ENDBRANCH   1  12
BRANCH   1  22
ATOM     22  C   UNL     1       9.824   3.552  23.731  0.00  0.00    -0.026 A 
ATOM     23  C   UNL     1       9.365   4.822  24.123  0.00  0.00    +0.005 A 
ATOM     24  C   UNL     1      10.219   5.930  24.101  0.00  0.00    +0.000 A 
ATOM     25  C   UNL     1      11.536   5.793  23.667  0.00  0.00    +0.000 A 
ATOM     26  C   UNL     1      12.001   4.549  23.254  0.00  0.00    +0.000 A 
ATOM     27  C   UNL     1      11.157   3.438  23.296  0.00  0.00    +0.005 A 
ENDBRANCH   1  22
TORSDOF 9
ENDMDL
MODEL 4
REMARK VINA RESULT:      -5.8      4.065      8.092
REMARK  Name = 
REMARK  9 active torsions:
REMARK  status: ('A' for Active; 'I' for Inactive)
REMARK    1  A    between atoms: O_1  and  C_2
REMARK    2  A    between atoms: C_2  and  C_3
REMARK    3  A    between atoms: C_3  and  O_4
REMARK    4  A    between atoms: O_4  and  C_5
REMARK    5  A    between atoms: C_5  and  C_6
REMARK    6  A    between atoms: C_6  and  N_7
REMARK    7  A    between atoms: N_10  and  C_13
REMARK    8  A    between atoms: C_13  and  C_14
REMARK    9  A    between atoms: C_13  and  C_20
REMARK                            x       y       z     vdW  Elec       q    Type
REMARK                         _______ _______ _______ _____ _____    ______ ____
ROOT
ATOM      1  C   UNL     1       8.969   2.146  23.944  0.00  0.00    +0.117 C 
ENDROOT
BRANCH   1   2
ATOM      2  C   UNL     1       7.486   2.459  23.680  0.00  0.00    -0.026 A 
ATOM      3  C   UNL     1       7.027   2.907  22.432  0.00  0.00    +0.007 A 
ATOM      4  C   UNL     1       5.676   3.205  22.224  0.00  0.00    +0.020 A 
ATOM      5  C   UNL     1       4.762   3.030  23.258  0.00  0.00    +0.041 A 
ATOM      6 CL   UNL     1       3.100   3.390  22.999  0.00  0.00    -0.084 Cl
ATOM      7  C   UNL     1       5.185   2.557  24.497  0.00  0.00    +0.020 A 
ATOM      8  C   UNL     1       6.540   2.279  24.709  0.00  0.00    +0.007 A 
ENDBRANCH   1   2
BRANCH   1  12
ATOM      9  N   UNL     1       8.580  -1.585  24.454  0.00  0.00    -0.298 NA
ATOM     10  C   UNL     1       7.707  -0.769  23.582  0.00  0.00    +0.100 C 
ATOM     11  C   UNL     1       8.443   0.137  22.563  0.00  0.00    +0.100 C 
ATOM     12  N   UNL     1       9.501   1.008  23.131  0.00  0.00    -0.289 NA
ATOM     13  C   UNL     1      10.390   0.132  23.939  0.00  0.00    +0.100 C 
ATOM     14  C   UNL     1       9.653  -0.726  24.996  0.00  0.00    +0.100 C 
BRANCH   9  15
ATOM     15  C   UNL     1       9.097  -2.783  23.757  0.00  0.00    +0.112 C 
BRANCH  15  16
ATOM     16  C   UNL     1       9.122  -4.023  24.672  0.00  0.00    +0.175 C 
BRANCH  16  17
ATOM     17  O   UNL     1       8.727  -5.215  23.978  0.00  0.00    -0.376 OA
BRANCH  17  18
ATOM     18  C   UNL     1       7.465  -4.987  23.339  0.00  0.00    +0.187 C 
BRANCH  18  19
ATOM     19  C   UNL     1       7.320  -5.812  22.068  0.00  0.00    +0.184 C 
BRANCH  19  20
ATOM     20  O   UNL     1       6.157  -6.630  22.169  0.00  0.00    -0.393 OA
ATOM     21  H   UNL     1       6.373  -7.484  21.763  0.00  0.00    +0.209 HD
ENDBRANCH  19  20
ENDBRANCH  18  19
ENDBRANCH  17  18
ENDBRANCH  16  17
ENDBRANCH  15  16
ENDBRANCH   9  15
ENDBRANCH   1  12
BRANCH   1  22
ATOM     22  C   UNL     1       9.846   3.405  23.794  0.00  0.00    -0.026 A 
ATOM     23  C   UNL     1       9.381   4.651  24.251  0.00  0.00    +0.005 A 
ATOM     24  C   UNL     1      10.210   5.778  24.225  0.00  0.00    +0.000 A 
ATOM     25  C   UNL     1      11.506   5.684  23.722  0.00  0.00    +0.000 A 
ATOM     26  C   UNL     1      11.976   4.465  23.244  0.00  0.00    +0.000 A 
ATOM     27  C   UNL     1      11.158   3.335  23.290  0.00  0.00    +0.005 A 
ENDBRANCH   1  22
TORSDOF 9
ENDMDL
MODEL 5
REMARK VINA RESULT:      -5.7      4.820      7.573
REMARK  Name = 
REMARK  9 active torsions:
REMARK  status: ('A' for Active; 'I' for Inactive)
REMARK    1  A    between atoms: O_1  and  C_2
REMARK    2  A    between atoms: C_2  and  C_3
REMARK    3  A    between atoms: C_3  and  O_4
REMARK    4  A    between atoms: O_4  and  C_5
REMARK    5  A    between atoms: C_5  and  C_6
REMARK    6  A    between atoms: C_6  and  N_7
REMARK    7  A    between atoms: N_10  and  C_13
REMARK    8  A    between atoms: C_13  and  C_14
REMARK    9  A    between atoms: C_13  and  C_20
REMARK                            x       y       z     vdW  Elec       q    Type
REMARK                         _______ _______ _______ _____ _____    ______ ____
ROOT
ATOM      1  C   UNL     1       7.055  -2.706  24.064  0.00  0.00    +0.117 C 
ENDROOT
BRANCH   1   2
ATOM      2  C   UNL     1       7.896  -1.518  23.566  0.00  0.00    -0.026 A 
ATOM      3  C   UNL     1       9.291  -1.471  23.721  0.00  0.00    +0.007 A 
ATOM      4  C   UNL     1      10.029  -0.369  23.278  0.00  0.00    +0.020 A 
ATOM      5  C   UNL     1       9.383   0.690  22.647  0.00  0.00    +0.041 A 
ATOM      6 CL   UNL     1      10.293   2.041  22.097  0.00  0.00    -0.084 Cl
ATOM      7  C   UNL     1       8.005   0.654  22.453  0.00  0.00    +0.020 A 
ATOM      8  C   UNL     1       7.265  -0.439  22.915  0.00  0.00    +0.007 A 
ENDBRANCH   1   2
BRANCH   1  12
ATOM      9  N   UNL     1       5.553  -3.295  27.488  0.00  0.00    -0.298 NA
ATOM     10  C   UNL     1       6.264  -2.060  27.093  0.00  0.00    +0.100 C 
ATOM     11  C   UNL     1       5.784  -1.409  25.772  0.00  0.00    +0.100 C 
ATOM     12  N   UNL     1       5.715  -2.315  24.601  0.00  0.00    -0.289 NA
ATOM     13  C   UNL     1       4.932  -3.506  25.026  0.00  0.00    +0.100 C 
ATOM     14  C   UNL     1       5.455  -4.188  26.314  0.00  0.00    +0.100 C 
BRANCH   9  15
ATOM     15  C   UNL     1       4.239  -3.007  28.104  0.00  0.00    +0.112 C 
BRANCH  15  16
ATOM     16  C   UNL     1       3.903  -3.988  29.243  0.00  0.00    +0.175 C 
BRANCH  16  17
ATOM     17  O   UNL     1       5.075  -4.414  29.953  0.00  0.00    -0.376 OA
BRANCH  17  18
ATOM     18  C   UNL     1       5.048  -5.840  30.087  0.00  0.00    +0.187 C 
BRANCH  18  19
ATOM     19  C   UNL     1       6.102  -6.507  29.214  0.00  0.00    +0.184 C 
BRANCH  19  20
ATOM     20  O   UNL     1       5.496  -7.564  28.473  0.00  0.00    -0.393 OA
ATOM     21  H   UNL     1       5.753  -8.396  28.902  0.00  0.00    +0.209 HD
ENDBRANCH  19  20
ENDBRANCH  18  19
ENDBRANCH  17  18
ENDBRANCH  16  17
ENDBRANCH  15  16
ENDBRANCH   9  15
ENDBRANCH   1  12
BRANCH   1  22
ATOM     22  C   UNL     1       6.933  -3.801  22.985  0.00  0.00    -0.026 A 
ATOM     23  C   UNL     1       7.541  -5.056  23.177  0.00  0.00    +0.005 A 
ATOM     24  C   UNL     1       7.344  -6.094  22.260  0.00  0.00    +0.000 A 
ATOM     25  C   UNL     1       6.557  -5.890  21.129  0.00  0.00    +0.000 A 
ATOM     26  C   UNL     1       5.966  -4.650  20.911  0.00  0.00    +0.000 A 
ATOM     27  C   UNL     1       6.144  -3.620  21.835  0.00  0.00    +0.005 A 
ENDBRANCH   1  22
TORSDOF 9
ENDMDL
MODEL 6
REMARK VINA RESULT:      -5.7      2.586      4.756
REMARK  Name = 
REMARK  9 active torsions:
REMARK  status: ('A' for Active; 'I' for Inactive)
REMARK    1  A    between atoms: O_1  and  C_2
REMARK    2  A    between atoms: C_2  and  C_3
REMARK    3  A    between atoms: C_3  and  O_4
REMARK    4  A    between atoms: O_4  and  C_5
REMARK    5  A    between atoms: C_5  and  C_6
REMARK    6  A    between atoms: C_6  and  N_7
REMARK    7  A    between atoms: N_10  and  C_13
REMARK    8  A    between atoms: C_13  and  C_14
REMARK    9  A    between atoms: C_13  and  C_20
REMARK                            x       y       z     vdW  Elec       q    Type
REMARK                         _______ _______ _______ _____ _____    ______ ____
ROOT
ATOM      1  C   UNL     1       7.056  -2.911  25.718  0.00  0.00    +0.117 C 
ENDROOT
BRANCH   1   2
ATOM      2  C   UNL     1       6.805  -3.730  24.439  0.00  0.00    -0.026 A 
ATOM      3  C   UNL     1       7.795  -4.544  23.866  0.00  0.00    +0.007 A 
ATOM      4  C   UNL     1       7.548  -5.262  22.691  0.00  0.00    +0.020 A 
ATOM      5  C   UNL     1       6.295  -5.196  22.090  0.00  0.00    +0.041 A 
ATOM      6 CL   UNL     1       5.991  -6.084  20.649  0.00  0.00    -0.084 Cl
ATOM      7  C   UNL     1       5.286  -4.421  22.654  0.00  0.00    +0.020 A 
ATOM      8  C   UNL     1       5.541  -3.687  23.818  0.00  0.00    +0.007 A 
ENDBRANCH   1   2
BRANCH   1  12
ATOM      9  N   UNL     1       9.597  -0.193  25.024  0.00  0.00    -0.298 NA
ATOM     10  C   UNL     1       8.815  -0.887  23.978  0.00  0.00    +0.100 C 
ATOM     11  C   UNL     1       7.285  -0.936  24.212  0.00  0.00    +0.100 C 
ATOM     12  N   UNL     1       6.858  -1.439  25.541  0.00  0.00    -0.289 NA
ATOM     13  C   UNL     1       7.618  -0.663  26.557  0.00  0.00    +0.100 C 
ATOM     14  C   UNL     1       9.152  -0.669  26.350  0.00  0.00    +0.100 C 
BRANCH   9  15
ATOM     15  C   UNL     1       9.526   1.278  24.886  0.00  0.00    +0.112 C 
BRANCH  15  16
ATOM     16  C   UNL     1      10.562   1.820  23.883  0.00  0.00    +0.175 C 
BRANCH  16  17
ATOM     17  O   UNL     1       9.959   2.639  22.871  0.00  0.00    -0.376 OA
BRANCH  17  18
ATOM     18  C   UNL     1       8.534   2.571  23.003  0.00  0.00    +0.187 C 
BRANCH  18  19
ATOM     19  C   UNL     1       7.879   2.016  21.746  0.00  0.00    +0.184 C 
BRANCH  19  20
ATOM     20  O   UNL     1       8.850   1.295  20.991  0.00  0.00    -0.393 OA
ATOM     21  H   UNL     1       8.383   0.884  20.246  0.00  0.00    +0.209 HD
ENDBRANCH  19  20
ENDBRANCH  18  19
ENDBRANCH  17  18
ENDBRANCH  16  17
ENDBRANCH  15  16
ENDBRANCH   9  15
ENDBRANCH   1  12
BRANCH   1  22
ATOM     22  C   UNL     1       6.232  -3.453  26.903  0.00  0.00    -0.026 A 
ATOM     23  C   UNL     1       5.080  -2.772  27.336  0.00  0.00    +0.005 A 
ATOM     24  C   UNL     1       4.262  -3.312  28.334  0.00  0.00    +0.000 A 
ATOM     25  C   UNL     1       4.593  -4.526  28.932  0.00  0.00    +0.000 A 
ATOM     26  C   UNL     1       5.741  -5.203  28.534  0.00  0.00    +0.000 A 
ATOM     27  C   UNL     1       6.547  -4.676  27.523  0.00  0.00    +0.005 A 
ENDBRANCH   1  22
TORSDOF 9
ENDMDL
MODEL 7
REMARK VINA RESULT:      -5.7      2.892      5.270
REMARK  Name = 
REMARK  9 active torsions:
REMARK  status: ('A' for Active; 'I' for Inactive)
REMARK    1  A    between atoms: O_1  and  C_2
REMARK    2  A    between atoms: C_2  and  C_3
REMARK    3  A    between atoms: C_3  and  O_4
REMARK    4  A    between atoms: O_4  and  C_5
REMARK    5  A    between atoms: C_5  and  C_6
REMARK    6  A    between atoms: C_6  and  N_7
REMARK    7  A    between atoms: N_10  and  C_13
REMARK    8  A    between atoms: C_13  and  C_14
REMARK    9  A    between atoms: C_13  and  C_20
REMARK                            x       y       z     vdW  Elec       q    Type
REMARK                         _______ _______ _______ _____ _____    ______ ____
ROOT
ATOM      1  C   UNL     1       6.033  -4.688  25.893  0.00  0.00    +0.117 C 
ENDROOT
BRANCH   1   2
ATOM      2  C   UNL     1       4.757  -4.944  25.073  0.00  0.00    -0.026 A 
ATOM      3  C   UNL     1       3.616  -4.134  25.191  0.00  0.00    +0.007 A 
ATOM      4  C   UNL     1       2.461  -4.401  24.449  0.00  0.00    +0.020 A 
ATOM      5  C   UNL     1       2.443  -5.468  23.556  0.00  0.00    +0.041 A 
ATOM      6 CL   UNL     1       1.024  -5.791  22.639  0.00  0.00    -0.084 Cl
ATOM      7  C   UNL     1       3.571  -6.267  23.396  0.00  0.00    +0.020 A 
ATOM      8  C   UNL     1       4.718  -6.011  24.154  0.00  0.00    +0.007 A 
ENDBRANCH   1   2
BRANCH   1  12
ATOM      9  N   UNL     1       9.189  -3.675  24.066  0.00  0.00    -0.298 NA
ATOM     10  C   UNL     1       7.843  -3.686  23.455  0.00  0.00    +0.100 C 
ATOM     11  C   UNL     1       6.742  -2.945  24.256  0.00  0.00    +0.100 C 
ATOM     12  N   UNL     1       6.623  -3.329  25.684  0.00  0.00    -0.289 NA
ATOM     13  C   UNL     1       7.987  -3.234  26.268  0.00  0.00    +0.100 C 
ATOM     14  C   UNL     1       9.070  -4.027  25.497  0.00  0.00    +0.100 C 
BRANCH   9  15
ATOM     15  C   UNL     1       9.889  -2.390  23.845  0.00  0.00    +0.112 C 
BRANCH  15  16
ATOM     16  C   UNL     1       9.659  -1.839  22.425  0.00  0.00    +0.175 C 
BRANCH  16  17
ATOM     17  O   UNL     1       9.125  -0.507  22.442  0.00  0.00    -0.376 OA
BRANCH  17  18
ATOM     18  C   UNL     1      10.084   0.374  23.038  0.00  0.00    +0.187 C 
BRANCH  18  19
ATOM     19  C   UNL     1       9.720   1.835  22.818  0.00  0.00    +0.184 C 
BRANCH  19  20
ATOM     20  O   UNL     1      10.259   2.270  21.572  0.00  0.00    -0.393 OA
ATOM     21  H   UNL     1       9.513   2.373  20.959  0.00  0.00    +0.209 HD
ENDBRANCH  19  20
ENDBRANCH  18  19
ENDBRANCH  17  18
ENDBRANCH  16  17
ENDBRANCH  15  16
ENDBRANCH   9  15
ENDBRANCH   1  12
BRANCH   1  22
ATOM     22  C   UNL     1       5.809  -4.981  27.390  0.00  0.00    -0.026 A 
ATOM     23  C   UNL     1       4.971  -4.153  28.157  0.00  0.00    +0.005 A 
ATOM     24  C   UNL     1       4.669  -4.472  29.485  0.00  0.00    +0.000 A 
ATOM     25  C   UNL     1       5.217  -5.609  30.075  0.00  0.00    +0.000 A 
ATOM     26  C   UNL     1       6.067  -6.429  29.339  0.00  0.00    +0.000 A 
ATOM     27  C   UNL     1       6.351  -6.123  28.007  0.00  0.00    +0.005 A 
ENDBRANCH   1  22
TORSDOF 9
ENDMDL
MODEL 8
REMARK VINA RESULT:      -5.6      4.739      8.344
REMARK  Name = 
REMARK  9 active torsions:
REMARK  status: ('A' for Active; 'I' for Inactive)
REMARK    1  A    between atoms: O_1  and  C_2
REMARK    2  A    between atoms: C_2  and  C_3
REMARK    3  A    between atoms: C_3  and  O_4
REMARK    4  A    between atoms: O_4  and  C_5
REMARK    5  A    between atoms: C_5  and  C_6
REMARK    6  A    between atoms: C_6  and  N_7
REMARK    7  A    between atoms: N_10  and  C_13
REMARK    8  A    between atoms: C_13  and  C_14
REMARK    9  A    between atoms: C_13  and  C_20
REMARK                            x       y       z     vdW  Elec       q    Type
REMARK                         _______ _______ _______ _____ _____    ______ ____
ROOT
ATOM      1  C   UNL     1       7.610  -0.416  24.578  0.00  0.00    +0.117 C 
ENDROOT
BRANCH   1   2
ATOM      2  C   UNL     1       8.662   0.652  24.235  0.00  0.00    -0.026 A 
ATOM      3  C   UNL     1      10.026   0.479  24.522  0.00  0.00    +0.007 A 
ATOM      4  C   UNL     1      10.960   1.475  24.218  0.00  0.00    +0.020 A 
ATOM      5  C   UNL     1      10.543   2.648  23.596  0.00  0.00    +0.041 A 
ATOM      6 CL   UNL     1      11.694   3.869  23.217  0.00  0.00    -0.084 Cl
ATOM      7  C   UNL     1       9.202   2.832  23.272  0.00  0.00    +0.020 A 
ATOM      8  C   UNL     1       8.267   1.843  23.595  0.00  0.00    +0.007 A 
ENDBRANCH   1   2
BRANCH   1  12
ATOM      9  N   UNL     1       6.676  -3.503  22.597  0.00  0.00    -0.298 NA
ATOM     10  C   UNL     1       7.784  -2.591  22.241  0.00  0.00    +0.100 C 
ATOM     11  C   UNL     1       8.776  -2.271  23.387  0.00  0.00    +0.100 C 
ATOM     12  N   UNL     1       8.161  -1.805  24.654  0.00  0.00    -0.289 NA
ATOM     13  C   UNL     1       7.104  -2.790  25.004  0.00  0.00    +0.100 C 
ATOM     14  C   UNL     1       6.080  -3.059  23.875  0.00  0.00    +0.100 C 
BRANCH   9  15
ATOM     15  C   UNL     1       7.107  -4.918  22.622  0.00  0.00    +0.112 C 
BRANCH  15  16
ATOM     16  C   UNL     1       5.944  -5.875  22.947  0.00  0.00    +0.175 C 
BRANCH  16  17
ATOM     17  O   UNL     1       4.731  -5.497  22.280  0.00  0.00    -0.376 OA
BRANCH  17  18
ATOM     18  C   UNL     1       3.612  -5.980  23.034  0.00  0.00    +0.187 C 
BRANCH  18  19
ATOM     19  C   UNL     1       4.055  -6.817  24.225  0.00  0.00    +0.184 C 
BRANCH  19  20
ATOM     20  O   UNL     1       3.414  -8.089  24.168  0.00  0.00    -0.393 OA
ATOM     21  H   UNL     1       3.697  -8.515  23.343  0.00  0.00    +0.209 HD
ENDBRANCH  19  20
ENDBRANCH  18  19
ENDBRANCH  17  18
ENDBRANCH  16  17
ENDBRANCH  15  16
ENDBRANCH   9  15
ENDBRANCH   1  12
BRANCH   1  22
ATOM     22  C   UNL     1       6.830  -0.049  25.856  0.00  0.00    -0.026 A 
ATOM     23  C   UNL     1       7.510   0.134  27.074  0.00  0.00    +0.005 A 
ATOM     24  C   UNL     1       6.831   0.578  28.214  0.00  0.00    +0.000 A 
ATOM     25  C   UNL     1       5.461   0.824  28.162  0.00  0.00    +0.000 A 
ATOM     26  C   UNL     1       4.767   0.628  26.972  0.00  0.00    +0.000 A 
ATOM     27  C   UNL     1       5.447   0.206  25.829  0.00  0.00    +0.005 A 
ENDBRANCH   1  22
TORSDOF 9
ENDMDL
MODEL 9
REMARK VINA RESULT:      -5.5      4.399      7.676
REMARK  Name = 
REMARK  9 active torsions:
REMARK  status: ('A' for Active; 'I' for Inactive)
REMARK    1  A    between atoms: O_1  and  C_2
REMARK    2  A    between atoms: C_2  and  C_3
REMARK    3  A    between atoms: C_3  and  O_4
REMARK    4  A    between atoms: O_4  and  C_5
REMARK    5  A    between atoms: C_5  and  C_6
REMARK    6  A    between atoms: C_6  and  N_7
REMARK    7  A    between atoms: N_10  and  C_13
REMARK    8  A    between atoms: C_13  and  C_14
REMARK    9  A    between atoms: C_13  and  C_20
REMARK                            x       y       z     vdW  Elec       q    Type
REMARK                         _______ _______ _______ _____ _____    ______ ____
ROOT
ATOM      1  C   UNL     1       7.539  -0.653  24.363  0.00  0.00    +0.117 C 
ENDROOT
BRANCH   1   2
ATOM      2  C   UNL     1       6.535  -0.048  25.360  0.00  0.00    -0.026 A 
ATOM      3  C   UNL     1       5.623   0.953  24.989  0.00  0.00    +0.007 A 
ATOM      4  C   UNL     1       4.735   1.501  25.921  0.00  0.00    +0.020 A 
ATOM      5  C   UNL     1       4.729   1.032  27.230  0.00  0.00    +0.041 A 
ATOM      6 CL   UNL     1       3.631   1.702  28.373  0.00  0.00    -0.084 Cl
ATOM      7  C   UNL     1       5.601   0.018  27.616  0.00  0.00    +0.020 A 
ATOM      8  C   UNL     1       6.503  -0.514  26.689  0.00  0.00    +0.007 A 
ENDBRANCH   1   2
BRANCH   1  12
ATOM      9  N   UNL     1       7.292  -4.399  23.877  0.00  0.00    -0.298 NA
ATOM     10  C   UNL     1       6.246  -3.573  24.517  0.00  0.00    +0.100 C 
ATOM     11  C   UNL     1       5.802  -2.322  23.717  0.00  0.00    +0.100 C 
ATOM     12  N   UNL     1       6.899  -1.434  23.260  0.00  0.00    -0.289 NA
ATOM     13  C   UNL     1       7.888  -2.299  22.562  0.00  0.00    +0.100 C 
ATOM     14  C   UNL     1       8.372  -3.513  23.391  0.00  0.00    +0.100 C 
BRANCH   9  15
ATOM     15  C   UNL     1       6.740  -5.270  22.815  0.00  0.00    +0.112 C 
BRANCH  15  16
ATOM     16  C   UNL     1       5.488  -6.034  23.283  0.00  0.00    +0.175 C 
BRANCH  16  17
ATOM     17  O   UNL     1       4.346  -5.756  22.461  0.00  0.00    -0.376 OA
BRANCH  17  18
ATOM     18  C   UNL     1       3.161  -5.836  23.262  0.00  0.00    +0.187 C 
BRANCH  18  19
ATOM     19  C   UNL     1       3.250  -6.956  24.288  0.00  0.00    +0.184 C 
BRANCH  19  20
ATOM     20  O   UNL     1       2.773  -8.166  23.705  0.00  0.00    -0.393 OA
ATOM     21  H   UNL     1       3.034  -8.154  22.770  0.00  0.00    +0.209 HD
ENDBRANCH  19  20
ENDBRANCH  18  19
ENDBRANCH  17  18
ENDBRANCH  16  17
ENDBRANCH  15  16
ENDBRANCH   9  15
ENDBRANCH   1  12
BRANCH   1  22
ATOM     22  C   UNL     1       8.500   0.419  23.811  0.00  0.00    -0.026 A 
ATOM     23  C   UNL     1       9.636   0.800  24.549  0.00  0.00    +0.005 A 
ATOM     24  C   UNL     1      10.575   1.686  24.010  0.00  0.00    +0.000 A 
ATOM     25  C   UNL     1      10.384   2.223  22.738  0.00  0.00    +0.000 A 
ATOM     26  C   UNL     1       9.255   1.875  22.003  0.00  0.00    +0.000 A 
ATOM     27  C   UNL     1       8.329   0.975  22.530  0.00  0.00    +0.005 A 
ENDBRANCH   1  22
TORSDOF 9
ENDMDL
