MODEL 1
REMARK VINA RESULT:      -5.0      0.000      0.000
REMARK  Name = 
REMARK  10 active torsions:
REMARK  status: ('A' for Active; 'I' for Inactive)
REMARK    1  A    between atoms: C_1  and  C_2
REMARK    2  A    between atoms: C_2  and  C_3
REMARK    3  A    between atoms: C_3  and  N_4
REMARK    4  A    between atoms: N_9  and  C_10
REMARK    5  A    between atoms: C_10  and  C_11
REMARK    6  A    between atoms: C_11  and  C_12
REMARK    7  A    between atoms: C_12  and  C_13
REMARK    8  A    between atoms: C_13  and  N_15
REMARK    9  A    between atoms: C_13  and  C_16
REMARK   10  A    between atoms: C_16  and  O_17
REMARK                            x       y       z     vdW  Elec       q    Type
REMARK                         _______ _______ _______ _____ _____    ______ ____
ROOT
ATOM      1  N   UNK     1       8.427  -1.743  22.348  0.00  0.00    -0.279 N 
ATOM      2  H   UNK     1       9.157  -2.296  21.921  0.00  0.00    +0.258 HD
ATOM      3  C   UNK     1       7.238  -2.342  22.585  0.00  0.00    +0.343 C 
ATOM      4  N   UNK     1       7.161  -3.690  22.499  0.00  0.00    -0.279 N 
ATOM      5  H   UNK     1       8.038  -4.178  22.362  0.00  0.00    +0.258 HD
ATOM      6  N   UNK     1       6.152  -1.604  22.867  0.00  0.00    -0.292 N 
ATOM      7  H   UNK     1       6.192  -0.595  22.867  0.00  0.00    +0.255 HD
ATOM      8  H   UNK     1       5.265  -2.027  23.096  0.00  0.00    +0.255 HD
ENDROOT
BRANCH   1   9
ATOM      9  C   UNK     1       8.775  -0.378  22.776  0.00  0.00    +0.195 C 
BRANCH   9  11
ATOM     10  C   UNK     1      10.044   1.666  22.018  0.00  0.00    +0.007 C 
ATOM     11  C   UNK     1       9.164   0.499  21.589  0.00  0.00    +0.034 C 
ENDBRANCH   9  11
ENDBRANCH   1   9
BRANCH   4  12
ATOM     12  C   UNK     1       5.950  -4.470  22.784  0.00  0.00    +0.196 C 
BRANCH  12  13
ATOM     13  C   UNK     1       6.133  -5.423  23.966  0.00  0.00    +0.039 C 
BRANCH  13  14
ATOM     14  C   UNK     1       6.781  -4.850  25.239  0.00  0.00    +0.033 C 
BRANCH  14  15
ATOM     15  C   UNK     1       8.055  -5.530  25.768  0.00  0.00    +0.161 C 
BRANCH  15  16
ATOM     16  N   UNK     1       8.119  -5.554  27.255  0.00  0.00    -0.318 NA
ATOM     17  H   UNK     1       8.357  -4.608  27.580  0.00  0.00    +0.119 HD
ATOM     18  H   UNK     1       7.162  -5.674  27.614  0.00  0.00    +0.119 HD
ENDBRANCH  15  16
BRANCH  15  19
ATOM     19  C   UNK     1       9.310  -4.842  25.221  0.00  0.00    +0.322 C 
ATOM     20  O   UNK     1       9.349  -3.707  24.768  0.00  0.00    -0.249 OA
BRANCH  19  21
ATOM     21  O   UNK     1      10.424  -5.589  25.425  0.00  0.00    -0.480 OA
ATOM     22  H   UNK     1      10.631  -6.026  24.559  0.00  0.00    +0.295 HD
ENDBRANCH  19  21
ENDBRANCH  15  19
ENDBRANCH  14  15
ENDBRANCH  13  14
ENDBRANCH  12  13
ENDBRANCH   4  12
TORSDOF 9
ENDMDL
MODEL 2
REMARK VINA RESULT:      -4.8      1.769      2.395
REMARK  Name = 
REMARK  10 active torsions:
REMARK  status: ('A' for Active; 'I' for Inactive)
REMARK    1  A    between atoms: C_1  and  C_2
REMARK    2  A    between atoms: C_2  and  C_3
REMARK    3  A    between atoms: C_3  and  N_4
REMARK    4  A    between atoms: N_9  and  C_10
REMARK    5  A    between atoms: C_10  and  C_11
REMARK    6  A    between atoms: C_11  and  C_12
REMARK    7  A    between atoms: C_12  and  C_13
REMARK    8  A    between atoms: C_13  and  N_15
REMARK    9  A    between atoms: C_13  and  C_16
REMARK   10  A    between atoms: C_16  and  O_17
REMARK                            x       y       z     vdW  Elec       q    Type
REMARK                         _______ _______ _______ _____ _____    ______ ____
ROOT
ATOM      1  N   UNK     1       8.733   0.420  22.621  0.00  0.00    -0.279 N 
ATOM      2  H   UNK     1       8.125   0.666  23.389  0.00  0.00    +0.258 HD
ATOM      3  C   UNK     1       8.781  -0.878  22.245  0.00  0.00    +0.343 C 
ATOM      4  N   UNK     1       7.836  -1.726  22.714  0.00  0.00    -0.279 N 
ATOM      5  H   UNK     1       7.082  -1.303  23.241  0.00  0.00    +0.258 HD
ATOM      6  N   UNK     1       9.770  -1.317  21.450  0.00  0.00    -0.292 N 
ATOM      7  H   UNK     1      10.513  -0.702  21.152  0.00  0.00    +0.255 HD
ATOM      8  H   UNK     1       9.802  -2.268  21.115  0.00  0.00    +0.255 HD
ENDROOT
BRANCH   1   9
ATOM      9  C   UNK     1       9.412   1.519  21.916  0.00  0.00    +0.195 C 
BRANCH   9  11
ATOM     10  C   UNK     1      10.672   1.580  24.100  0.00  0.00    +0.007 C 
ATOM     11  C   UNK     1      10.238   2.373  22.873  0.00  0.00    +0.034 C 
ENDBRANCH   9  11
ENDBRANCH   1   9
BRANCH   4  12
ATOM     12  C   UNK     1       7.739  -3.143  22.344  0.00  0.00    +0.196 C 
BRANCH  12  13
ATOM     13  C   UNK     1       7.201  -4.011  23.485  0.00  0.00    +0.039 C 
BRANCH  13  14
ATOM     14  C   UNK     1       8.150  -5.071  24.070  0.00  0.00    +0.033 C 
BRANCH  14  15
ATOM     15  C   UNK     1       9.037  -4.667  25.259  0.00  0.00    +0.161 C 
BRANCH  15  16
ATOM     16  N   UNK     1      10.284  -5.476  25.348  0.00  0.00    -0.318 NA
ATOM     17  H   UNK     1      10.997  -4.911  25.827  0.00  0.00    +0.119 HD
ATOM     18  H   UNK     1      10.123  -6.239  26.019  0.00  0.00    +0.119 HD
ENDBRANCH  15  16
BRANCH  15  19
ATOM     19  C   UNK     1       8.268  -4.782  26.580  0.00  0.00    +0.322 C 
ATOM     20  O   UNK     1       7.699  -3.859  27.144  0.00  0.00    -0.249 OA
BRANCH  19  21
ATOM     21  O   UNK     1       8.166  -6.070  26.993  0.00  0.00    -0.480 OA
ATOM     22  H   UNK     1       8.970  -6.253  27.544  0.00  0.00    +0.295 HD
ENDBRANCH  19  21
ENDBRANCH  15  19
ENDBRANCH  14  15
ENDBRANCH  13  14
ENDBRANCH  12  13
ENDBRANCH   4  12
TORSDOF 9
ENDMDL
MODEL 3
REMARK VINA RESULT:      -4.8      1.839      2.363
REMARK  Name = 
REMARK  10 active torsions:
REMARK  status: ('A' for Active; 'I' for Inactive)
REMARK    1  A    between atoms: C_1  and  C_2
REMARK    2  A    between atoms: C_2  and  C_3
REMARK    3  A    between atoms: C_3  and  N_4
REMARK    4  A    between atoms: N_9  and  C_10
REMARK    5  A    between atoms: C_10  and  C_11
REMARK    6  A    between atoms: C_11  and  C_12
REMARK    7  A    between atoms: C_12  and  C_13
REMARK    8  A    between atoms: C_13  and  N_15
REMARK    9  A    between atoms: C_13  and  C_16
REMARK   10  A    between atoms: C_16  and  O_17
REMARK                            x       y       z     vdW  Elec       q    Type
REMARK                         _______ _______ _______ _____ _____    ______ ____
ROOT
ATOM      1  N   UNK     1       9.284  -0.525  24.705  0.00  0.00    -0.279 N 
ATOM      2  H   UNK     1       8.461  -0.222  25.205  0.00  0.00    +0.258 HD
ATOM      3  C   UNK     1       9.141  -1.513  23.793  0.00  0.00    +0.343 C 
ATOM      4  N   UNK     1       7.893  -1.857  23.398  0.00  0.00    -0.279 N 
ATOM      5  H   UNK     1       7.141  -1.271  23.740  0.00  0.00    +0.258 HD
ATOM      6  N   UNK     1      10.219  -2.159  23.318  0.00  0.00    -0.292 N 
ATOM      7  H   UNK     1      11.145  -1.950  23.659  0.00  0.00    +0.255 HD
ATOM      8  H   UNK     1      10.144  -2.865  22.601  0.00  0.00    +0.255 HD
ENDROOT
BRANCH   1   9
ATOM      9  C   UNK     1      10.531   0.223  24.936  0.00  0.00    +0.195 C 
BRANCH   9  11
ATOM     10  C   UNK     1       9.394   2.385  24.306  0.00  0.00    +0.007 C 
ATOM     11  C   UNK     1      10.598   1.481  24.074  0.00  0.00    +0.034 C 
ENDBRANCH   9  11
ENDBRANCH   1   9
BRANCH   4  12
ATOM     12  C   UNK     1       7.597  -2.871  22.378  0.00  0.00    +0.196 C 
BRANCH  12  13
ATOM     13  C   UNK     1       6.856  -4.080  22.953  0.00  0.00    +0.039 C 
BRANCH  13  14
ATOM     14  C   UNK     1       7.698  -5.138  23.687  0.00  0.00    +0.033 C 
BRANCH  14  15
ATOM     15  C   UNK     1       7.829  -5.022  25.215  0.00  0.00    +0.161 C 
BRANCH  15  16
ATOM     16  N   UNK     1       7.080  -3.860  25.770  0.00  0.00    -0.318 NA
ATOM     17  H   UNK     1       7.560  -3.551  26.624  0.00  0.00    +0.119 HD
ATOM     18  H   UNK     1       7.219  -3.059  25.139  0.00  0.00    +0.119 HD
ENDBRANCH  15  16
BRANCH  15  19
ATOM     19  C   UNK     1       9.300  -4.918  25.632  0.00  0.00    +0.322 C 
ATOM     20  O   UNK     1      10.241  -4.786  24.863  0.00  0.00    -0.249 OA
BRANCH  19  21
ATOM     21  O   UNK     1       9.437  -4.847  26.980  0.00  0.00    -0.480 OA
ATOM     22  H   UNK     1       9.745  -5.742  27.278  0.00  0.00    +0.295 HD
ENDBRANCH  19  21
ENDBRANCH  15  19
ENDBRANCH  14  15
ENDBRANCH  13  14
ENDBRANCH  12  13
ENDBRANCH   4  12
TORSDOF 9
ENDMDL
MODEL 4
REMARK VINA RESULT:      -4.7      4.489      6.282
REMARK  Name = 
REMARK  10 active torsions:
REMARK  status: ('A' for Active; 'I' for Inactive)
REMARK    1  A    between atoms: C_1  and  C_2
REMARK    2  A    between atoms: C_2  and  C_3
REMARK    3  A    between atoms: C_3  and  N_4
REMARK    4  A    between atoms: N_9  and  C_10
REMARK    5  A    between atoms: C_10  and  C_11
REMARK    6  A    between atoms: C_11  and  C_12
REMARK    7  A    between atoms: C_12  and  C_13
REMARK    8  A    between atoms: C_13  and  N_15
REMARK    9  A    between atoms: C_13  and  C_16
REMARK   10  A    between atoms: C_16  and  O_17
REMARK                            x       y       z     vdW  Elec       q    Type
REMARK                         _______ _______ _______ _____ _____    ______ ____
ROOT
ATOM      1  N   UNK     1       9.320   5.304  23.360  0.00  0.00    -0.279 N 
ATOM      2  H   UNK     1       9.070   5.906  22.589  0.00  0.00    +0.258 HD
ATOM      3  C   UNK     1       8.785   4.062  23.392  0.00  0.00    +0.343 C 
ATOM      4  N   UNK     1       8.175   3.589  22.280  0.00  0.00    -0.279 N 
ATOM      5  H   UNK     1       8.252   4.167  21.451  0.00  0.00    +0.258 HD
ATOM      6  N   UNK     1       8.833   3.332  24.518  0.00  0.00    -0.292 N 
ATOM      7  H   UNK     1       9.229   3.707  25.367  0.00  0.00    +0.255 HD
ATOM      8  H   UNK     1       8.487   2.385  24.554  0.00  0.00    +0.255 HD
ENDROOT
BRANCH   1   9
ATOM      9  C   UNK     1      10.332   5.802  24.307  0.00  0.00    +0.195 C 
BRANCH   9  11
ATOM     10  C   UNK     1      12.284   4.581  23.276  0.00  0.00    +0.007 C 
ATOM     11  C   UNK     1      11.700   5.939  23.643  0.00  0.00    +0.034 C 
ENDBRANCH   9  11
ENDBRANCH   1   9
BRANCH   4  12
ATOM     12  C   UNK     1       7.603   2.243  22.159  0.00  0.00    +0.196 C 
BRANCH  12  13
ATOM     13  C   UNK     1       8.450   1.325  21.274  0.00  0.00    +0.039 C 
BRANCH  13  14
ATOM     14  C   UNK     1       9.817   0.883  21.824  0.00  0.00    +0.033 C 
BRANCH  14  15
ATOM     15  C   UNK     1       9.845   0.116  23.156  0.00  0.00    +0.161 C 
BRANCH  15  16
ATOM     16  N   UNK     1      10.832   0.674  24.122  0.00  0.00    -0.318 NA
ATOM     17  H   UNK     1      10.703   1.693  24.156  0.00  0.00    +0.119 HD
ATOM     18  H   UNK     1      10.550   0.386  25.069  0.00  0.00    +0.119 HD
ENDBRANCH  15  16
BRANCH  15  19
ATOM     19  C   UNK     1      10.149  -1.368  22.927  0.00  0.00    +0.322 C 
ATOM     20  O   UNK     1      10.103  -2.236  23.787  0.00  0.00    -0.249 OA
BRANCH  19  21
ATOM     21  O   UNK     1      10.343  -1.647  21.613  0.00  0.00    -0.480 OA
ATOM     22  H   UNK     1      10.342  -2.635  21.533  0.00  0.00    +0.295 HD
ENDBRANCH  19  21
ENDBRANCH  15  19
ENDBRANCH  14  15
ENDBRANCH  13  14
ENDBRANCH  12  13
ENDBRANCH   4  12
TORSDOF 9
ENDMDL
MODEL 5
REMARK VINA RESULT:      -4.7      2.668      3.464
REMARK  Name = 
REMARK  10 active torsions:
REMARK  status: ('A' for Active; 'I' for Inactive)
REMARK    1  A    between atoms: C_1  and  C_2
REMARK    2  A    between atoms: C_2  and  C_3
REMARK    3  A    between atoms: C_3  and  N_4
REMARK    4  A    between atoms: N_9  and  C_10
REMARK    5  A    between atoms: C_10  and  C_11
REMARK    6  A    between atoms: C_11  and  C_12
REMARK    7  A    between atoms: C_12  and  C_13
REMARK    8  A    between atoms: C_13  and  N_15
REMARK    9  A    between atoms: C_13  and  C_16
REMARK   10  A    between atoms: C_16  and  O_17
REMARK                            x       y       z     vdW  Elec       q    Type
REMARK                         _______ _______ _______ _____ _____    ______ ____
ROOT
ATOM      1  N   UNK     1       9.098   1.807  24.203  0.00  0.00    -0.279 N 
ATOM      2  H   UNK     1       8.188   2.228  24.323  0.00  0.00    +0.258 HD
ATOM      3  C   UNK     1       9.459   0.826  25.060  0.00  0.00    +0.343 C 
ATOM      4  N   UNK     1       8.509   0.269  25.848  0.00  0.00    -0.279 N 
ATOM      5  H   UNK     1       7.556   0.558  25.665  0.00  0.00    +0.258 HD
ATOM      6  N   UNK     1      10.742   0.439  25.146  0.00  0.00    -0.292 N 
ATOM      7  H   UNK     1      11.463   0.897  24.608  0.00  0.00    +0.255 HD
ATOM      8  H   UNK     1      11.030  -0.324  25.740  0.00  0.00    +0.255 HD
ENDROOT
BRANCH   1   9
ATOM      9  C   UNK     1       9.888   2.227  23.033  0.00  0.00    +0.195 C 
BRANCH   9  11
ATOM     10  C   UNK     1       9.532   0.232  21.531  0.00  0.00    +0.007 C 
ATOM     11  C   UNK     1       9.274   1.720  21.731  0.00  0.00    +0.034 C 
ENDBRANCH   9  11
ENDBRANCH   1   9
BRANCH   4  12
ATOM     12  C   UNK     1       8.751  -0.838  26.780  0.00  0.00    +0.196 C 
BRANCH  12  13
ATOM     13  C   UNK     1       8.017  -2.117  26.372  0.00  0.00    +0.039 C 
BRANCH  13  14
ATOM     14  C   UNK     1       8.725  -3.455  26.652  0.00  0.00    +0.033 C 
BRANCH  14  15
ATOM     15  C   UNK     1       8.112  -4.733  26.057  0.00  0.00    +0.161 C 
BRANCH  15  16
ATOM     16  N   UNK     1       7.981  -5.828  27.058  0.00  0.00    -0.318 NA
ATOM     17  H   UNK     1       8.861  -5.885  27.586  0.00  0.00    +0.119 HD
ATOM     18  H   UNK     1       7.313  -5.524  27.779  0.00  0.00    +0.119 HD
ENDBRANCH  15  16
BRANCH  15  19
ATOM     19  C   UNK     1       8.938  -5.235  24.868  0.00  0.00    +0.322 C 
ATOM     20  O   UNK     1       8.508  -5.407  23.736  0.00  0.00    -0.249 OA
BRANCH  19  21
ATOM     21  O   UNK     1      10.256  -5.335  25.176  0.00  0.00    -0.480 OA
ATOM     22  H   UNK     1      10.579  -4.410  25.330  0.00  0.00    +0.295 HD
ENDBRANCH  19  21
ENDBRANCH  15  19
ENDBRANCH  14  15
ENDBRANCH  13  14
ENDBRANCH  12  13
ENDBRANCH   4  12
TORSDOF 9
ENDMDL
MODEL 6
REMARK VINA RESULT:      -4.6      3.283      6.554
REMARK  Name = 
REMARK  10 active torsions:
REMARK  status: ('A' for Active; 'I' for Inactive)
REMARK    1  A    between atoms: C_1  and  C_2
REMARK    2  A    between atoms: C_2  and  C_3
REMARK    3  A    between atoms: C_3  and  N_4
REMARK    4  A    between atoms: N_9  and  C_10
REMARK    5  A    between atoms: C_10  and  C_11
REMARK    6  A    between atoms: C_11  and  C_12
REMARK    7  A    between atoms: C_12  and  C_13
REMARK    8  A    between atoms: C_13  and  N_15
REMARK    9  A    between atoms: C_13  and  C_16
REMARK   10  A    between atoms: C_16  and  O_17
REMARK                            x       y       z     vdW  Elec       q    Type
REMARK                         _______ _______ _______ _____ _____    ______ ____
ROOT
ATOM      1  N   UNK     1       7.870  -3.321  22.715  0.00  0.00    -0.279 N 
ATOM      2  H   UNK     1       7.600  -2.857  21.860  0.00  0.00    +0.258 HD
ATOM      3  C   UNK     1       8.854  -2.763  23.455  0.00  0.00    +0.343 C 
ATOM      4  N   UNK     1       9.239  -1.496  23.173  0.00  0.00    -0.279 N 
ATOM      5  H   UNK     1       8.683  -1.005  22.484  0.00  0.00    +0.258 HD
ATOM      6  N   UNK     1       9.457  -3.469  24.425  0.00  0.00    -0.292 N 
ATOM      7  H   UNK     1       9.218  -4.435  24.593  0.00  0.00    +0.255 HD
ATOM      8  H   UNK     1      10.159  -3.061  25.023  0.00  0.00    +0.255 HD
ENDROOT
BRANCH   1   9
ATOM      9  C   UNK     1       7.079  -4.494  23.126  0.00  0.00    +0.195 C 
BRANCH   9  11
ATOM     10  C   UNK     1       6.260  -5.654  21.042  0.00  0.00    +0.007 C 
ATOM     11  C   UNK     1       7.281  -5.668  22.172  0.00  0.00    +0.034 C 
ENDBRANCH   9  11
ENDBRANCH   1   9
BRANCH   4  12
ATOM     12  C   UNK     1      10.254  -0.752  23.929  0.00  0.00    +0.196 C 
BRANCH  12  13
ATOM     13  C   UNK     1       9.638   0.273  24.883  0.00  0.00    +0.039 C 
BRANCH  13  14
ATOM     14  C   UNK     1       9.593   1.737  24.411  0.00  0.00    +0.033 C 
BRANCH  14  15
ATOM     15  C   UNK     1      10.068   2.048  22.981  0.00  0.00    +0.161 C 
BRANCH  15  16
ATOM     16  N   UNK     1      10.754   3.365  22.876  0.00  0.00    -0.318 NA
ATOM     17  H   UNK     1      10.877   3.737  23.826  0.00  0.00    +0.119 HD
ATOM     18  H   UNK     1      11.726   3.196  22.581  0.00  0.00    +0.119 HD
ENDBRANCH  15  16
BRANCH  15  19
ATOM     19  C   UNK     1       8.896   2.011  21.995  0.00  0.00    +0.322 C 
ATOM     20  O   UNK     1       8.000   2.841  21.935  0.00  0.00    -0.249 OA
BRANCH  19  21
ATOM     21  O   UNK     1       9.035   1.015  21.083  0.00  0.00    -0.480 OA
ATOM     22  H   UNK     1       8.915   0.164  21.578  0.00  0.00    +0.295 HD
ENDBRANCH  19  21
ENDBRANCH  15  19
ENDBRANCH  14  15
ENDBRANCH  13  14
ENDBRANCH  12  13
ENDBRANCH   4  12
TORSDOF 9
ENDMDL
MODEL 7
REMARK VINA RESULT:      -4.5      2.651      3.609
REMARK  Name = 
REMARK  10 active torsions:
REMARK  status: ('A' for Active; 'I' for Inactive)
REMARK    1  A    between atoms: C_1  and  C_2
REMARK    2  A    between atoms: C_2  and  C_3
REMARK    3  A    between atoms: C_3  and  N_4
REMARK    4  A    between atoms: N_9  and  C_10
REMARK    5  A    between atoms: C_10  and  C_11
REMARK    6  A    between atoms: C_11  and  C_12
REMARK    7  A    between atoms: C_12  and  C_13
REMARK    8  A    between atoms: C_13  and  N_15
REMARK    9  A    between atoms: C_13  and  C_16
REMARK   10  A    between atoms: C_16  and  O_17
REMARK                            x       y       z     vdW  Elec       q    Type
REMARK                         _______ _______ _______ _____ _____    ______ ____
ROOT
ATOM      1  N   UNK     1      10.184  -1.035  22.949  0.00  0.00    -0.279 N 
ATOM      2  H   UNK     1      10.954  -1.513  22.505  0.00  0.00    +0.258 HD
ATOM      3  C   UNK     1       9.388  -1.751  23.776  0.00  0.00    +0.343 C 
ATOM      4  N   UNK     1       9.805  -2.974  24.180  0.00  0.00    -0.279 N 
ATOM      5  H   UNK     1      10.748  -3.232  23.916  0.00  0.00    +0.258 HD
ATOM      6  N   UNK     1       8.195  -1.267  24.156  0.00  0.00    -0.292 N 
ATOM      7  H   UNK     1       7.853  -0.385  23.803  0.00  0.00    +0.255 HD
ATOM      8  H   UNK     1       7.605  -1.758  24.810  0.00  0.00    +0.255 HD
ENDROOT
BRANCH   1   9
ATOM      9  C   UNK     1      10.079   0.419  22.742  0.00  0.00    +0.195 C 
BRANCH   9  11
ATOM     10  C   UNK     1       8.186   1.718  21.697  0.00  0.00    +0.007 C 
ATOM     11  C   UNK     1       9.335   0.749  21.451  0.00  0.00    +0.034 C 
ENDBRANCH   9  11
ENDBRANCH   1   9
BRANCH   4  12
ATOM     12  C   UNK     1       9.069  -3.831  25.117  0.00  0.00    +0.196 C 
BRANCH  12  13
ATOM     13  C   UNK     1       8.567  -5.119  24.461  0.00  0.00    +0.039 C 
BRANCH  13  14
ATOM     14  C   UNK     1       7.176  -5.078  23.803  0.00  0.00    +0.033 C 
BRANCH  14  15
ATOM     15  C   UNK     1       7.086  -4.631  22.335  0.00  0.00    +0.161 C 
BRANCH  15  16
ATOM     16  N   UNK     1       6.634  -3.220  22.190  0.00  0.00    -0.318 NA
ATOM     17  H   UNK     1       6.300  -3.089  21.226  0.00  0.00    +0.119 HD
ATOM     18  H   UNK     1       5.771  -3.103  22.738  0.00  0.00    +0.119 HD
ENDBRANCH  15  16
BRANCH  15  19
ATOM     19  C   UNK     1       6.147  -5.545  21.540  0.00  0.00    +0.322 C 
ATOM     20  O   UNK     1       5.961  -5.484  20.333  0.00  0.00    -0.249 OA
BRANCH  19  21
ATOM     21  O   UNK     1       5.639  -6.539  22.311  0.00  0.00    -0.480 OA
ATOM     22  H   UNK     1       5.279  -6.105  23.128  0.00  0.00    +0.295 HD
ENDBRANCH  19  21
ENDBRANCH  15  19
ENDBRANCH  14  15
ENDBRANCH  13  14
ENDBRANCH  12  13
ENDBRANCH   4  12
TORSDOF 9
ENDMDL
MODEL 8
REMARK VINA RESULT:      -4.5      1.556      1.807
REMARK  Name = 
REMARK  10 active torsions:
REMARK  status: ('A' for Active; 'I' for Inactive)
REMARK    1  A    between atoms: C_1  and  C_2
REMARK    2  A    between atoms: C_2  and  C_3
REMARK    3  A    between atoms: C_3  and  N_4
REMARK    4  A    between atoms: N_9  and  C_10
REMARK    5  A    between atoms: C_10  and  C_11
REMARK    6  A    between atoms: C_11  and  C_12
REMARK    7  A    between atoms: C_12  and  C_13
REMARK    8  A    between atoms: C_13  and  N_15
REMARK    9  A    between atoms: C_13  and  C_16
REMARK   10  A    between atoms: C_16  and  O_17
REMARK                            x       y       z     vdW  Elec       q    Type
REMARK                         _______ _______ _______ _____ _____    ______ ____
ROOT
ATOM      1  N   UNK     1       8.749  -0.375  23.045  0.00  0.00    -0.279 N 
ATOM      2  H   UNK     1       9.460  -1.092  23.038  0.00  0.00    +0.258 HD
ATOM      3  C   UNK     1       7.479  -0.746  23.321  0.00  0.00    +0.343 C 
ATOM      4  N   UNK     1       7.259  -1.979  23.835  0.00  0.00    -0.279 N 
ATOM      5  H   UNK     1       8.085  -2.512  24.079  0.00  0.00    +0.258 HD
ATOM      6  N   UNK     1       6.457   0.085  23.058  0.00  0.00    -0.292 N 
ATOM      7  H   UNK     1       6.612   0.978  22.614  0.00  0.00    +0.255 HD
ATOM      8  H   UNK     1       5.506  -0.147  23.300  0.00  0.00    +0.255 HD
ENDROOT
BRANCH   1   9
ATOM      9  C   UNK     1       9.193   1.019  22.870  0.00  0.00    +0.195 C 
BRANCH   9  11
ATOM     10  C   UNK     1      10.874   0.603  24.703  0.00  0.00    +0.007 C 
ATOM     11  C   UNK     1       9.836   1.566  24.141  0.00  0.00    +0.034 C 
ENDBRANCH   9  11
ENDBRANCH   1   9
BRANCH   4  12
ATOM     12  C   UNK     1       5.940  -2.488  24.231  0.00  0.00    +0.196 C 
BRANCH  12  13
ATOM     13  C   UNK     1       5.995  -3.317  25.515  0.00  0.00    +0.039 C 
BRANCH  13  14
ATOM     14  C   UNK     1       7.382  -3.578  26.127  0.00  0.00    +0.033 C 
BRANCH  14  15
ATOM     15  C   UNK     1       8.048  -4.937  25.853  0.00  0.00    +0.161 C 
BRANCH  15  16
ATOM     16  N   UNK     1       8.292  -5.719  27.096  0.00  0.00    -0.318 NA
ATOM     17  H   UNK     1       7.493  -5.574  27.727  0.00  0.00    +0.119 HD
ATOM     18  H   UNK     1       8.210  -6.719  26.866  0.00  0.00    +0.119 HD
ENDBRANCH  15  16
BRANCH  15  19
ATOM     19  C   UNK     1       9.371  -4.758  25.102  0.00  0.00    +0.322 C 
ATOM     20  O   UNK     1       9.634  -3.830  24.351  0.00  0.00    -0.249 OA
BRANCH  19  21
ATOM     21  O   UNK     1      10.292  -5.682  25.476  0.00  0.00    -0.480 OA
ATOM     22  H   UNK     1       9.784  -6.449  25.849  0.00  0.00    +0.295 HD
ENDBRANCH  19  21
ENDBRANCH  15  19
ENDBRANCH  14  15
ENDBRANCH  13  14
ENDBRANCH  12  13
ENDBRANCH   4  12
TORSDOF 9
ENDMDL
MODEL 9
REMARK VINA RESULT:      -4.5      4.058      5.801
REMARK  Name = 
REMARK  10 active torsions:
REMARK  status: ('A' for Active; 'I' for Inactive)
REMARK    1  A    between atoms: C_1  and  C_2
REMARK    2  A    between atoms: C_2  and  C_3
REMARK    3  A    between atoms: C_3  and  N_4
REMARK    4  A    between atoms: N_9  and  C_10
REMARK    5  A    between atoms: C_10  and  C_11
REMARK    6  A    between atoms: C_11  and  C_12
REMARK    7  A    between atoms: C_12  and  C_13
REMARK    8  A    between atoms: C_13  and  N_15
REMARK    9  A    between atoms: C_13  and  C_16
REMARK   10  A    between atoms: C_16  and  O_17
REMARK                            x       y       z     vdW  Elec       q    Type
REMARK                         _______ _______ _______ _____ _____    ______ ____
ROOT
ATOM      1  N   UNK     1       8.390   3.673  23.259  0.00  0.00    -0.279 N 
ATOM      2  H   UNK     1       8.327   4.080  24.181  0.00  0.00    +0.258 HD
ATOM      3  C   UNK     1       9.273   2.667  23.071  0.00  0.00    +0.343 C 
ATOM      4  N   UNK     1       9.823   2.074  24.156  0.00  0.00    -0.279 N 
ATOM      5  H   UNK     1       9.451   2.359  25.054  0.00  0.00    +0.258 HD
ATOM      6  N   UNK     1       9.617   2.291  21.829  0.00  0.00    -0.292 N 
ATOM      7  H   UNK     1       9.259   2.775  21.018  0.00  0.00    +0.255 HD
ATOM      8  H   UNK     1      10.235   1.511  21.660  0.00  0.00    +0.255 HD
ENDROOT
BRANCH   1   9
ATOM      9  C   UNK     1       7.428   4.141  22.246  0.00  0.00    +0.195 C 
BRANCH   9  11
ATOM     10  C   UNK     1       8.445   6.312  23.031  0.00  0.00    +0.007 C 
ATOM     11  C   UNK     1       7.314   5.663  22.244  0.00  0.00    +0.034 C 
ENDBRANCH   9  11
ENDBRANCH   1   9
BRANCH   4  12
ATOM     12  C   UNK     1      10.750   0.937  24.097  0.00  0.00    +0.196 C 
BRANCH  12  13
ATOM     13  C   UNK     1      10.084  -0.382  24.492  0.00  0.00    +0.039 C 
BRANCH  13  14
ATOM     14  C   UNK     1      10.139  -1.532  23.471  0.00  0.00    +0.033 C 
BRANCH  14  15
ATOM     15  C   UNK     1       9.098  -1.540  22.338  0.00  0.00    +0.161 C 
BRANCH  15  16
ATOM     16  N   UNK     1       9.496  -0.686  21.186  0.00  0.00    -0.318 NA
ATOM     17  H   UNK     1       9.741  -1.303  20.401  0.00  0.00    +0.119 HD
ATOM     18  H   UNK     1       8.653  -0.211  20.834  0.00  0.00    +0.119 HD
ENDBRANCH  15  16
BRANCH  15  19
ATOM     19  C   UNK     1       7.727  -1.088  22.851  0.00  0.00    +0.322 C 
ATOM     20  O   UNK     1       6.993  -1.748  23.573  0.00  0.00    -0.249 OA
BRANCH  19  21
ATOM     21  O   UNK     1       7.469   0.204  22.527  0.00  0.00    -0.480 OA
ATOM     22  H   UNK     1       7.523   0.262  21.539  0.00  0.00    +0.295 HD
ENDBRANCH  19  21
ENDBRANCH  15  19
ENDBRANCH  14  15
ENDBRANCH  13  14
ENDBRANCH  12  13
ENDBRANCH   4  12
TORSDOF 9
ENDMDL
