MODEL 1
REMARK VINA RESULT:      -6.3      0.000      0.000
REMARK  Name = 
REMARK  5 active torsions:
REMARK  status: ('A' for Active; 'I' for Inactive)
REMARK    1  A    between atoms: C_1  and  N_2
REMARK    2  A    between atoms: C_7  and  C_8
REMARK    3  A    between atoms: N_10  and  C_11
REMARK    4  A    between atoms: C_12  and  C_13
REMARK    5  A    between atoms: C_17  and  C_18
REMARK                            x       y       z     vdW  Elec       q    Type
REMARK                         _______ _______ _______ _____ _____    ______ ____
ROOT
ATOM      1  C   UNL     1       9.106  -2.928  23.879  0.00  0.00    +0.234 C 
ATOM      2  N   UNL     1       8.409  -1.752  23.663  0.00  0.00    -0.284 N 
ATOM      3  H   UNL     1       7.496  -1.886  23.246  0.00  0.00    +0.155 HD
ATOM      4  O   UNL     1      10.335  -3.008  23.879  0.00  0.00    -0.274 OA
ENDROOT
BRANCH   2   5
ATOM      5  C   UNL     1       9.038  -0.491  23.570  0.00  0.00    +0.039 A 
ATOM      6  C   UNL     1       9.253   0.300  24.727  0.00  0.00    -0.029 A 
ATOM      7  C   UNL     1       8.815  -0.116  26.108  0.00  0.00    +0.045 C 
ATOM      8  C   UNL     1       9.848   1.565  24.592  0.00  0.00    +0.005 A 
ATOM      9  C   UNL     1      10.217   2.053  23.343  0.00  0.00    +0.001 A 
ATOM     10  C   UNL     1       9.995   1.281  22.209  0.00  0.00    +0.005 A 
ATOM     11  C   UNL     1       9.393   0.012  22.300  0.00  0.00    -0.029 A 
ATOM     12  C   UNL     1       9.306  -0.788  21.028  0.00  0.00    +0.045 C 
ENDBRANCH   2   5
BRANCH   1  15
ATOM     13  C   UNL     1       5.924  -5.004  24.188  0.00  0.00    +0.105 C 
ATOM     14  N   UNL     1       6.828  -3.874  24.433  0.00  0.00    -0.295 NA
ATOM     15  C   UNL     1       8.219  -4.198  24.003  0.00  0.00    +0.143 C 
ATOM     16  C   UNL     1       8.913  -5.222  24.917  0.00  0.00    +0.028 C 
ATOM     17  C   UNL     1       8.880  -4.779  26.379  0.00  0.00    +0.003 C 
ATOM     18  C   UNL     1       7.461  -4.438  26.818  0.00  0.00    +0.015 C 
ATOM     19  C   UNL     1       6.780  -3.469  25.851  0.00  0.00    +0.085 C 
ENDBRANCH   1  15
TORSDOF 2
ENDMDL
MODEL 2
REMARK VINA RESULT:      -6.3      0.052      2.063
REMARK  Name = 
REMARK  5 active torsions:
REMARK  status: ('A' for Active; 'I' for Inactive)
REMARK    1  A    between atoms: C_1  and  N_2
REMARK    2  A    between atoms: C_7  and  C_8
REMARK    3  A    between atoms: N_10  and  C_11
REMARK    4  A    between atoms: C_12  and  C_13
REMARK    5  A    between atoms: C_17  and  C_18
REMARK                            x       y       z     vdW  Elec       q    Type
REMARK                         _______ _______ _______ _____ _____    ______ ____
ROOT
ATOM      1  C   UNL     1       9.112  -2.925  23.876  0.00  0.00    +0.234 C 
ATOM      2  N   UNL     1       8.393  -1.760  23.672  0.00  0.00    -0.284 N 
ATOM      3  H   UNL     1       7.476  -1.909  23.269  0.00  0.00    +0.155 HD
ATOM      4  O   UNL     1      10.342  -2.985  23.856  0.00  0.00    -0.274 OA
ENDROOT
BRANCH   2   5
ATOM      5  C   UNL     1       8.999  -0.489  23.569  0.00  0.00    +0.039 A 
ATOM      6  C   UNL     1       9.406   0.022  22.310  0.00  0.00    -0.029 A 
ATOM      7  C   UNL     1       9.256  -0.741  21.019  0.00  0.00    +0.045 C 
ATOM      8  C   UNL     1      10.039   1.275  22.250  0.00  0.00    +0.005 A 
ATOM      9  C   UNL     1      10.279   2.011  23.405  0.00  0.00    +0.001 A 
ATOM     10  C   UNL     1       9.890   1.504  24.640  0.00  0.00    +0.005 A 
ATOM     11  C   UNL     1       9.262   0.248  24.744  0.00  0.00    -0.029 A 
ATOM     12  C   UNL     1       8.776  -0.153  26.110  0.00  0.00    +0.045 C 
ENDBRANCH   2   5
BRANCH   1  15
ATOM     13  C   UNL     1       5.967  -5.055  24.197  0.00  0.00    +0.105 C 
ATOM     14  N   UNL     1       6.848  -3.904  24.429  0.00  0.00    -0.295 NA
ATOM     15  C   UNL     1       8.248  -4.209  24.014  0.00  0.00    +0.143 C 
ATOM     16  C   UNL     1       8.955  -5.205  24.949  0.00  0.00    +0.028 C 
ATOM     17  C   UNL     1       8.903  -4.740  26.403  0.00  0.00    +0.003 C 
ATOM     18  C   UNL     1       7.476  -4.418  26.828  0.00  0.00    +0.015 C 
ATOM     19  C   UNL     1       6.783  -3.478  25.840  0.00  0.00    +0.085 C 
ENDBRANCH   1  15
TORSDOF 2
ENDMDL
MODEL 3
REMARK VINA RESULT:      -6.2      1.639      5.738
REMARK  Name = 
REMARK  5 active torsions:
REMARK  status: ('A' for Active; 'I' for Inactive)
REMARK    1  A    between atoms: C_1  and  N_2
REMARK    2  A    between atoms: C_7  and  C_8
REMARK    3  A    between atoms: N_10  and  C_11
REMARK    4  A    between atoms: C_12  and  C_13
REMARK    5  A    between atoms: C_17  and  C_18
REMARK                            x       y       z     vdW  Elec       q    Type
REMARK                         _______ _______ _______ _____ _____    ______ ____
ROOT
ATOM      1  C   UNL     1       8.492  -1.879  24.346  0.00  0.00    +0.234 C 
ATOM      2  N   UNL     1       8.482  -3.213  23.978  0.00  0.00    -0.284 N 
ATOM      3  H   UNL     1       9.135  -3.440  23.238  0.00  0.00    +0.155 HD
ATOM      4  O   UNL     1       7.515  -1.285  24.802  0.00  0.00    -0.274 OA
ENDROOT
BRANCH   2   5
ATOM      5  C   UNL     1       7.391  -4.073  24.230  0.00  0.00    +0.039 A 
ATOM      6  C   UNL     1       7.286  -4.774  25.458  0.00  0.00    -0.029 A 
ATOM      7  C   UNL     1       8.319  -4.684  26.553  0.00  0.00    +0.045 C 
ATOM      8  C   UNL     1       6.206  -5.649  25.660  0.00  0.00    +0.005 A 
ATOM      9  C   UNL     1       5.248  -5.842  24.670  0.00  0.00    +0.001 A 
ATOM     10  C   UNL     1       5.358  -5.163  23.462  0.00  0.00    +0.005 A 
ATOM     11  C   UNL     1       6.430  -4.285  23.217  0.00  0.00    -0.029 A 
ATOM     12  C   UNL     1       6.390  -3.512  21.926  0.00  0.00    +0.045 C 
ENDBRANCH   2   5
BRANCH   1  15
ATOM     13  C   UNL     1      10.986   1.003  24.252  0.00  0.00    +0.105 C 
ATOM     14  N   UNL     1       9.671   0.352  24.193  0.00  0.00    -0.295 NA
ATOM     15  C   UNL     1       9.811  -1.124  24.025  0.00  0.00    +0.143 C 
ATOM     16  C   UNL     1      10.310  -1.531  22.628  0.00  0.00    +0.028 C 
ATOM     17  C   UNL     1       9.435  -0.935  21.527  0.00  0.00    +0.003 C 
ATOM     18  C   UNL     1       9.280   0.571  21.701  0.00  0.00    +0.015 C 
ATOM     19  C   UNL     1       8.848   0.942  23.120  0.00  0.00    +0.085 C 
ENDBRANCH   1  15
TORSDOF 2
ENDMDL
MODEL 4
REMARK VINA RESULT:      -6.2      1.629      6.018
REMARK  Name = 
REMARK  5 active torsions:
REMARK  status: ('A' for Active; 'I' for Inactive)
REMARK    1  A    between atoms: C_1  and  N_2
REMARK    2  A    between atoms: C_7  and  C_8
REMARK    3  A    between atoms: N_10  and  C_11
REMARK    4  A    between atoms: C_12  and  C_13
REMARK    5  A    between atoms: C_17  and  C_18
REMARK                            x       y       z     vdW  Elec       q    Type
REMARK                         _______ _______ _______ _____ _____    ______ ____
ROOT
ATOM      1  C   UNL     1       8.515  -1.887  24.312  0.00  0.00    +0.234 C 
ATOM      2  N   UNL     1       8.504  -3.203  23.884  0.00  0.00    -0.284 N 
ATOM      3  H   UNL     1       9.136  -3.391  23.115  0.00  0.00    +0.155 HD
ATOM      4  O   UNL     1       7.548  -1.324  24.825  0.00  0.00    -0.274 OA
ENDROOT
BRANCH   2   5
ATOM      5  C   UNL     1       7.429  -4.084  24.130  0.00  0.00    +0.039 A 
ATOM      6  C   UNL     1       6.372  -4.220  23.193  0.00  0.00    -0.029 A 
ATOM      7  C   UNL     1       6.299  -3.434  21.909  0.00  0.00    +0.045 C 
ATOM      8  C   UNL     1       5.300  -5.078  23.487  0.00  0.00    +0.005 A 
ATOM      9  C   UNL     1       5.257  -5.785  24.684  0.00  0.00    +0.001 A 
ATOM     10  C   UNL     1       6.287  -5.642  25.607  0.00  0.00    +0.005 A 
ATOM     11  C   UNL     1       7.375  -4.785  25.354  0.00  0.00    -0.029 A 
ATOM     12  C   UNL     1       8.492  -4.794  26.363  0.00  0.00    +0.045 C 
ENDBRANCH   2   5
BRANCH   1  15
ATOM     13  C   UNL     1      10.943   1.049  24.192  0.00  0.00    +0.105 C 
ATOM     14  N   UNL     1       9.644   0.368  24.137  0.00  0.00    -0.295 NA
ATOM     15  C   UNL     1       9.818  -1.106  23.986  0.00  0.00    +0.143 C 
ATOM     16  C   UNL     1      10.329  -1.517  22.595  0.00  0.00    +0.028 C 
ATOM     17  C   UNL     1       9.443  -0.954  21.485  0.00  0.00    +0.003 C 
ATOM     18  C   UNL     1       9.254   0.551  21.642  0.00  0.00    +0.015 C 
ATOM     19  C   UNL     1       8.810   0.928  23.056  0.00  0.00    +0.085 C 
ENDBRANCH   1  15
TORSDOF 2
ENDMDL
MODEL 5
REMARK VINA RESULT:      -6.0      1.782      3.013
REMARK  Name = 
REMARK  5 active torsions:
REMARK  status: ('A' for Active; 'I' for Inactive)
REMARK    1  A    between atoms: C_1  and  N_2
REMARK    2  A    between atoms: C_7  and  C_8
REMARK    3  A    between atoms: N_10  and  C_11
REMARK    4  A    between atoms: C_12  and  C_13
REMARK    5  A    between atoms: C_17  and  C_18
REMARK                            x       y       z     vdW  Elec       q    Type
REMARK                         _______ _______ _______ _____ _____    ______ ____
ROOT
ATOM      1  C   UNL     1       7.441  -2.746  22.748  0.00  0.00    +0.234 C 
ATOM      2  N   UNL     1       8.673  -2.396  23.270  0.00  0.00    -0.284 N 
ATOM      3  H   UNL     1       9.197  -3.176  23.647  0.00  0.00    +0.155 HD
ATOM      4  O   UNL     1       6.469  -1.989  22.715  0.00  0.00    -0.274 OA
ENDROOT
BRANCH   2   5
ATOM      5  C   UNL     1       8.991  -1.083  23.681  0.00  0.00    +0.039 A 
ATOM      6  C   UNL     1       9.374  -0.097  22.737  0.00  0.00    -0.029 A 
ATOM      7  C   UNL     1       9.500  -0.372  21.260  0.00  0.00    +0.045 C 
ATOM      8  C   UNL     1       9.718   1.188  23.187  0.00  0.00    +0.005 A 
ATOM      9  C   UNL     1       9.697   1.501  24.541  0.00  0.00    +0.001 A 
ATOM     10  C   UNL     1       9.331   0.531  25.468  0.00  0.00    +0.005 A 
ATOM     11  C   UNL     1       8.989  -0.771  25.059  0.00  0.00    -0.029 A 
ATOM     12  C   UNL     1       8.496  -1.709  26.128  0.00  0.00    +0.045 C 
ENDBRANCH   2   5
BRANCH   1  15
ATOM     13  C   UNL     1       5.968  -5.814  21.032  0.00  0.00    +0.105 C 
ATOM     14  N   UNL     1       5.960  -4.548  21.775  0.00  0.00    -0.295 NA
ATOM     15  C   UNL     1       7.317  -4.230  22.306  0.00  0.00    +0.143 C 
ATOM     16  C   UNL     1       7.746  -5.148  23.463  0.00  0.00    +0.028 C 
ATOM     17  C   UNL     1       6.708  -5.158  24.583  0.00  0.00    +0.003 C 
ATOM     18  C   UNL     1       5.318  -5.473  24.043  0.00  0.00    +0.015 C 
ATOM     19  C   UNL     1       4.952  -4.586  22.852  0.00  0.00    +0.085 C 
ENDBRANCH   1  15
TORSDOF 2
ENDMDL
MODEL 6
REMARK VINA RESULT:      -6.0      1.447      2.276
REMARK  Name = 
REMARK  5 active torsions:
REMARK  status: ('A' for Active; 'I' for Inactive)
REMARK    1  A    between atoms: C_1  and  N_2
REMARK    2  A    between atoms: C_7  and  C_8
REMARK    3  A    between atoms: N_10  and  C_11
REMARK    4  A    between atoms: C_12  and  C_13
REMARK    5  A    between atoms: C_17  and  C_18
REMARK                            x       y       z     vdW  Elec       q    Type
REMARK                         _______ _______ _______ _____ _____    ______ ____
ROOT
ATOM      1  C   UNL     1       7.971  -1.808  24.458  0.00  0.00    +0.234 C 
ATOM      2  N   UNL     1       7.637  -0.681  23.728  0.00  0.00    -0.284 N 
ATOM      3  H   UNL     1       6.876  -0.825  23.075  0.00  0.00    +0.155 HD
ATOM      4  O   UNL     1       9.101  -2.033  24.894  0.00  0.00    -0.274 OA
ENDROOT
BRANCH   2   5
ATOM      5  C   UNL     1       8.521   0.403  23.536  0.00  0.00    +0.039 A 
ATOM      6  C   UNL     1       8.594   1.458  24.480  0.00  0.00    -0.029 A 
ATOM      7  C   UNL     1       7.734   1.523  25.716  0.00  0.00    +0.045 C 
ATOM      8  C   UNL     1       9.459   2.538  24.238  0.00  0.00    +0.005 A 
ATOM      9  C   UNL     1      10.234   2.589  23.084  0.00  0.00    +0.001 A 
ATOM     10  C   UNL     1      10.154   1.559  22.154  0.00  0.00    +0.005 A 
ATOM     11  C   UNL     1       9.292   0.464  22.355  0.00  0.00    -0.029 A 
ATOM     12  C   UNL     1       9.369  -0.651  21.347  0.00  0.00    +0.045 C 
ENDBRANCH   2   5
BRANCH   1  15
ATOM     13  C   UNL     1       6.297  -5.111  25.361  0.00  0.00    +0.105 C 
ATOM     14  N   UNL     1       7.362  -4.225  24.874  0.00  0.00    -0.295 NA
ATOM     15  C   UNL     1       6.835  -2.858  24.594  0.00  0.00    +0.143 C 
ATOM     16  C   UNL     1       5.929  -2.799  23.352  0.00  0.00    +0.028 C 
ATOM     17  C   UNL     1       6.628  -3.379  22.123  0.00  0.00    +0.003 C 
ATOM     18  C   UNL     1       7.177  -4.772  22.408  0.00  0.00    +0.015 C 
ATOM     19  C   UNL     1       8.017  -4.806  23.686  0.00  0.00    +0.085 C 
ENDBRANCH   1  15
TORSDOF 2
ENDMDL
MODEL 7
REMARK VINA RESULT:      -5.9      1.535      3.073
REMARK  Name = 
REMARK  5 active torsions:
REMARK  status: ('A' for Active; 'I' for Inactive)
REMARK    1  A    between atoms: C_1  and  N_2
REMARK    2  A    between atoms: C_7  and  C_8
REMARK    3  A    between atoms: N_10  and  C_11
REMARK    4  A    between atoms: C_12  and  C_13
REMARK    5  A    between atoms: C_17  and  C_18
REMARK                            x       y       z     vdW  Elec       q    Type
REMARK                         _______ _______ _______ _____ _____    ______ ____
ROOT
ATOM      1  C   UNL     1       7.933  -1.618  24.383  0.00  0.00    +0.234 C 
ATOM      2  N   UNL     1       7.576  -0.470  23.697  0.00  0.00    -0.284 N 
ATOM      3  H   UNL     1       6.789  -0.593  23.071  0.00  0.00    +0.155 HD
ATOM      4  O   UNL     1       9.077  -1.860  24.768  0.00  0.00    -0.274 OA
ENDROOT
BRANCH   2   5
ATOM      5  C   UNL     1       8.458   0.614  23.498  0.00  0.00    +0.039 A 
ATOM      6  C   UNL     1       9.296   0.670  22.356  0.00  0.00    -0.029 A 
ATOM      7  C   UNL     1       9.334  -0.410  21.304  0.00  0.00    +0.045 C 
ATOM      8  C   UNL     1      10.188   1.745  22.210  0.00  0.00    +0.005 A 
ATOM      9  C   UNL     1      10.265   2.746  23.172  0.00  0.00    +0.001 A 
ATOM     10  C   UNL     1       9.451   2.685  24.298  0.00  0.00    +0.005 A 
ATOM     11  C   UNL     1       8.551   1.619  24.486  0.00  0.00    -0.029 A 
ATOM     12  C   UNL     1       7.635   1.710  25.677  0.00  0.00    +0.045 C 
ENDBRANCH   2   5
BRANCH   1  15
ATOM     13  C   UNL     1       6.256  -4.900  25.354  0.00  0.00    +0.105 C 
ATOM     14  N   UNL     1       7.323  -4.025  24.854  0.00  0.00    -0.295 NA
ATOM     15  C   UNL     1       6.797  -2.666  24.535  0.00  0.00    +0.143 C 
ATOM     16  C   UNL     1       5.902  -2.640  23.285  0.00  0.00    +0.028 C 
ATOM     17  C   UNL     1       6.612  -3.249  22.077  0.00  0.00    +0.003 C 
ATOM     18  C   UNL     1       7.160  -4.634  22.401  0.00  0.00    +0.015 C 
ATOM     19  C   UNL     1       7.989  -4.635  23.687  0.00  0.00    +0.085 C 
ENDBRANCH   1  15
TORSDOF 2
ENDMDL
MODEL 8
REMARK VINA RESULT:      -5.9      1.824      2.316
REMARK  Name = 
REMARK  5 active torsions:
REMARK  status: ('A' for Active; 'I' for Inactive)
REMARK    1  A    between atoms: C_1  and  N_2
REMARK    2  A    between atoms: C_7  and  C_8
REMARK    3  A    between atoms: N_10  and  C_11
REMARK    4  A    between atoms: C_12  and  C_13
REMARK    5  A    between atoms: C_17  and  C_18
REMARK                            x       y       z     vdW  Elec       q    Type
REMARK                         _______ _______ _______ _____ _____    ______ ____
ROOT
ATOM      1  C   UNL     1       7.353  -2.683  22.769  0.00  0.00    +0.234 C 
ATOM      2  N   UNL     1       8.570  -2.277  23.288  0.00  0.00    -0.284 N 
ATOM      3  H   UNL     1       9.138  -3.036  23.645  0.00  0.00    +0.155 HD
ATOM      4  O   UNL     1       6.343  -1.980  22.759  0.00  0.00    -0.274 OA
ENDROOT
BRANCH   2   5
ATOM      5  C   UNL     1       8.820  -0.958  23.723  0.00  0.00    +0.039 A 
ATOM      6  C   UNL     1       8.654  -0.598  25.085  0.00  0.00    -0.029 A 
ATOM      7  C   UNL     1       8.181  -1.562  26.143  0.00  0.00    +0.045 C 
ATOM      8  C   UNL     1       8.877   0.733  25.476  0.00  0.00    +0.005 A 
ATOM      9  C   UNL     1       9.246   1.699  24.546  0.00  0.00    +0.001 A 
ATOM     10  C   UNL     1       9.398   1.347  23.209  0.00  0.00    +0.005 A 
ATOM     11  C   UNL     1       9.175   0.027  22.776  0.00  0.00    -0.029 A 
ATOM     12  C   UNL     1       9.481  -0.271  21.332  0.00  0.00    +0.045 C 
ENDBRANCH   2   5
BRANCH   1  15
ATOM     13  C   UNL     1       6.050  -5.785  20.978  0.00  0.00    +0.105 C 
ATOM     14  N   UNL     1       5.972  -4.535  21.743  0.00  0.00    -0.295 NA
ATOM     15  C   UNL     1       7.306  -4.163  22.299  0.00  0.00    +0.143 C 
ATOM     16  C   UNL     1       7.763  -5.082  23.444  0.00  0.00    +0.028 C 
ATOM     17  C   UNL     1       6.713  -5.162  24.550  0.00  0.00    +0.003 C 
ATOM     18  C   UNL     1       5.346  -5.532  23.986  0.00  0.00    +0.015 C 
ATOM     19  C   UNL     1       4.954  -4.640  22.806  0.00  0.00    +0.085 C 
ENDBRANCH   1  15
TORSDOF 2
ENDMDL
MODEL 9
REMARK VINA RESULT:      -5.8      1.661      2.637
REMARK  Name = 
REMARK  5 active torsions:
REMARK  status: ('A' for Active; 'I' for Inactive)
REMARK    1  A    between atoms: C_1  and  N_2
REMARK    2  A    between atoms: C_7  and  C_8
REMARK    3  A    between atoms: N_10  and  C_11
REMARK    4  A    between atoms: C_12  and  C_13
REMARK    5  A    between atoms: C_17  and  C_18
REMARK                            x       y       z     vdW  Elec       q    Type
REMARK                         _______ _______ _______ _____ _____    ______ ____
ROOT
ATOM      1  C   UNL     1       7.835  -1.848  25.045  0.00  0.00    +0.234 C 
ATOM      2  N   UNL     1       7.542  -1.407  23.766  0.00  0.00    -0.284 N 
ATOM      3  H   UNL     1       7.176  -2.128  23.156  0.00  0.00    +0.155 HD
ATOM      4  O   UNL     1       8.708  -1.353  25.758  0.00  0.00    -0.274 OA
ENDROOT
BRANCH   2   5
ATOM      5  C   UNL     1       8.113  -0.245  23.203  0.00  0.00    +0.039 A 
ATOM      6  C   UNL     1       9.342  -0.307  22.498  0.00  0.00    -0.029 A 
ATOM      7  C   UNL     1      10.133  -1.578  22.324  0.00  0.00    +0.045 C 
ATOM      8  C   UNL     1       9.898   0.875  21.982  0.00  0.00    +0.005 A 
ATOM      9  C   UNL     1       9.267   2.101  22.162  0.00  0.00    +0.001 A 
ATOM     10  C   UNL     1       8.067   2.162  22.863  0.00  0.00    +0.005 A 
ATOM     11  C   UNL     1       7.482   1.002  23.403  0.00  0.00    -0.029 A 
ATOM     12  C   UNL     1       6.127   1.162  24.040  0.00  0.00    +0.045 C 
ENDBRANCH   2   5
BRANCH   1  15
ATOM     13  C   UNL     1       6.676  -4.660  27.341  0.00  0.00    +0.105 C 
ATOM     14  N   UNL     1       7.620  -3.712  26.737  0.00  0.00    -0.295 NA
ATOM     15  C   UNL     1       7.058  -3.116  25.491  0.00  0.00    +0.143 C 
ATOM     16  C   UNL     1       6.985  -4.113  24.322  0.00  0.00    +0.028 C 
ATOM     17  C   UNL     1       8.341  -4.761  24.054  0.00  0.00    +0.003 C 
ATOM     18  C   UNL     1       8.925  -5.362  25.327  0.00  0.00    +0.015 C 
ATOM     19  C   UNL     1       8.920  -4.364  26.486  0.00  0.00    +0.085 C 
ENDBRANCH   1  15
TORSDOF 2
ENDMDL
