MODEL 1
REMARK VINA RESULT:      -6.6      0.000      0.000
REMARK  Name = 
REMARK  14 active torsions:
REMARK  status: ('A' for Active; 'I' for Inactive)
REMARK    1  A    between atoms: C_1  and  N_2
REMARK    2  A    between atoms: N_2  and  C_3
REMARK    3  A    between atoms: C_3  and  C_5
REMARK    4  A    between atoms: C_3  and  C_6
REMARK    5  A    between atoms: N_8  and  C_9
REMARK    6  A    between atoms: C_9  and  C_11
REMARK    7  A    between atoms: C_9  and  C_41
REMARK    8  A    between atoms: C_15  and  O_34
REMARK    9  A    between atoms: C_18  and  C_20
REMARK   10  A    between atoms: N_22  and  C_23
REMARK   11  A    between atoms: O_34  and  C_35
REMARK   12  A    between atoms: C_41  and  C_42
REMARK   13  A    between atoms: C_41  and  C_43
REMARK   14  A    between atoms: C_41  and  C_44
REMARK                            x       y       z     vdW  Elec       q    Type
REMARK                         _______ _______ _______ _____ _____    ______ ____
ROOT
ATOM      1  C   UNL     1       8.721   0.124  25.250  0.00  0.00    +0.237 C 
ATOM      2  N   UNL     1       7.519  -0.360  25.711  0.00  0.00    -0.285 N 
ATOM      3  C   UNL     1       7.441  -1.484  26.641  0.00  0.00    +0.166 C 
ATOM      4  C   UNL     1       6.031  -1.400  27.243  0.00  0.00    +0.078 C 
ATOM      5  C   UNL     1       5.374  -0.158  26.596  0.00  0.00    +0.193 C 
ATOM      6  C   UNL     1       6.194   0.052  25.317  0.00  0.00    +0.153 C 
ATOM      7  O   UNL     1       9.731  -0.015  25.948  0.00  0.00    -0.274 OA
ENDROOT
BRANCH   3   8
ATOM      8  C   UNL     1       7.589  -2.795  25.816  0.00  0.00    +0.234 C 
ATOM      9  N   UNL     1       6.416  -3.474  25.553  0.00  0.00    -0.307 N 
ATOM     10  H   UNL     1       5.636  -3.340  26.185  0.00  0.00    +0.149 HD
ATOM     11  O   UNL     1       8.671  -3.169  25.361  0.00  0.00    -0.274 OA
BRANCH   9  12
ATOM     12  C   UNL     1       6.417  -4.698  24.747  0.00  0.00    +0.103 C 
ATOM     13  C   UNL     1       5.235  -5.568  25.144  0.00  0.00    -0.024 A 
ATOM     14  C   UNL     1       4.049  -5.593  24.382  0.00  0.00    -0.042 A 
ATOM     15  C   UNL     1       2.955  -6.352  24.829  0.00  0.00    +0.004 A 
ATOM     16  C   UNL     1       3.033  -7.083  26.013  0.00  0.00    +0.000 A 
ATOM     17  C   UNL     1       4.213  -7.084  26.752  0.00  0.00    +0.000 A 
ATOM     18  C   UNL     1       3.946  -4.901  23.045  0.00  0.00    +0.035 C 
ATOM     19  C   UNL     1       5.034  -3.863  22.802  0.00  0.00    +0.007 C 
ATOM     20  C   UNL     1       5.306  -6.331  26.323  0.00  0.00    +0.006 A 
ATOM     21  C   UNL     1       6.396  -4.393  23.237  0.00  0.00    +0.027 C 
ENDBRANCH   9  12
ENDBRANCH   3   8
BRANCH   1  22
ATOM     22  C   UNL     1       8.757   0.827  23.850  0.00  0.00    +0.164 C 
BRANCH  22  24
ATOM     23  C   UNL     1       9.203   3.275  24.195  0.00  0.00    +0.230 C 
ATOM     24  N   UNL     1       9.636   2.017  23.821  0.00  0.00    -0.302 N 
ATOM     25  H   UNL     1      10.460   1.992  23.224  0.00  0.00    +0.150 HD
ATOM     26  O   UNL     1       8.124   3.451  24.759  0.00  0.00    -0.274 OA
BRANCH  23  27
ATOM     27  C   UNL     1      10.171   4.476  23.931  0.00  0.00    +0.137 C 
ATOM     28  C   UNL     1       9.365   5.718  23.524  0.00  0.00    +0.034 C 
BRANCH  27  30
ATOM     29  C   UNL     1      12.480   4.858  23.233  0.00  0.00    +0.101 C 
ATOM     30  N   UNL     1      11.233   4.136  22.944  0.00  0.00    -0.309 NA
ATOM     31  H   UNL     1      11.441   3.144  23.050  0.00  0.00    +0.122 HD
ENDBRANCH  27  30
ENDBRANCH  23  27
ENDBRANCH  22  24
BRANCH  22  32
ATOM     32  C   UNL     1       9.135  -0.200  22.712  0.00  0.00    -0.011 C 
ATOM     33  C   UNL     1      10.410  -1.012  23.028  0.00  0.00    +0.013 C 
ATOM     34  C   UNL     1       9.373   0.550  21.383  0.00  0.00    +0.013 C 
ATOM     35  C   UNL     1       7.974  -1.192  22.466  0.00  0.00    +0.013 C 
ENDBRANCH  22  32
ENDBRANCH   1  22
BRANCH   5  36
ATOM     36  O   UNL     1       3.990  -0.425  26.380  0.00  0.00    -0.487 OA
BRANCH  36  37
ATOM     37  C   UNL     1       3.394  -1.391  27.148  0.00  0.00    +0.121 A 
ATOM     38  C   UNL     1       3.064  -2.569  26.471  0.00  0.00    +0.045 A 
ATOM     39  C   UNL     1       2.406  -3.611  27.133  0.00  0.00    +0.004 A 
ATOM     40  C   UNL     1       2.051  -3.472  28.473  0.00  0.00    +0.000 A 
ATOM     41  C   UNL     1       2.380  -2.305  29.154  0.00  0.00    +0.004 A 
ATOM     42  C   UNL     1       3.068  -1.281  28.499  0.00  0.00    +0.045 A 
ENDBRANCH  36  37
ENDBRANCH   5  36
TORSDOF 9
ENDMDL
MODEL 2
REMARK VINA RESULT:      -6.5      1.446      1.780
REMARK  Name = 
REMARK  14 active torsions:
REMARK  status: ('A' for Active; 'I' for Inactive)
REMARK    1  A    between atoms: C_1  and  N_2
REMARK    2  A    between atoms: N_2  and  C_3
REMARK    3  A    between atoms: C_3  and  C_5
REMARK    4  A    between atoms: C_3  and  C_6
REMARK    5  A    between atoms: N_8  and  C_9
REMARK    6  A    between atoms: C_9  and  C_11
REMARK    7  A    between atoms: C_9  and  C_41
REMARK    8  A    between atoms: C_15  and  O_34
REMARK    9  A    between atoms: C_18  and  C_20
REMARK   10  A    between atoms: N_22  and  C_23
REMARK   11  A    between atoms: O_34  and  C_35
REMARK   12  A    between atoms: C_41  and  C_42
REMARK   13  A    between atoms: C_41  and  C_43
REMARK   14  A    between atoms: C_41  and  C_44
REMARK                            x       y       z     vdW  Elec       q    Type
REMARK                         _______ _______ _______ _____ _____    ______ ____
ROOT
ATOM      1  C   UNL     1       8.270  -0.433  25.289  0.00  0.00    +0.237 C 
ATOM      2  N   UNL     1       7.082  -0.994  25.697  0.00  0.00    -0.285 N 
ATOM      3  C   UNL     1       7.015  -1.950  26.798  0.00  0.00    +0.166 C 
ATOM      4  C   UNL     1       5.539  -1.960  27.222  0.00  0.00    +0.078 C 
ATOM      5  C   UNL     1       4.832  -0.942  26.297  0.00  0.00    +0.193 C 
ATOM      6  C   UNL     1       5.780  -0.834  25.097  0.00  0.00    +0.153 C 
ATOM      7  O   UNL     1       9.190  -0.318  26.104  0.00  0.00    -0.274 OA
ENDROOT
BRANCH   3   8
ATOM      8  C   UNL     1       7.417  -3.346  26.241  0.00  0.00    +0.234 C 
ATOM      9  N   UNL     1       6.478  -3.967  25.444  0.00  0.00    -0.307 N 
ATOM     10  H   UNL     1       5.504  -3.716  25.569  0.00  0.00    +0.149 HD
ATOM     11  O   UNL     1       8.529  -3.837  26.437  0.00  0.00    -0.274 OA
BRANCH   9  12
ATOM     12  C   UNL     1       6.755  -5.265  24.822  0.00  0.00    +0.103 C 
ATOM     13  C   UNL     1       5.458  -6.042  24.667  0.00  0.00    -0.024 A 
ATOM     14  C   UNL     1       4.771  -6.095  23.437  0.00  0.00    -0.042 A 
ATOM     15  C   UNL     1       3.537  -6.760  23.361  0.00  0.00    +0.004 A 
ATOM     16  C   UNL     1       2.987  -7.370  24.486  0.00  0.00    +0.000 A 
ATOM     17  C   UNL     1       3.676  -7.346  25.695  0.00  0.00    +0.000 A 
ATOM     18  C   UNL     1       5.367  -5.537  22.167  0.00  0.00    +0.035 C 
ATOM     19  C   UNL     1       6.524  -4.574  22.401  0.00  0.00    +0.007 C 
ATOM     20  C   UNL     1       4.902  -6.685  25.787  0.00  0.00    +0.006 A 
ATOM     21  C   UNL     1       7.473  -5.113  23.466  0.00  0.00    +0.027 C 
ENDBRANCH   9  12
ENDBRANCH   3   8
BRANCH   1  22
ATOM     22  C   UNL     1       8.405   0.030  23.798  0.00  0.00    +0.164 C 
BRANCH  22  24
ATOM     23  C   UNL     1       7.677   2.224  22.815  0.00  0.00    +0.230 C 
ATOM     24  N   UNL     1       8.502   1.499  23.653  0.00  0.00    -0.302 N 
ATOM     25  H   UNL     1       9.377   1.952  23.912  0.00  0.00    +0.150 HD
ATOM     26  O   UNL     1       6.685   1.723  22.286  0.00  0.00    -0.274 OA
BRANCH  23  27
ATOM     27  C   UNL     1       8.013   3.738  22.608  0.00  0.00    +0.137 C 
ATOM     28  C   UNL     1       8.626   4.317  23.892  0.00  0.00    +0.034 C 
BRANCH  27  30
ATOM     29  C   UNL     1       7.192   5.918  21.871  0.00  0.00    +0.101 C 
ATOM     30  N   UNL     1       6.834   4.517  22.138  0.00  0.00    -0.309 NA
ATOM     31  H   UNL     1       6.540   4.117  21.248  0.00  0.00    +0.122 HD
ENDBRANCH  27  30
ENDBRANCH  23  27
ENDBRANCH  22  24
BRANCH  22  32
ATOM     32  C   UNL     1       9.609  -0.703  23.085  0.00  0.00    -0.011 C 
ATOM     33  C   UNL     1       9.756  -2.180  23.513  0.00  0.00    +0.013 C 
ATOM     34  C   UNL     1      10.935   0.016  23.417  0.00  0.00    +0.013 C 
ATOM     35  C   UNL     1       9.443  -0.655  21.548  0.00  0.00    +0.013 C 
ENDBRANCH  22  32
ENDBRANCH   1  22
BRANCH   5  36
ATOM     36  O   UNL     1       3.528  -1.426  25.985  0.00  0.00    -0.487 OA
BRANCH  36  37
ATOM     37  C   UNL     1       2.922  -2.267  26.881  0.00  0.00    +0.121 A 
ATOM     38  C   UNL     1       2.775  -3.589  26.449  0.00  0.00    +0.045 A 
ATOM     39  C   UNL     1       2.127  -4.533  27.253  0.00  0.00    +0.004 A 
ATOM     40  C   UNL     1       1.602  -4.156  28.486  0.00  0.00    +0.000 A 
ATOM     41  C   UNL     1       1.748  -2.845  28.924  0.00  0.00    +0.004 A 
ATOM     42  C   UNL     1       2.426  -1.913  28.135  0.00  0.00    +0.045 A 
ENDBRANCH  36  37
ENDBRANCH   5  36
TORSDOF 9
ENDMDL
MODEL 3
REMARK VINA RESULT:      -6.3      2.259      6.516
REMARK  Name = 
REMARK  14 active torsions:
REMARK  status: ('A' for Active; 'I' for Inactive)
REMARK    1  A    between atoms: C_1  and  N_2
REMARK    2  A    between atoms: N_2  and  C_3
REMARK    3  A    between atoms: C_3  and  C_5
REMARK    4  A    between atoms: C_3  and  C_6
REMARK    5  A    between atoms: N_8  and  C_9
REMARK    6  A    between atoms: C_9  and  C_11
REMARK    7  A    between atoms: C_9  and  C_41
REMARK    8  A    between atoms: C_15  and  O_34
REMARK    9  A    between atoms: C_18  and  C_20
REMARK   10  A    between atoms: N_22  and  C_23
REMARK   11  A    between atoms: O_34  and  C_35
REMARK   12  A    between atoms: C_41  and  C_42
REMARK   13  A    between atoms: C_41  and  C_43
REMARK   14  A    between atoms: C_41  and  C_44
REMARK                            x       y       z     vdW  Elec       q    Type
REMARK                         _______ _______ _______ _____ _____    ______ ____
ROOT
ATOM      1  C   UNL     1       6.313  -0.050  24.549  0.00  0.00    +0.237 C 
ATOM      2  N   UNL     1       7.481   0.344  23.937  0.00  0.00    -0.285 N 
ATOM      3  C   UNL     1       7.799  -0.027  22.561  0.00  0.00    +0.166 C 
ATOM      4  C   UNL     1       8.896   0.958  22.131  0.00  0.00    +0.078 C 
ATOM      5  C   UNL     1       9.127   1.884  23.348  0.00  0.00    +0.193 C 
ATOM      6  C   UNL     1       8.584   1.065  24.525  0.00  0.00    +0.153 C 
ATOM      7  O   UNL     1       5.319  -0.277  23.852  0.00  0.00    -0.274 OA
ENDROOT
BRANCH   3   8
ATOM      8  C   UNL     1       8.364  -1.477  22.578  0.00  0.00    +0.234 C 
ATOM      9  N   UNL     1       7.444  -2.477  22.821  0.00  0.00    -0.307 N 
ATOM     10  H   UNL     1       6.604  -2.237  23.335  0.00  0.00    +0.149 HD
ATOM     11  O   UNL     1       9.542  -1.728  22.320  0.00  0.00    -0.274 OA
BRANCH   9  12
ATOM     12  C   UNL     1       7.843  -3.887  22.818  0.00  0.00    +0.103 C 
ATOM     13  C   UNL     1       7.839  -4.419  24.242  0.00  0.00    -0.024 A 
ATOM     14  C   UNL     1       6.763  -5.181  24.742  0.00  0.00    -0.042 A 
ATOM     15  C   UNL     1       6.768  -5.586  26.086  0.00  0.00    +0.004 A 
ATOM     16  C   UNL     1       7.825  -5.246  26.928  0.00  0.00    +0.000 A 
ATOM     17  C   UNL     1       8.903  -4.520  26.430  0.00  0.00    +0.000 A 
ATOM     18  C   UNL     1       5.644  -5.659  23.850  0.00  0.00    +0.035 C 
ATOM     19  C   UNL     1       5.554  -4.919  22.522  0.00  0.00    +0.007 C 
ATOM     20  C   UNL     1       8.911  -4.107  25.098  0.00  0.00    +0.006 A 
ATOM     21  C   UNL     1       6.939  -4.739  21.907  0.00  0.00    +0.027 C 
ENDBRANCH   9  12
ENDBRANCH   3   8
BRANCH   1  22
ATOM     22  C   UNL     1       6.300  -0.201  26.108  0.00  0.00    +0.164 C 
BRANCH  22  24
ATOM     23  C   UNL     1       6.693   1.408  27.995  0.00  0.00    +0.230 C 
ATOM     24  N   UNL     1       6.061   1.077  26.813  0.00  0.00    -0.302 N 
ATOM     25  H   UNL     1       5.197   1.581  26.616  0.00  0.00    +0.150 HD
ATOM     26  O   UNL     1       7.637   0.752  28.434  0.00  0.00    -0.274 OA
BRANCH  23  27
ATOM     27  C   UNL     1       6.206   2.699  28.735  0.00  0.00    +0.137 C 
ATOM     28  C   UNL     1       4.813   3.097  28.227  0.00  0.00    +0.034 C 
BRANCH  27  30
ATOM     29  C   UNL     1       6.963   4.613  27.419  0.00  0.00    +0.101 C 
ATOM     30  N   UNL     1       7.190   3.811  28.631  0.00  0.00    -0.309 NA
ATOM     31  H   UNL     1       7.033   4.433  29.423  0.00  0.00    +0.122 HD
ENDBRANCH  27  30
ENDBRANCH  23  27
ENDBRANCH  22  24
BRANCH  22  32
ATOM     32  C   UNL     1       5.272  -1.312  26.559  0.00  0.00    -0.011 C 
ATOM     33  C   UNL     1       3.964  -0.728  27.137  0.00  0.00    +0.013 C 
ATOM     34  C   UNL     1       5.907  -2.208  27.645  0.00  0.00    +0.013 C 
ATOM     35  C   UNL     1       4.910  -2.234  25.371  0.00  0.00    +0.013 C 
ENDBRANCH  22  32
ENDBRANCH   1  22
BRANCH   5  36
ATOM     36  O   UNL     1      10.514   2.201  23.433  0.00  0.00    -0.487 OA
BRANCH  36  37
ATOM     37  C   UNL     1      10.864   3.515  23.604  0.00  0.00    +0.121 A 
ATOM     38  C   UNL     1       9.829   4.357  24.022  0.00  0.00    +0.045 A 
ATOM     39  C   UNL     1      10.048   5.729  24.185  0.00  0.00    +0.004 A 
ATOM     40  C   UNL     1      11.299   6.273  23.907  0.00  0.00    +0.000 A 
ATOM     41  C   UNL     1      12.335   5.442  23.495  0.00  0.00    +0.004 A 
ATOM     42  C   UNL     1      12.122   4.067  23.367  0.00  0.00    +0.045 A 
ENDBRANCH  36  37
ENDBRANCH   5  36
TORSDOF 9
ENDMDL
MODEL 4
REMARK VINA RESULT:      -6.2      2.075      7.520
REMARK  Name = 
REMARK  14 active torsions:
REMARK  status: ('A' for Active; 'I' for Inactive)
REMARK    1  A    between atoms: C_1  and  N_2
REMARK    2  A    between atoms: N_2  and  C_3
REMARK    3  A    between atoms: C_3  and  C_5
REMARK    4  A    between atoms: C_3  and  C_6
REMARK    5  A    between atoms: N_8  and  C_9
REMARK    6  A    between atoms: C_9  and  C_11
REMARK    7  A    between atoms: C_9  and  C_41
REMARK    8  A    between atoms: C_15  and  O_34
REMARK    9  A    between atoms: C_18  and  C_20
REMARK   10  A    between atoms: N_22  and  C_23
REMARK   11  A    between atoms: O_34  and  C_35
REMARK   12  A    between atoms: C_41  and  C_42
REMARK   13  A    between atoms: C_41  and  C_43
REMARK   14  A    between atoms: C_41  and  C_44
REMARK                            x       y       z     vdW  Elec       q    Type
REMARK                         _______ _______ _______ _____ _____    ______ ____
ROOT
ATOM      1  C   UNL     1       7.304  -1.141  26.106  0.00  0.00    +0.237 C 
ATOM      2  N   UNL     1       7.404  -2.146  25.171  0.00  0.00    -0.285 N 
ATOM      3  C   UNL     1       8.598  -2.322  24.348  0.00  0.00    +0.166 C 
ATOM      4  C   UNL     1       8.500  -3.759  23.814  0.00  0.00    +0.078 C 
ATOM      5  C   UNL     1       7.199  -4.340  24.416  0.00  0.00    +0.193 C 
ATOM      6  C   UNL     1       6.387  -3.092  24.781  0.00  0.00    +0.153 C 
ATOM      7  O   UNL     1       8.335  -0.698  26.621  0.00  0.00    -0.274 OA
ENDROOT
BRANCH   3   8
ATOM      8  C   UNL     1       8.515  -1.311  23.169  0.00  0.00    +0.234 C 
ATOM      9  N   UNL     1       8.790   0.004  23.485  0.00  0.00    -0.307 N 
ATOM     10  H   UNL     1       8.645   0.305  24.442  0.00  0.00    +0.149 HD
ATOM     11  O   UNL     1       8.291  -1.666  22.011  0.00  0.00    -0.274 OA
BRANCH   9  12
ATOM     12  C   UNL     1       8.791   1.045  22.453  0.00  0.00    +0.103 C 
ATOM     13  C   UNL     1       7.791   2.128  22.824  0.00  0.00    -0.024 A 
ATOM     14  C   UNL     1       8.201   3.338  23.421  0.00  0.00    -0.042 A 
ATOM     15  C   UNL     1       7.235   4.277  23.818  0.00  0.00    +0.004 A 
ATOM     16  C   UNL     1       5.878   4.026  23.623  0.00  0.00    +0.000 A 
ATOM     17  C   UNL     1       5.471   2.847  23.007  0.00  0.00    +0.000 A 
ATOM     18  C   UNL     1       9.658   3.702  23.564  0.00  0.00    +0.035 C 
ATOM     19  C   UNL     1      10.607   2.519  23.413  0.00  0.00    +0.007 C 
ATOM     20  C   UNL     1       6.419   1.902  22.612  0.00  0.00    +0.006 A 
ATOM     21  C   UNL     1      10.195   1.641  22.236  0.00  0.00    +0.027 C 
ENDBRANCH   9  12
ENDBRANCH   3   8
BRANCH   1  22
ATOM     22  C   UNL     1       5.880  -0.598  26.469  0.00  0.00    +0.164 C 
BRANCH  22  24
ATOM     23  C   UNL     1       3.901  -1.895  27.311  0.00  0.00    +0.230 C 
ATOM     24  N   UNL     1       5.187  -1.420  27.484  0.00  0.00    -0.302 N 
ATOM     25  H   UNL     1       5.515  -1.374  28.447  0.00  0.00    +0.150 HD
ATOM     26  O   UNL     1       3.324  -1.830  26.226  0.00  0.00    -0.274 OA
BRANCH  23  27
ATOM     27  C   UNL     1       3.217  -2.584  28.538  0.00  0.00    +0.137 C 
ATOM     28  C   UNL     1       3.793  -2.016  29.844  0.00  0.00    +0.034 C 
BRANCH  27  30
ATOM     29  C   UNL     1       4.571  -4.551  29.054  0.00  0.00    +0.101 C 
ATOM     30  N   UNL     1       3.309  -4.068  28.473  0.00  0.00    -0.309 NA
ATOM     31  H   UNL     1       2.560  -4.447  29.052  0.00  0.00    +0.122 HD
ENDBRANCH  27  30
ENDBRANCH  23  27
ENDBRANCH  22  24
BRANCH  22  32
ATOM     32  C   UNL     1       5.948   0.920  26.900  0.00  0.00    -0.011 C 
ATOM     33  C   UNL     1       7.190   1.651  26.346  0.00  0.00    +0.013 C 
ATOM     34  C   UNL     1       5.988   1.029  28.440  0.00  0.00    +0.013 C 
ATOM     35  C   UNL     1       4.684   1.678  26.428  0.00  0.00    +0.013 C 
ENDBRANCH  22  32
ENDBRANCH   1  22
BRANCH   5  36
ATOM     36  O   UNL     1       6.582  -5.192  23.454  0.00  0.00    -0.487 OA
BRANCH  36  37
ATOM     37  C   UNL     1       5.361  -5.731  23.760  0.00  0.00    +0.121 A 
ATOM     38  C   UNL     1       5.315  -6.462  24.952  0.00  0.00    +0.045 A 
ATOM     39  C   UNL     1       4.137  -7.102  25.350  0.00  0.00    +0.004 A 
ATOM     40  C   UNL     1       3.001  -7.038  24.546  0.00  0.00    +0.000 A 
ATOM     41  C   UNL     1       3.038  -6.310  23.361  0.00  0.00    +0.004 A 
ATOM     42  C   UNL     1       4.205  -5.642  22.985  0.00  0.00    +0.045 A 
ENDBRANCH  36  37
ENDBRANCH   5  36
TORSDOF 9
ENDMDL
MODEL 5
REMARK VINA RESULT:      -6.1      2.138      5.374
REMARK  Name = 
REMARK  14 active torsions:
REMARK  status: ('A' for Active; 'I' for Inactive)
REMARK    1  A    between atoms: C_1  and  N_2
REMARK    2  A    between atoms: N_2  and  C_3
REMARK    3  A    between atoms: C_3  and  C_5
REMARK    4  A    between atoms: C_3  and  C_6
REMARK    5  A    between atoms: N_8  and  C_9
REMARK    6  A    between atoms: C_9  and  C_11
REMARK    7  A    between atoms: C_9  and  C_41
REMARK    8  A    between atoms: C_15  and  O_34
REMARK    9  A    between atoms: C_18  and  C_20
REMARK   10  A    between atoms: N_22  and  C_23
REMARK   11  A    between atoms: O_34  and  C_35
REMARK   12  A    between atoms: C_41  and  C_42
REMARK   13  A    between atoms: C_41  and  C_43
REMARK   14  A    between atoms: C_41  and  C_44
REMARK                            x       y       z     vdW  Elec       q    Type
REMARK                         _______ _______ _______ _____ _____    ______ ____
ROOT
ATOM      1  C   UNL     1       6.799  -2.808  26.074  0.00  0.00    +0.237 C 
ATOM      2  N   UNL     1       6.152  -1.596  26.150  0.00  0.00    -0.285 N 
ATOM      3  C   UNL     1       5.195  -1.293  27.210  0.00  0.00    +0.166 C 
ATOM      4  C   UNL     1       5.076   0.237  27.210  0.00  0.00    +0.078 C 
ATOM      5  C   UNL     1       6.039   0.730  26.103  0.00  0.00    +0.193 C 
ATOM      6  C   UNL     1       6.215  -0.503  25.210  0.00  0.00    +0.153 C 
ATOM      7  O   UNL     1       6.982  -3.455  27.110  0.00  0.00    -0.274 OA
ENDROOT
BRANCH   3   8
ATOM      8  C   UNL     1       3.832  -1.932  26.816  0.00  0.00    +0.234 C 
ATOM      9  N   UNL     1       3.700  -3.279  27.085  0.00  0.00    -0.307 N 
ATOM     10  H   UNL     1       4.542  -3.839  27.139  0.00  0.00    +0.149 HD
ATOM     11  O   UNL     1       2.901  -1.267  26.360  0.00  0.00    -0.274 OA
BRANCH   9  12
ATOM     12  C   UNL     1       2.448  -3.987  26.802  0.00  0.00    +0.103 C 
ATOM     13  C   UNL     1       2.691  -5.043  25.736  0.00  0.00    -0.024 A 
ATOM     14  C   UNL     1       2.869  -6.401  26.070  0.00  0.00    -0.042 A 
ATOM     15  C   UNL     1       3.168  -7.330  25.061  0.00  0.00    +0.004 A 
ATOM     16  C   UNL     1       3.285  -6.923  23.733  0.00  0.00    +0.000 A 
ATOM     17  C   UNL     1       3.081  -5.588  23.395  0.00  0.00    +0.000 A 
ATOM     18  C   UNL     1       2.655  -6.911  27.475  0.00  0.00    +0.035 C 
ATOM     19  C   UNL     1       2.655  -5.816  28.535  0.00  0.00    +0.007 C 
ATOM     20  C   UNL     1       2.788  -4.654  24.388  0.00  0.00    +0.006 A 
ATOM     21  C   UNL     1       1.840  -4.613  28.072  0.00  0.00    +0.027 C 
ENDBRANCH   9  12
ENDBRANCH   3   8
BRANCH   1  22
ATOM     22  C   UNL     1       7.269  -3.318  24.669  0.00  0.00    +0.164 C 
BRANCH  22  24
ATOM     23  C   UNL     1       8.516  -2.088  22.869  0.00  0.00    +0.230 C 
ATOM     24  N   UNL     1       8.450  -2.591  24.154  0.00  0.00    -0.302 N 
ATOM     25  H   UNL     1       9.345  -2.736  24.619  0.00  0.00    +0.150 HD
ATOM     26  O   UNL     1       7.528  -2.039  22.138  0.00  0.00    -0.274 OA
BRANCH  23  27
ATOM     27  C   UNL     1       9.892  -1.515  22.391  0.00  0.00    +0.137 C 
ATOM     28  C   UNL     1      10.568  -0.752  23.539  0.00  0.00    +0.034 C 
BRANCH  27  30
ATOM     29  C   UNL     1       9.444   0.708  21.484  0.00  0.00    +0.101 C 
ATOM     30  N   UNL     1       9.760  -0.690  21.159  0.00  0.00    -0.309 NA
ATOM     31  H   UNL     1      10.669  -0.682  20.697  0.00  0.00    +0.122 HD
ENDBRANCH  27  30
ENDBRANCH  23  27
ENDBRANCH  22  24
BRANCH  22  32
ATOM     32  C   UNL     1       7.511  -4.878  24.687  0.00  0.00    -0.011 C 
ATOM     33  C   UNL     1       8.909  -5.268  25.216  0.00  0.00    +0.013 C 
ATOM     34  C   UNL     1       7.375  -5.449  23.258  0.00  0.00    +0.013 C 
ATOM     35  C   UNL     1       6.445  -5.585  25.557  0.00  0.00    +0.013 C 
ENDBRANCH  22  32
ENDBRANCH   1  22
BRANCH   5  36
ATOM     36  O   UNL     1       5.460   1.859  25.454  0.00  0.00    -0.487 OA
BRANCH  36  37
ATOM     37  C   UNL     1       6.179   2.468  24.459  0.00  0.00    +0.121 A 
ATOM     38  C   UNL     1       7.424   2.972  24.848  0.00  0.00    +0.045 A 
ATOM     39  C   UNL     1       8.231   3.659  23.934  0.00  0.00    +0.004 A 
ATOM     40  C   UNL     1       7.788   3.867  22.631  0.00  0.00    +0.000 A 
ATOM     41  C   UNL     1       6.553   3.365  22.236  0.00  0.00    +0.004 A 
ATOM     42  C   UNL     1       5.765   2.649  23.140  0.00  0.00    +0.045 A 
ENDBRANCH  36  37
ENDBRANCH   5  36
TORSDOF 9
ENDMDL
MODEL 6
REMARK VINA RESULT:      -6.0      1.981      4.626
REMARK  Name = 
REMARK  14 active torsions:
REMARK  status: ('A' for Active; 'I' for Inactive)
REMARK    1  A    between atoms: C_1  and  N_2
REMARK    2  A    between atoms: N_2  and  C_3
REMARK    3  A    between atoms: C_3  and  C_5
REMARK    4  A    between atoms: C_3  and  C_6
REMARK    5  A    between atoms: N_8  and  C_9
REMARK    6  A    between atoms: C_9  and  C_11
REMARK    7  A    between atoms: C_9  and  C_41
REMARK    8  A    between atoms: C_15  and  O_34
REMARK    9  A    between atoms: C_18  and  C_20
REMARK   10  A    between atoms: N_22  and  C_23
REMARK   11  A    between atoms: O_34  and  C_35
REMARK   12  A    between atoms: C_41  and  C_42
REMARK   13  A    between atoms: C_41  and  C_43
REMARK   14  A    between atoms: C_41  and  C_44
REMARK                            x       y       z     vdW  Elec       q    Type
REMARK                         _______ _______ _______ _____ _____    ______ ____
ROOT
ATOM      1  C   UNL     1       7.172   2.104  24.272  0.00  0.00    +0.237 C 
ATOM      2  N   UNL     1       7.582   0.802  24.105  0.00  0.00    -0.285 N 
ATOM      3  C   UNL     1       6.735  -0.201  23.467  0.00  0.00    +0.166 C 
ATOM      4  C   UNL     1       7.694  -1.331  23.066  0.00  0.00    +0.078 C 
ATOM      5  C   UNL     1       9.100  -0.862  23.510  0.00  0.00    +0.193 C 
ATOM      6  C   UNL     1       8.801   0.194  24.581  0.00  0.00    +0.153 C 
ATOM      7  O   UNL     1       6.345   2.578  23.486  0.00  0.00    -0.274 OA
ENDROOT
BRANCH   3   8
ATOM      8  C   UNL     1       5.723  -0.716  24.531  0.00  0.00    +0.234 C 
ATOM      9  N   UNL     1       5.707  -2.082  24.732  0.00  0.00    -0.307 N 
ATOM     10  H   UNL     1       6.018  -2.679  23.976  0.00  0.00    +0.149 HD
ATOM     11  O   UNL     1       5.031   0.047  25.205  0.00  0.00    -0.274 OA
BRANCH   9  12
ATOM     12  C   UNL     1       4.831  -2.686  25.740  0.00  0.00    +0.103 C 
ATOM     13  C   UNL     1       4.434  -4.084  25.296  0.00  0.00    -0.024 A 
ATOM     14  C   UNL     1       5.077  -5.231  25.806  0.00  0.00    -0.042 A 
ATOM     15  C   UNL     1       4.731  -6.498  25.309  0.00  0.00    +0.004 A 
ATOM     16  C   UNL     1       3.757  -6.633  24.322  0.00  0.00    +0.000 A 
ATOM     17  C   UNL     1       3.099  -5.506  23.837  0.00  0.00    +0.000 A 
ATOM     18  C   UNL     1       6.066  -5.150  26.943  0.00  0.00    +0.035 C 
ATOM     19  C   UNL     1       6.609  -3.748  27.189  0.00  0.00    +0.007 C 
ATOM     20  C   UNL     1       3.435  -4.240  24.318  0.00  0.00    +0.006 A 
ATOM     21  C   UNL     1       5.489  -2.715  27.133  0.00  0.00    +0.027 C 
ENDBRANCH   9  12
ENDBRANCH   3   8
BRANCH   1  22
ATOM     22  C   UNL     1       7.769   2.929  25.463  0.00  0.00    +0.164 C 
BRANCH  22  24
ATOM     23  C   UNL     1       9.484   4.323  24.270  0.00  0.00    +0.230 C 
ATOM     24  N   UNL     1       8.342   4.226  25.041  0.00  0.00    -0.302 N 
ATOM     25  H   UNL     1       8.097   5.058  25.576  0.00  0.00    +0.150 HD
ATOM     26  O   UNL     1       9.986   3.342  23.723  0.00  0.00    -0.274 OA
BRANCH  23  27
ATOM     27  C   UNL     1      10.090   5.751  24.060  0.00  0.00    +0.137 C 
ATOM     28  C   UNL     1       8.975   6.743  23.696  0.00  0.00    +0.034 C 
BRANCH  27  30
ATOM     29  C   UNL     1      12.510   5.777  23.730  0.00  0.00    +0.101 C 
ATOM     30  N   UNL     1      11.198   5.751  23.066  0.00  0.00    -0.309 NA
ATOM     31  H   UNL     1      11.149   4.870  22.554  0.00  0.00    +0.122 HD
ENDBRANCH  27  30
ENDBRANCH  23  27
ENDBRANCH  22  24
BRANCH  22  32
ATOM     32  C   UNL     1       6.704   3.113  26.614  0.00  0.00    -0.011 C 
ATOM     33  C   UNL     1       5.267   3.310  26.082  0.00  0.00    +0.013 C 
ATOM     34  C   UNL     1       7.060   4.348  27.470  0.00  0.00    +0.013 C 
ATOM     35  C   UNL     1       6.709   1.891  27.562  0.00  0.00    +0.013 C 
ENDBRANCH  22  32
ENDBRANCH   1  22
BRANCH   5  36
ATOM     36  O   UNL     1       9.840  -1.988  23.973  0.00  0.00    -0.487 OA
BRANCH  36  37
ATOM     37  C   UNL     1       9.217  -3.208  23.985  0.00  0.00    +0.121 A 
ATOM     38  C   UNL     1       9.644  -4.085  24.987  0.00  0.00    +0.045 A 
ATOM     39  C   UNL     1       9.119  -5.378  25.074  0.00  0.00    +0.004 A 
ATOM     40  C   UNL     1       8.178  -5.813  24.143  0.00  0.00    +0.000 A 
ATOM     41  C   UNL     1       7.745  -4.946  23.146  0.00  0.00    +0.004 A 
ATOM     42  C   UNL     1       8.245  -3.643  23.084  0.00  0.00    +0.045 A 
ENDBRANCH  36  37
ENDBRANCH   5  36
TORSDOF 9
ENDMDL
MODEL 7
REMARK VINA RESULT:      -6.0      2.850      4.546
REMARK  Name = 
REMARK  14 active torsions:
REMARK  status: ('A' for Active; 'I' for Inactive)
REMARK    1  A    between atoms: C_1  and  N_2
REMARK    2  A    between atoms: N_2  and  C_3
REMARK    3  A    between atoms: C_3  and  C_5
REMARK    4  A    between atoms: C_3  and  C_6
REMARK    5  A    between atoms: N_8  and  C_9
REMARK    6  A    between atoms: C_9  and  C_11
REMARK    7  A    between atoms: C_9  and  C_41
REMARK    8  A    between atoms: C_15  and  O_34
REMARK    9  A    between atoms: C_18  and  C_20
REMARK   10  A    between atoms: N_22  and  C_23
REMARK   11  A    between atoms: O_34  and  C_35
REMARK   12  A    between atoms: C_41  and  C_42
REMARK   13  A    between atoms: C_41  and  C_43
REMARK   14  A    between atoms: C_41  and  C_44
REMARK                            x       y       z     vdW  Elec       q    Type
REMARK                         _______ _______ _______ _____ _____    ______ ____
ROOT
ATOM      1  C   UNL     1       7.156   0.337  26.037  0.00  0.00    +0.237 C 
ATOM      2  N   UNL     1       5.808   0.601  26.118  0.00  0.00    -0.285 N 
ATOM      3  C   UNL     1       4.942  -0.078  27.078  0.00  0.00    +0.166 C 
ATOM      4  C   UNL     1       3.686   0.800  27.166  0.00  0.00    +0.078 C 
ATOM      5  C   UNL     1       3.942   1.992  26.214  0.00  0.00    +0.193 C 
ATOM      6  C   UNL     1       5.026   1.464  25.267  0.00  0.00    +0.153 C 
ATOM      7  O   UNL     1       7.749  -0.069  27.041  0.00  0.00    -0.274 OA
ENDROOT
BRANCH   3   8
ATOM      8  C   UNL     1       4.577  -1.470  26.487  0.00  0.00    +0.234 C 
ATOM      9  N   UNL     1       5.562  -2.434  26.566  0.00  0.00    -0.307 N 
ATOM     10  H   UNL     1       6.526  -2.127  26.620  0.00  0.00    +0.149 HD
ATOM     11  O   UNL     1       3.457  -1.723  26.042  0.00  0.00    -0.274 OA
BRANCH   9  12
ATOM     12  C   UNL     1       5.325  -3.797  26.085  0.00  0.00    +0.103 C 
ATOM     13  C   UNL     1       5.951  -3.968  24.711  0.00  0.00    -0.024 A 
ATOM     14  C   UNL     1       7.201  -4.598  24.542  0.00  0.00    -0.042 A 
ATOM     15  C   UNL     1       7.776  -4.664  23.263  0.00  0.00    +0.004 A 
ATOM     16  C   UNL     1       7.123  -4.118  22.160  0.00  0.00    +0.000 A 
ATOM     17  C   UNL     1       5.875  -3.522  22.317  0.00  0.00    +0.000 A 
ATOM     18  C   UNL     1       7.904  -5.292  25.683  0.00  0.00    +0.035 C 
ATOM     19  C   UNL     1       7.382  -4.898  27.059  0.00  0.00    +0.007 C 
ATOM     20  C   UNL     1       5.293  -3.445  23.583  0.00  0.00    +0.006 A 
ATOM     21  C   UNL     1       5.857  -4.856  27.070  0.00  0.00    +0.027 C 
ENDBRANCH   9  12
ENDBRANCH   3   8
BRANCH   1  22
ATOM     22  C   UNL     1       7.880   0.559  24.665  0.00  0.00    +0.164 C 
BRANCH  22  24
ATOM     23  C   UNL     1       8.048   2.676  23.324  0.00  0.00    +0.230 C 
ATOM     24  N   UNL     1       8.333   1.953  24.466  0.00  0.00    -0.302 N 
ATOM     25  H   UNL     1       9.126   2.284  25.014  0.00  0.00    +0.150 HD
ATOM     26  O   UNL     1       7.239   2.278  22.487  0.00  0.00    -0.274 OA
BRANCH  23  27
ATOM     27  C   UNL     1       8.750   4.065  23.159  0.00  0.00    +0.137 C 
ATOM     28  C   UNL     1       9.069   4.656  24.539  0.00  0.00    +0.034 C 
BRANCH  27  30
ATOM     29  C   UNL     1       8.110   6.388  22.759  0.00  0.00    +0.101 C 
ATOM     30  N   UNL     1       7.959   4.997  22.308  0.00  0.00    -0.309 NA
ATOM     31  H   UNL     1       8.347   4.954  21.366  0.00  0.00    +0.122 HD
ENDBRANCH  27  30
ENDBRANCH  23  27
ENDBRANCH  22  24
BRANCH  22  32
ATOM     32  C   UNL     1       9.065  -0.468  24.479  0.00  0.00    -0.011 C 
ATOM     33  C   UNL     1       8.916  -1.729  25.358  0.00  0.00    +0.013 C 
ATOM     34  C   UNL     1      10.406   0.204  24.846  0.00  0.00    +0.013 C 
ATOM     35  C   UNL     1       9.174  -0.913  23.001  0.00  0.00    +0.013 C 
ENDBRANCH  22  32
ENDBRANCH   1  22
BRANCH   5  36
ATOM     36  O   UNL     1       2.718   2.351  25.579  0.00  0.00    -0.487 OA
BRANCH  36  37
ATOM     37  C   UNL     1       2.719   3.439  24.747  0.00  0.00    +0.121 A 
ATOM     38  C   UNL     1       3.013   4.659  25.364  0.00  0.00    +0.045 A 
ATOM     39  C   UNL     1       2.997   5.850  24.630  0.00  0.00    +0.004 A 
ATOM     40  C   UNL     1       2.663   5.832  23.278  0.00  0.00    +0.000 A 
ATOM     41  C   UNL     1       2.374   4.622  22.657  0.00  0.00    +0.004 A 
ATOM     42  C   UNL     1       2.426   3.431  23.384  0.00  0.00    +0.045 A 
ENDBRANCH  36  37
ENDBRANCH   5  36
TORSDOF 9
ENDMDL
MODEL 8
REMARK VINA RESULT:      -5.9      2.377      4.651
REMARK  Name = 
REMARK  14 active torsions:
REMARK  status: ('A' for Active; 'I' for Inactive)
REMARK    1  A    between atoms: C_1  and  N_2
REMARK    2  A    between atoms: N_2  and  C_3
REMARK    3  A    between atoms: C_3  and  C_5
REMARK    4  A    between atoms: C_3  and  C_6
REMARK    5  A    between atoms: N_8  and  C_9
REMARK    6  A    between atoms: C_9  and  C_11
REMARK    7  A    between atoms: C_9  and  C_41
REMARK    8  A    between atoms: C_15  and  O_34
REMARK    9  A    between atoms: C_18  and  C_20
REMARK   10  A    between atoms: N_22  and  C_23
REMARK   11  A    between atoms: O_34  and  C_35
REMARK   12  A    between atoms: C_41  and  C_42
REMARK   13  A    between atoms: C_41  and  C_43
REMARK   14  A    between atoms: C_41  and  C_44
REMARK                            x       y       z     vdW  Elec       q    Type
REMARK                         _______ _______ _______ _____ _____    ______ ____
ROOT
ATOM      1  C   UNL     1       7.023  -1.278  25.837  0.00  0.00    +0.237 C 
ATOM      2  N   UNL     1       5.982  -0.417  26.095  0.00  0.00    -0.285 N 
ATOM      3  C   UNL     1       5.099  -0.592  27.246  0.00  0.00    +0.166 C 
ATOM      4  C   UNL     1       4.417   0.772  27.430  0.00  0.00    +0.078 C 
ATOM      5  C   UNL     1       5.002   1.684  26.326  0.00  0.00    +0.193 C 
ATOM      6  C   UNL     1       5.531   0.689  25.286  0.00  0.00    +0.153 C 
ATOM      7  O   UNL     1       7.543  -1.888  26.776  0.00  0.00    -0.274 OA
ENDROOT
BRANCH   3   8
ATOM      8  C   UNL     1       4.040  -1.669  26.873  0.00  0.00    +0.234 C 
ATOM      9  N   UNL     1       4.402  -2.978  27.119  0.00  0.00    -0.307 N 
ATOM     10  H   UNL     1       5.390  -3.203  27.143  0.00  0.00    +0.149 HD
ATOM     11  O   UNL     1       2.921  -1.374  26.452  0.00  0.00    -0.274 OA
BRANCH   9  12
ATOM     12  C   UNL     1       3.475  -4.081  26.854  0.00  0.00    +0.103 C 
ATOM     13  C   UNL     1       3.885  -4.793  25.575  0.00  0.00    -0.024 A 
ATOM     14  C   UNL     1       4.617  -5.998  25.604  0.00  0.00    -0.042 A 
ATOM     15  C   UNL     1       5.041  -6.579  24.398  0.00  0.00    +0.004 A 
ATOM     16  C   UNL     1       4.743  -5.980  23.176  0.00  0.00    +0.000 A 
ATOM     17  C   UNL     1       3.995  -4.807  23.142  0.00  0.00    +0.000 A 
ATOM     18  C   UNL     1       4.881  -6.739  26.892  0.00  0.00    +0.035 C 
ATOM     19  C   UNL     1       4.676  -5.894  28.143  0.00  0.00    +0.007 C 
ATOM     20  C   UNL     1       3.571  -4.215  24.332  0.00  0.00    +0.006 A 
ATOM     21  C   UNL     1       3.399  -5.067  28.035  0.00  0.00    +0.027 C 
ENDBRANCH   9  12
ENDBRANCH   3   8
BRANCH   1  22
ATOM     22  C   UNL     1       7.498  -1.453  24.354  0.00  0.00    +0.164 C 
BRANCH  22  24
ATOM     23  C   UNL     1       8.342   0.366  22.842  0.00  0.00    +0.230 C 
ATOM     24  N   UNL     1       8.505  -0.449  23.945  0.00  0.00    -0.302 N 
ATOM     25  H   UNL     1       9.463  -0.569  24.270  0.00  0.00    +0.150 HD
ATOM     26  O   UNL     1       7.269   0.448  22.245  0.00  0.00    -0.274 OA
BRANCH  23  27
ATOM     27  C   UNL     1       9.564   1.243  22.410  0.00  0.00    +0.137 C 
ATOM     28  C   UNL     1      10.563   1.356  23.571  0.00  0.00    +0.034 C 
BRANCH  27  30
ATOM     29  C   UNL     1       8.621   3.427  22.962  0.00  0.00    +0.101 C 
ATOM     30  N   UNL     1       9.146   2.573  21.887  0.00  0.00    -0.309 NA
ATOM     31  H   UNL     1       9.980   3.037  21.529  0.00  0.00    +0.122 HD
ENDBRANCH  27  30
ENDBRANCH  23  27
ENDBRANCH  22  24
BRANCH  22  32
ATOM     32  C   UNL     1       8.007  -2.924  24.093  0.00  0.00    -0.011 C 
ATOM     33  C   UNL     1       9.546  -3.051  24.151  0.00  0.00    +0.013 C 
ATOM     34  C   UNL     1       7.550  -3.402  22.698  0.00  0.00    +0.013 C 
ATOM     35  C   UNL     1       7.398  -3.903  25.125  0.00  0.00    +0.013 C 
ENDBRANCH  22  32
ENDBRANCH   1  22
BRANCH   5  36
ATOM     36  O   UNL     1       3.978   2.554  25.852  0.00  0.00    -0.487 OA
BRANCH  36  37
ATOM     37  C   UNL     1       4.291   3.428  24.844  0.00  0.00    +0.121 A 
ATOM     38  C   UNL     1       5.265   4.379  25.162  0.00  0.00    +0.045 A 
ATOM     39  C   UNL     1       5.636   5.357  24.233  0.00  0.00    +0.004 A 
ATOM     40  C   UNL     1       5.017   5.405  22.987  0.00  0.00    +0.000 A 
ATOM     41  C   UNL     1       4.050   4.461  22.661  0.00  0.00    +0.004 A 
ATOM     42  C   UNL     1       3.708   3.464  23.578  0.00  0.00    +0.045 A 
ENDBRANCH  36  37
ENDBRANCH   5  36
TORSDOF 9
ENDMDL
MODEL 9
REMARK VINA RESULT:      -5.7      2.120      4.320
REMARK  Name = 
REMARK  14 active torsions:
REMARK  status: ('A' for Active; 'I' for Inactive)
REMARK    1  A    between atoms: C_1  and  N_2
REMARK    2  A    between atoms: N_2  and  C_3
REMARK    3  A    between atoms: C_3  and  C_5
REMARK    4  A    between atoms: C_3  and  C_6
REMARK    5  A    between atoms: N_8  and  C_9
REMARK    6  A    between atoms: C_9  and  C_11
REMARK    7  A    between atoms: C_9  and  C_41
REMARK    8  A    between atoms: C_15  and  O_34
REMARK    9  A    between atoms: C_18  and  C_20
REMARK   10  A    between atoms: N_22  and  C_23
REMARK   11  A    between atoms: O_34  and  C_35
REMARK   12  A    between atoms: C_41  and  C_42
REMARK   13  A    between atoms: C_41  and  C_43
REMARK   14  A    between atoms: C_41  and  C_44
REMARK                            x       y       z     vdW  Elec       q    Type
REMARK                         _______ _______ _______ _____ _____    ______ ____
ROOT
ATOM      1  C   UNL     1       8.732  -0.449  24.947  0.00  0.00    +0.237 C 
ATOM      2  N   UNL     1       7.525  -0.703  25.555  0.00  0.00    -0.285 N 
ATOM      3  C   UNL     1       7.437  -1.315  26.878  0.00  0.00    +0.166 C 
ATOM      4  C   UNL     1       6.017  -0.997  27.367  0.00  0.00    +0.078 C 
ATOM      5  C   UNL     1       5.363  -0.165  26.238  0.00  0.00    +0.193 C 
ATOM      6  C   UNL     1       6.204  -0.517  25.005  0.00  0.00    +0.153 C 
ATOM      7  O   UNL     1       9.730  -0.261  25.650  0.00  0.00    -0.274 OA
ENDROOT
BRANCH   3   8
ATOM      8  C   UNL     1       7.606  -2.852  26.702  0.00  0.00    +0.234 C 
ATOM      9  N   UNL     1       6.447  -3.597  26.784  0.00  0.00    -0.307 N 
ATOM     10  H   UNL     1       5.670  -3.214  27.310  0.00  0.00    +0.149 HD
ATOM     11  O   UNL     1       8.691  -3.369  26.435  0.00  0.00    -0.274 OA
BRANCH   9  12
ATOM     12  C   UNL     1       6.467  -5.049  26.591  0.00  0.00    +0.103 C 
ATOM     13  C   UNL     1       5.535  -5.709  27.594  0.00  0.00    -0.024 A 
ATOM     14  C   UNL     1       4.236  -6.122  27.234  0.00  0.00    -0.042 A 
ATOM     15  C   UNL     1       3.383  -6.655  28.213  0.00  0.00    +0.004 A 
ATOM     16  C   UNL     1       3.808  -6.784  29.534  0.00  0.00    +0.000 A 
ATOM     17  C   UNL     1       5.100  -6.405  29.887  0.00  0.00    +0.000 A 
ATOM     18  C   UNL     1       3.761  -6.097  25.802  0.00  0.00    +0.035 C 
ATOM     19  C   UNL     1       4.608  -5.223  24.886  0.00  0.00    +0.007 C 
ATOM     20  C   UNL     1       5.958  -5.869  28.926  0.00  0.00    +0.006 A 
ATOM     21  C   UNL     1       6.094  -5.444  25.149  0.00  0.00    +0.027 C 
ENDBRANCH   9  12
ENDBRANCH   3   8
BRANCH   1  22
ATOM     22  C   UNL     1       8.788  -0.419  23.381  0.00  0.00    +0.164 C 
BRANCH  22  24
ATOM     23  C   UNL     1       8.033  -2.689  22.617  0.00  0.00    +0.230 C 
ATOM     24  N   UNL     1       7.811  -1.332  22.748  0.00  0.00    -0.302 N 
ATOM     25  H   UNL     1       7.120  -0.933  22.115  0.00  0.00    +0.150 HD
ATOM     26  O   UNL     1       8.963  -3.255  23.190  0.00  0.00    -0.274 OA
BRANCH  23  27
ATOM     27  C   UNL     1       7.011  -3.505  21.757  0.00  0.00    +0.137 C 
ATOM     28  C   UNL     1       5.577  -3.083  22.110  0.00  0.00    +0.034 C 
BRANCH  27  30
ATOM     29  C   UNL     1       6.167  -5.722  21.175  0.00  0.00    +0.101 C 
ATOM     30  N   UNL     1       7.219  -4.974  21.879  0.00  0.00    -0.309 NA
ATOM     31  H   UNL     1       8.097  -5.198  21.411  0.00  0.00    +0.122 HD
ENDBRANCH  27  30
ENDBRANCH  23  27
ENDBRANCH  22  24
BRANCH  22  32
ATOM     32  C   UNL     1       8.639   1.056  22.839  0.00  0.00    -0.011 C 
ATOM     33  C   UNL     1       7.289   1.307  22.131  0.00  0.00    +0.013 C 
ATOM     34  C   UNL     1       9.763   1.362  21.825  0.00  0.00    +0.013 C 
ATOM     35  C   UNL     1       8.782   2.078  23.992  0.00  0.00    +0.013 C 
ENDBRANCH  22  32
ENDBRANCH   1  22
BRANCH   5  36
ATOM     36  O   UNL     1       3.985  -0.516  26.141  0.00  0.00    -0.487 OA
BRANCH  36  37
ATOM     37  C   UNL     1       3.141  -0.090  27.132  0.00  0.00    +0.121 A 
ATOM     38  C   UNL     1       3.144   1.289  27.365  0.00  0.00    +0.045 A 
ATOM     39  C   UNL     1       2.361   1.841  28.384  0.00  0.00    +0.004 A 
ATOM     40  C   UNL     1       1.587   1.015  29.195  0.00  0.00    +0.000 A 
ATOM     41  C   UNL     1       1.575  -0.357  28.967  0.00  0.00    +0.004 A 
ATOM     42  C   UNL     1       2.330  -0.901  27.926  0.00  0.00    +0.045 A 
ENDBRANCH  36  37
ENDBRANCH   5  36
TORSDOF 9
ENDMDL
