MODEL 1
REMARK VINA RESULT:      -6.7      0.000      0.000
REMARK  Name = 
REMARK  11 active torsions:
REMARK  status: ('A' for Active; 'I' for Inactive)
REMARK    1  A    between atoms: C_2  and  C_3
REMARK    2  A    between atoms: C_2  and  C_10
REMARK    3  A    between atoms: C_2  and  C_13
REMARK    4  A    between atoms: C_3  and  C_4
REMARK    5  A    between atoms: C_4  and  C_5
REMARK    6  A    between atoms: C_5  and  C_6
REMARK    7  A    between atoms: C_6  and  C_7
REMARK    8  A    between atoms: C_10  and  O_11
REMARK    9  A    between atoms: C_18  and  O_20
REMARK   10  A    between atoms: C_23  and  C_25
REMARK   11  A    between atoms: C_28  and  O_29
REMARK                            x       y       z     vdW  Elec       q    Type
REMARK                         _______ _______ _______ _____ _____    ______ ____
ROOT
ATOM      1  C   UNL     1       3.885  -3.931  24.508  0.00  0.00    +0.062 C 
ATOM      2  C   UNL     1       3.441  -5.315  23.943  0.00  0.00    +0.127 C 
ATOM      3  C   UNL     1       4.639  -5.950  23.225  0.00  0.00    +0.067 C 
ATOM      4  C   UNL     1       5.562  -4.788  23.037  0.00  0.00    -0.041 A 
ATOM      5  C   UNL     1       6.675  -4.774  22.215  0.00  0.00    +0.004 A 
ATOM      6  C   UNL     1       7.397  -3.588  22.092  0.00  0.00    +0.009 A 
ATOM      7  C   UNL     1       7.046  -2.408  22.793  0.00  0.00    -0.018 A 
ATOM      8  C   UNL     1       5.919  -2.477  23.656  0.00  0.00    +0.012 A 
ATOM      9  C   UNL     1       5.185  -3.667  23.774  0.00  0.00    -0.037 A 
ENDROOT
BRANCH   7  10
ATOM     10  C   UNL     1       7.824  -1.155  22.548  0.00  0.00    -0.018 A 
ATOM     11  C   UNL     1       9.078  -1.187  21.897  0.00  0.00    +0.012 A 
ATOM     12  C   UNL     1       9.777  -0.017  21.571  0.00  0.00    +0.046 A 
ATOM     13  C   UNL     1       9.245   1.215  21.907  0.00  0.00    +0.117 A 
ATOM     14  C   UNL     1       8.028   1.294  22.570  0.00  0.00    +0.046 A 
ATOM     15  C   UNL     1       7.325   0.118  22.883  0.00  0.00    +0.012 A 
BRANCH  13  16
ATOM     16  O   UNL     1       9.946   2.329  21.555  0.00  0.00    -0.507 OA
ATOM     17  H   UNL     1       9.333   3.079  21.487  0.00  0.00    +0.292 HD
ENDBRANCH  13  16
ENDBRANCH   7  10
BRANCH   2  18
ATOM     18  O   UNL     1       2.353  -5.125  23.031  0.00  0.00    -0.391 OA
ATOM     19  H   UNL     1       2.729  -4.859  22.174  0.00  0.00    +0.210 HD
ENDBRANCH   2  18
BRANCH   1  20
ATOM     20  C   UNL     1       3.885  -3.886  26.051  0.00  0.00    +0.107 C 
BRANCH  20  21
ATOM     21  C   UNL     1       3.169  -2.658  26.595  0.00  0.00    +0.308 C 
ATOM     22  O   UNL     1       2.402  -1.961  25.946  0.00  0.00    -0.251 OA
BRANCH  21  23
ATOM     23  O   UNL     1       3.460  -2.384  27.883  0.00  0.00    -0.480 OA
ATOM     24  H   UNL     1       2.738  -2.561  28.515  0.00  0.00    +0.295 HD
ENDBRANCH  21  23
ENDBRANCH  20  21
BRANCH  20  25
ATOM     25  C   UNL     1       5.353  -3.911  26.570  0.00  0.00    +0.015 C 
BRANCH  25  26
ATOM     26  C   UNL     1       5.894  -5.290  26.963  0.00  0.00    +0.001 C 
BRANCH  26  27
ATOM     27  C   UNL     1       7.266  -5.561  26.360  0.00  0.00    +0.012 C 
BRANCH  27  28
ATOM     28  C   UNL     1       8.028  -4.278  26.056  0.00  0.00    +0.127 C 
BRANCH  28  29
ATOM     29  C   UNL     1       9.285  -4.644  25.299  0.00  0.00    +0.276 C 
ATOM     30  N   UNL     1       9.860  -3.804  24.503  0.00  0.00    -0.104 NA
ATOM     31  H   UNL     1       9.336  -2.924  24.470  0.00  0.00    +0.363 HD
ATOM     32  N   UNL     1       9.853  -5.861  25.493  0.00  0.00    -0.251 N 
ATOM     33  H   UNL     1      10.556  -6.074  24.793  0.00  0.00    +0.288 HD
ATOM     34  H   UNL     1       9.241  -6.635  25.715  0.00  0.00    +0.288 HD
ENDBRANCH  28  29
ENDBRANCH  27  28
ENDBRANCH  26  27
ENDBRANCH  25  26
ENDBRANCH  20  25
ENDBRANCH   1  20
TORSDOF 11
ENDMDL
MODEL 2
REMARK VINA RESULT:      -6.7      3.015      4.607
REMARK  Name = 
REMARK  11 active torsions:
REMARK  status: ('A' for Active; 'I' for Inactive)
REMARK    1  A    between atoms: C_2  and  C_3
REMARK    2  A    between atoms: C_2  and  C_10
REMARK    3  A    between atoms: C_2  and  C_13
REMARK    4  A    between atoms: C_3  and  C_4
REMARK    5  A    between atoms: C_4  and  C_5
REMARK    6  A    between atoms: C_5  and  C_6
REMARK    7  A    between atoms: C_6  and  C_7
REMARK    8  A    between atoms: C_10  and  O_11
REMARK    9  A    between atoms: C_18  and  O_20
REMARK   10  A    between atoms: C_23  and  C_25
REMARK   11  A    between atoms: C_28  and  O_29
REMARK                            x       y       z     vdW  Elec       q    Type
REMARK                         _______ _______ _______ _____ _____    ______ ____
ROOT
ATOM      1  C   UNL     1       8.234  -4.368  24.059  0.00  0.00    +0.062 C 
ATOM      2  C   UNL     1       8.869  -5.161  25.242  0.00  0.00    +0.127 C 
ATOM      3  C   UNL     1       8.790  -4.290  26.503  0.00  0.00    +0.067 C 
ATOM      4  C   UNL     1       8.517  -2.929  25.946  0.00  0.00    -0.041 A 
ATOM      5  C   UNL     1       8.608  -1.741  26.650  0.00  0.00    +0.004 A 
ATOM      6  C   UNL     1       8.391  -0.545  25.969  0.00  0.00    +0.009 A 
ATOM      7  C   UNL     1       8.059  -0.503  24.593  0.00  0.00    -0.018 A 
ATOM      8  C   UNL     1       7.937  -1.747  23.916  0.00  0.00    +0.012 A 
ATOM      9  C   UNL     1       8.165  -2.952  24.597  0.00  0.00    -0.037 A 
ENDROOT
BRANCH   7  10
ATOM     10  C   UNL     1       7.916   0.822  23.916  0.00  0.00    -0.018 A 
ATOM     11  C   UNL     1       8.312   2.019  24.558  0.00  0.00    +0.012 A 
ATOM     12  C   UNL     1       8.278   3.258  23.907  0.00  0.00    +0.046 A 
ATOM     13  C   UNL     1       7.829   3.334  22.600  0.00  0.00    +0.117 A 
ATOM     14  C   UNL     1       7.407   2.189  21.938  0.00  0.00    +0.046 A 
ATOM     15  C   UNL     1       7.455   0.946  22.592  0.00  0.00    +0.012 A 
BRANCH  13  16
ATOM     16  O   UNL     1       7.831   4.555  21.995  0.00  0.00    -0.507 OA
ATOM     17  H   UNL     1       7.645   5.236  22.660  0.00  0.00    +0.292 HD
ENDBRANCH  13  16
ENDBRANCH   7  10
BRANCH   2  18
ATOM     18  O   UNL     1      10.234  -5.465  24.928  0.00  0.00    -0.391 OA
ATOM     19  H   UNL     1      10.798  -4.899  25.484  0.00  0.00    +0.210 HD
ENDBRANCH   2  18
BRANCH   1  20
ATOM     20  C   UNL     1       6.941  -5.020  23.527  0.00  0.00    +0.107 C 
BRANCH  20  21
ATOM     21  C   UNL     1       6.744  -4.787  22.035  0.00  0.00    +0.308 C 
ATOM     22  O   UNL     1       6.188  -3.809  21.555  0.00  0.00    -0.251 OA
BRANCH  21  23
ATOM     23  O   UNL     1       7.236  -5.774  21.260  0.00  0.00    -0.480 OA
ATOM     24  H   UNL     1       7.768  -5.474  20.500  0.00  0.00    +0.295 HD
ENDBRANCH  21  23
ENDBRANCH  20  21
BRANCH  20  25
ATOM     25  C   UNL     1       5.718  -4.461  24.311  0.00  0.00    +0.015 C 
BRANCH  25  26
ATOM     26  C   UNL     1       4.781  -5.512  24.916  0.00  0.00    +0.001 C 
BRANCH  26  27
ATOM     27  C   UNL     1       5.405  -6.217  26.113  0.00  0.00    +0.012 C 
BRANCH  27  28
ATOM     28  C   UNL     1       5.449  -5.327  27.349  0.00  0.00    +0.127 C 
BRANCH  28  29
ATOM     29  C   UNL     1       5.773  -6.196  28.544  0.00  0.00    +0.276 C 
ATOM     30  N   UNL     1       6.269  -5.694  29.626  0.00  0.00    -0.104 NA
ATOM     31  H   UNL     1       6.407  -4.684  29.523  0.00  0.00    +0.363 HD
ATOM     32  N   UNL     1       5.493  -7.523  28.502  0.00  0.00    -0.251 N 
ATOM     33  H   UNL     1       5.935  -8.034  29.259  0.00  0.00    +0.288 HD
ATOM     34  H   UNL     1       5.544  -7.987  27.605  0.00  0.00    +0.288 HD
ENDBRANCH  28  29
ENDBRANCH  27  28
ENDBRANCH  26  27
ENDBRANCH  25  26
ENDBRANCH  20  25
ENDBRANCH   1  20
TORSDOF 11
ENDMDL
MODEL 3
REMARK VINA RESULT:      -6.5      4.468      8.511
REMARK  Name = 
REMARK  11 active torsions:
REMARK  status: ('A' for Active; 'I' for Inactive)
REMARK    1  A    between atoms: C_2  and  C_3
REMARK    2  A    between atoms: C_2  and  C_10
REMARK    3  A    between atoms: C_2  and  C_13
REMARK    4  A    between atoms: C_3  and  C_4
REMARK    5  A    between atoms: C_4  and  C_5
REMARK    6  A    between atoms: C_5  and  C_6
REMARK    7  A    between atoms: C_6  and  C_7
REMARK    8  A    between atoms: C_10  and  O_11
REMARK    9  A    between atoms: C_18  and  O_20
REMARK   10  A    between atoms: C_23  and  C_25
REMARK   11  A    between atoms: C_28  and  O_29
REMARK                            x       y       z     vdW  Elec       q    Type
REMARK                         _______ _______ _______ _____ _____    ______ ____
ROOT
ATOM      1  C   UNL     1       9.473   2.350  24.213  0.00  0.00    +0.062 C 
ATOM      2  C   UNL     1      10.255   2.906  22.983  0.00  0.00    +0.127 C 
ATOM      3  C   UNL     1      10.194   1.861  21.860  0.00  0.00    +0.067 C 
ATOM      4  C   UNL     1       9.769   0.624  22.586  0.00  0.00    -0.041 A 
ATOM      5  C   UNL     1       9.812  -0.661  22.073  0.00  0.00    +0.004 A 
ATOM      6  C   UNL     1       9.447  -1.721  22.902  0.00  0.00    +0.009 A 
ATOM      7  C   UNL     1       9.016  -1.528  24.238  0.00  0.00    -0.018 A 
ATOM      8  C   UNL     1       8.950  -0.190  24.712  0.00  0.00    +0.012 A 
ATOM      9  C   UNL     1       9.326   0.878  23.883  0.00  0.00    -0.037 A 
ENDROOT
BRANCH   7  10
ATOM     10  C   UNL     1       8.716  -2.721  25.086  0.00  0.00    -0.018 A 
ATOM     11  C   UNL     1       7.679  -2.696  26.048  0.00  0.00    +0.012 A 
ATOM     12  C   UNL     1       7.318  -3.831  26.784  0.00  0.00    +0.046 A 
ATOM     13  C   UNL     1       8.000  -5.020  26.588  0.00  0.00    +0.117 A 
ATOM     14  C   UNL     1       9.041  -5.086  25.673  0.00  0.00    +0.046 A 
ATOM     15  C   UNL     1       9.391  -3.947  24.928  0.00  0.00    +0.012 A 
BRANCH  13  16
ATOM     16  O   UNL     1       7.605  -6.107  27.309  0.00  0.00    -0.507 OA
ATOM     17  H   UNL     1       7.847  -5.973  28.239  0.00  0.00    +0.292 HD
ENDBRANCH  13  16
ENDBRANCH   7  10
BRANCH   2  18
ATOM     18  O   UNL     1      11.614   3.156  23.361  0.00  0.00    -0.391 OA
ATOM     19  H   UNL     1      12.041   2.296  23.515  0.00  0.00    +0.210 HD
ENDBRANCH   2  18
BRANCH   1  20
ATOM     20  C   UNL     1       8.204   3.167  24.534  0.00  0.00    +0.107 C 
BRANCH  20  21
ATOM     21  C   UNL     1       6.998   2.705  23.728  0.00  0.00    +0.308 C 
ATOM     22  O   UNL     1       6.144   1.932  24.140  0.00  0.00    -0.251 OA
BRANCH  21  23
ATOM     23  O   UNL     1       6.946   3.222  22.483  0.00  0.00    -0.480 OA
ATOM     24  H   UNL     1       6.245   3.885  22.341  0.00  0.00    +0.295 HD
ENDBRANCH  21  23
ENDBRANCH  20  21
BRANCH  20  25
ATOM     25  C   UNL     1       8.474   4.675  24.259  0.00  0.00    +0.015 C 
BRANCH  25  26
ATOM     26  C   UNL     1       8.591   5.565  25.501  0.00  0.00    +0.001 C 
BRANCH  26  27
ATOM     27  C   UNL     1       9.829   6.453  25.455  0.00  0.00    +0.012 C 
BRANCH  27  28
ATOM     28  C   UNL     1      10.609   6.290  24.157  0.00  0.00    +0.127 C 
BRANCH  28  29
ATOM     29  C   UNL     1      12.084   6.370  24.482  0.00  0.00    +0.276 C 
ATOM     30  N   UNL     1      12.969   5.788  23.741  0.00  0.00    -0.104 NA
ATOM     31  H   UNL     1      12.518   5.288  22.968  0.00  0.00    +0.363 HD
ATOM     32  N   UNL     1      12.498   7.108  25.543  0.00  0.00    -0.251 N 
ATOM     33  H   UNL     1      13.466   6.924  25.786  0.00  0.00    +0.288 HD
ATOM     34  H   UNL     1      11.877   7.177  26.338  0.00  0.00    +0.288 HD
ENDBRANCH  28  29
ENDBRANCH  27  28
ENDBRANCH  26  27
ENDBRANCH  25  26
ENDBRANCH  20  25
ENDBRANCH   1  20
TORSDOF 11
ENDMDL
MODEL 4
REMARK VINA RESULT:      -6.5      3.186      4.815
REMARK  Name = 
REMARK  11 active torsions:
REMARK  status: ('A' for Active; 'I' for Inactive)
REMARK    1  A    between atoms: C_2  and  C_3
REMARK    2  A    between atoms: C_2  and  C_10
REMARK    3  A    between atoms: C_2  and  C_13
REMARK    4  A    between atoms: C_3  and  C_4
REMARK    5  A    between atoms: C_4  and  C_5
REMARK    6  A    between atoms: C_5  and  C_6
REMARK    7  A    between atoms: C_6  and  C_7
REMARK    8  A    between atoms: C_10  and  O_11
REMARK    9  A    between atoms: C_18  and  O_20
REMARK   10  A    between atoms: C_23  and  C_25
REMARK   11  A    between atoms: C_28  and  O_29
REMARK                            x       y       z     vdW  Elec       q    Type
REMARK                         _______ _______ _______ _____ _____    ______ ____
ROOT
ATOM      1  C   UNL     1       7.934  -4.585  24.203  0.00  0.00    +0.062 C 
ATOM      2  C   UNL     1       8.679  -5.272  25.389  0.00  0.00    +0.127 C 
ATOM      3  C   UNL     1       8.756  -4.275  26.552  0.00  0.00    +0.067 C 
ATOM      4  C   UNL     1       8.451  -2.970  25.887  0.00  0.00    -0.041 A 
ATOM      5  C   UNL     1       8.642  -1.720  26.449  0.00  0.00    +0.004 A 
ATOM      6  C   UNL     1       8.375  -0.594  25.673  0.00  0.00    +0.009 A 
ATOM      7  C   UNL     1       7.895  -0.682  24.343  0.00  0.00    -0.018 A 
ATOM      8  C   UNL     1       7.675  -1.985  23.818  0.00  0.00    +0.012 A 
ATOM      9  C   UNL     1       7.953  -3.121  24.594  0.00  0.00    -0.037 A 
ENDROOT
BRANCH   7  10
ATOM     10  C   UNL     1       7.706   0.570  23.550  0.00  0.00    -0.018 A 
ATOM     11  C   UNL     1       6.601   1.422  23.778  0.00  0.00    +0.012 A 
ATOM     12  C   UNL     1       6.457   2.648  23.116  0.00  0.00    +0.046 A 
ATOM     13  C   UNL     1       7.409   3.044  22.192  0.00  0.00    +0.117 A 
ATOM     14  C   UNL     1       8.498   2.228  21.917  0.00  0.00    +0.046 A 
ATOM     15  C   UNL     1       8.644   1.005  22.594  0.00  0.00    +0.012 A 
BRANCH  13  16
ATOM     16  O   UNL     1       7.243   4.252  21.584  0.00  0.00    -0.507 OA
ATOM     17  H   UNL     1       8.051   4.470  21.092  0.00  0.00    +0.292 HD
ENDBRANCH  13  16
ENDBRANCH   7  10
BRANCH   2  18
ATOM     18  O   UNL     1       9.995  -5.649  24.965  0.00  0.00    -0.391 OA
ATOM     19  H   UNL     1      10.359  -4.913  24.443  0.00  0.00    +0.210 HD
ENDBRANCH   2  18
BRANCH   1  20
ATOM     20  C   UNL     1       6.577  -5.248  23.884  0.00  0.00    +0.107 C 
BRANCH  20  21
ATOM     21  C   UNL     1       6.363  -5.439  22.389  0.00  0.00    +0.308 C 
ATOM     22  O   UNL     1       6.442  -4.545  21.559  0.00  0.00    -0.251 OA
BRANCH  21  23
ATOM     23  O   UNL     1       6.059  -6.706  22.040  0.00  0.00    -0.480 OA
ATOM     24  H   UNL     1       6.749  -7.168  21.527  0.00  0.00    +0.295 HD
ENDBRANCH  21  23
ENDBRANCH  20  21
BRANCH  20  25
ATOM     25  C   UNL     1       5.426  -4.382  24.474  0.00  0.00    +0.015 C 
BRANCH  25  26
ATOM     26  C   UNL     1       4.970  -4.758  25.887  0.00  0.00    +0.001 C 
BRANCH  26  27
ATOM     27  C   UNL     1       4.913  -6.267  26.089  0.00  0.00    +0.012 C 
BRANCH  27  28
ATOM     28  C   UNL     1       3.487  -6.774  26.260  0.00  0.00    +0.127 C 
BRANCH  28  29
ATOM     29  C   UNL     1       3.193  -7.742  25.136  0.00  0.00    +0.276 C 
ATOM     30  N   UNL     1       3.772  -7.633  23.986  0.00  0.00    -0.104 NA
ATOM     31  H   UNL     1       4.401  -6.824  23.975  0.00  0.00    +0.363 HD
ATOM     32  N   UNL     1       2.342  -8.778  25.348  0.00  0.00    -0.251 N 
ATOM     33  H   UNL     1       2.063  -9.230  24.484  0.00  0.00    +0.288 HD
ATOM     34  H   UNL     1       1.587  -8.638  26.006  0.00  0.00    +0.288 HD
ENDBRANCH  28  29
ENDBRANCH  27  28
ENDBRANCH  26  27
ENDBRANCH  25  26
ENDBRANCH  20  25
ENDBRANCH   1  20
TORSDOF 11
ENDMDL
MODEL 5
REMARK VINA RESULT:      -6.2      3.214      4.718
REMARK  Name = 
REMARK  11 active torsions:
REMARK  status: ('A' for Active; 'I' for Inactive)
REMARK    1  A    between atoms: C_2  and  C_3
REMARK    2  A    between atoms: C_2  and  C_10
REMARK    3  A    between atoms: C_2  and  C_13
REMARK    4  A    between atoms: C_3  and  C_4
REMARK    5  A    between atoms: C_4  and  C_5
REMARK    6  A    between atoms: C_5  and  C_6
REMARK    7  A    between atoms: C_6  and  C_7
REMARK    8  A    between atoms: C_10  and  O_11
REMARK    9  A    between atoms: C_18  and  O_20
REMARK   10  A    between atoms: C_23  and  C_25
REMARK   11  A    between atoms: C_28  and  O_29
REMARK                            x       y       z     vdW  Elec       q    Type
REMARK                         _______ _______ _______ _____ _____    ______ ____
ROOT
ATOM      1  C   UNL     1       7.346  -3.898  25.888  0.00  0.00    +0.062 C 
ATOM      2  C   UNL     1       5.957  -4.296  26.478  0.00  0.00    +0.127 C 
ATOM      3  C   UNL     1       4.913  -3.293  25.970  0.00  0.00    +0.067 C 
ATOM      4  C   UNL     1       5.757  -2.160  25.479  0.00  0.00    -0.041 A 
ATOM      5  C   UNL     1       5.293  -0.896  25.156  0.00  0.00    +0.004 A 
ATOM      6  C   UNL     1       6.218   0.076  24.779  0.00  0.00    +0.009 A 
ATOM      7  C   UNL     1       7.608  -0.188  24.694  0.00  0.00    -0.018 A 
ATOM      8  C   UNL     1       8.037  -1.510  24.997  0.00  0.00    +0.012 A 
ATOM      9  C   UNL     1       7.109  -2.487  25.386  0.00  0.00    -0.037 A 
ENDROOT
BRANCH   7  10
ATOM     10  C   UNL     1       8.543   0.927  24.357  0.00  0.00    -0.018 A 
ATOM     11  C   UNL     1       9.945   0.751  24.414  0.00  0.00    +0.012 A 
ATOM     12  C   UNL     1      10.838   1.751  24.010  0.00  0.00    +0.046 A 
ATOM     13  C   UNL     1      10.349   2.963  23.553  0.00  0.00    +0.117 A 
ATOM     14  C   UNL     1       8.980   3.190  23.503  0.00  0.00    +0.046 A 
ATOM     15  C   UNL     1       8.089   2.178  23.898  0.00  0.00    +0.012 A 
BRANCH  13  16
ATOM     16  O   UNL     1      11.249   3.902  23.150  0.00  0.00    -0.507 OA
ATOM     17  H   UNL     1      11.528   3.702  22.242  0.00  0.00    +0.292 HD
ENDBRANCH  13  16
ENDBRANCH   7  10
BRANCH   2  18
ATOM     18  O   UNL     1       6.027  -4.267  27.908  0.00  0.00    -0.391 OA
ATOM     19  H   UNL     1       5.816  -5.160  28.232  0.00  0.00    +0.210 HD
ENDBRANCH   2  18
BRANCH   1  20
ATOM     20  C   UNL     1       7.902  -4.949  24.904  0.00  0.00    +0.107 C 
BRANCH  20  21
ATOM     21  C   UNL     1       9.418  -5.063  24.974  0.00  0.00    +0.308 C 
ATOM     22  O   UNL     1      10.196  -4.241  24.510  0.00  0.00    -0.251 OA
BRANCH  21  23
ATOM     23  O   UNL     1       9.852  -6.178  25.597  0.00  0.00    -0.480 OA
ATOM     24  H   UNL     1      10.785  -6.155  25.880  0.00  0.00    +0.295 HD
ENDBRANCH  21  23
ENDBRANCH  20  21
BRANCH  20  25
ATOM     25  C   UNL     1       7.469  -4.582  23.454  0.00  0.00    +0.015 C 
BRANCH  25  26
ATOM     26  C   UNL     1       7.360  -5.757  22.477  0.00  0.00    +0.001 C 
BRANCH  26  27
ATOM     27  C   UNL     1       5.939  -5.945  21.962  0.00  0.00    +0.012 C 
BRANCH  27  28
ATOM     28  C   UNL     1       4.922  -5.147  22.768  0.00  0.00    +0.127 C 
BRANCH  28  29
ATOM     29  C   UNL     1       3.990  -6.123  23.451  0.00  0.00    +0.276 C 
ATOM     30  N   UNL     1       4.423  -7.242  23.932  0.00  0.00    -0.104 NA
ATOM     31  H   UNL     1       5.428  -7.342  23.760  0.00  0.00    +0.363 HD
ATOM     32  N   UNL     1       2.681  -5.801  23.609  0.00  0.00    -0.251 N 
ATOM     33  H   UNL     1       2.119  -6.599  23.885  0.00  0.00    +0.288 HD
ATOM     34  H   UNL     1       2.253  -5.216  22.904  0.00  0.00    +0.288 HD
ENDBRANCH  28  29
ENDBRANCH  27  28
ENDBRANCH  26  27
ENDBRANCH  25  26
ENDBRANCH  20  25
ENDBRANCH   1  20
TORSDOF 11
ENDMDL
MODEL 6
REMARK VINA RESULT:      -6.2      3.944      8.149
REMARK  Name = 
REMARK  11 active torsions:
REMARK  status: ('A' for Active; 'I' for Inactive)
REMARK    1  A    between atoms: C_2  and  C_3
REMARK    2  A    between atoms: C_2  and  C_10
REMARK    3  A    between atoms: C_2  and  C_13
REMARK    4  A    between atoms: C_3  and  C_4
REMARK    5  A    between atoms: C_4  and  C_5
REMARK    6  A    between atoms: C_5  and  C_6
REMARK    7  A    between atoms: C_6  and  C_7
REMARK    8  A    between atoms: C_10  and  O_11
REMARK    9  A    between atoms: C_18  and  O_20
REMARK   10  A    between atoms: C_23  and  C_25
REMARK   11  A    between atoms: C_28  and  O_29
REMARK                            x       y       z     vdW  Elec       q    Type
REMARK                         _______ _______ _______ _____ _____    ______ ____
ROOT
ATOM      1  C   UNL     1       7.866   0.529  23.677  0.00  0.00    +0.062 C 
ATOM      2  C   UNL     1       8.926   1.229  24.583  0.00  0.00    +0.127 C 
ATOM      3  C   UNL     1       9.851   0.150  25.163  0.00  0.00    +0.067 C 
ATOM      4  C   UNL     1       9.076  -1.107  24.930  0.00  0.00    -0.041 A 
ATOM      5  C   UNL     1       9.357  -2.338  25.496  0.00  0.00    +0.004 A 
ATOM      6  C   UNL     1       8.496  -3.403  25.236  0.00  0.00    +0.009 A 
ATOM      7  C   UNL     1       7.361  -3.276  24.396  0.00  0.00    -0.018 A 
ATOM      8  C   UNL     1       7.132  -2.004  23.803  0.00  0.00    +0.012 A 
ATOM      9  C   UNL     1       7.991  -0.929  24.073  0.00  0.00    -0.037 A 
ENDROOT
BRANCH   7  10
ATOM     10  C   UNL     1       6.444  -4.444  24.228  0.00  0.00    -0.018 A 
ATOM     11  C   UNL     1       6.066  -5.244  25.330  0.00  0.00    +0.012 A 
ATOM     12  C   UNL     1       5.132  -6.281  25.211  0.00  0.00    +0.046 A 
ATOM     13  C   UNL     1       4.567  -6.556  23.978  0.00  0.00    +0.117 A 
ATOM     14  C   UNL     1       4.926  -5.812  22.862  0.00  0.00    +0.046 A 
ATOM     15  C   UNL     1       5.854  -4.765  22.990  0.00  0.00    +0.012 A 
BRANCH  13  16
ATOM     16  O   UNL     1       3.648  -7.559  23.908  0.00  0.00    -0.507 OA
ATOM     17  H   UNL     1       4.108  -8.412  23.953  0.00  0.00    +0.292 HD
ENDBRANCH  13  16
ENDBRANCH   7  10
BRANCH   2  18
ATOM     18  O   UNL     1       8.256   1.933  25.636  0.00  0.00    -0.391 OA
ATOM     19  H   UNL     1       8.831   1.909  26.420  0.00  0.00    +0.210 HD
ENDBRANCH   2  18
BRANCH   1  20
ATOM     20  C   UNL     1       8.011   0.906  22.187  0.00  0.00    +0.107 C 
BRANCH  20  21
ATOM     21  C   UNL     1       9.447   0.792  21.697  0.00  0.00    +0.308 C 
ATOM     22  O   UNL     1      10.042  -0.265  21.536  0.00  0.00    -0.251 OA
BRANCH  21  23
ATOM     23  O   UNL     1      10.037   1.981  21.457  0.00  0.00    -0.480 OA
ATOM     24  H   UNL     1       9.574   2.547  20.811  0.00  0.00    +0.295 HD
ENDBRANCH  21  23
ENDBRANCH  20  21
BRANCH  20  25
ATOM     25  C   UNL     1       7.495   2.358  21.968  0.00  0.00    +0.015 C 
BRANCH  25  26
ATOM     26  C   UNL     1       6.269   2.759  22.796  0.00  0.00    +0.001 C 
BRANCH  26  27
ATOM     27  C   UNL     1       6.458   4.104  23.486  0.00  0.00    +0.012 C 
BRANCH  27  28
ATOM     28  C   UNL     1       7.882   4.628  23.352  0.00  0.00    +0.127 C 
BRANCH  28  29
ATOM     29  C   UNL     1       7.821   6.002  22.723  0.00  0.00    +0.276 C 
ATOM     30  N   UNL     1       7.451   6.165  21.496  0.00  0.00    -0.104 NA
ATOM     31  H   UNL     1       7.243   5.261  21.060  0.00  0.00    +0.363 HD
ATOM     32  N   UNL     1       8.111   7.095  23.473  0.00  0.00    -0.251 N 
ATOM     33  H   UNL     1       8.240   7.927  22.908  0.00  0.00    +0.288 HD
ATOM     34  H   UNL     1       8.791   6.989  24.215  0.00  0.00    +0.288 HD
ENDBRANCH  28  29
ENDBRANCH  27  28
ENDBRANCH  26  27
ENDBRANCH  25  26
ENDBRANCH  20  25
ENDBRANCH   1  20
TORSDOF 11
ENDMDL
MODEL 7
REMARK VINA RESULT:      -6.1      4.236      7.955
REMARK  Name = 
REMARK  11 active torsions:
REMARK  status: ('A' for Active; 'I' for Inactive)
REMARK    1  A    between atoms: C_2  and  C_3
REMARK    2  A    between atoms: C_2  and  C_10
REMARK    3  A    between atoms: C_2  and  C_13
REMARK    4  A    between atoms: C_3  and  C_4
REMARK    5  A    between atoms: C_4  and  C_5
REMARK    6  A    between atoms: C_5  and  C_6
REMARK    7  A    between atoms: C_6  and  C_7
REMARK    8  A    between atoms: C_10  and  O_11
REMARK    9  A    between atoms: C_18  and  O_20
REMARK   10  A    between atoms: C_23  and  C_25
REMARK   11  A    between atoms: C_28  and  O_29
REMARK                            x       y       z     vdW  Elec       q    Type
REMARK                         _______ _______ _______ _____ _____    ______ ____
ROOT
ATOM      1  C   UNL     1       6.686   1.971  22.849  0.00  0.00    +0.062 C 
ATOM      2  C   UNL     1       5.434   2.831  23.210  0.00  0.00    +0.127 C 
ATOM      3  C   UNL     1       5.008   2.482  24.642  0.00  0.00    +0.067 C 
ATOM      4  C   UNL     1       5.725   1.194  24.895  0.00  0.00    -0.041 A 
ATOM      5  C   UNL     1       5.477   0.332  25.948  0.00  0.00    +0.004 A 
ATOM      6  C   UNL     1       6.183  -0.868  26.007  0.00  0.00    +0.009 A 
ATOM      7  C   UNL     1       7.157  -1.226  25.042  0.00  0.00    -0.018 A 
ATOM      8  C   UNL     1       7.408  -0.294  23.998  0.00  0.00    +0.012 A 
ATOM      9  C   UNL     1       6.692   0.910  23.931  0.00  0.00    -0.037 A 
ENDROOT
BRANCH   7  10
ATOM     10  C   UNL     1       7.816  -2.564  25.131  0.00  0.00    -0.018 A 
ATOM     11  C   UNL     1       8.432  -3.000  26.327  0.00  0.00    +0.012 A 
ATOM     12  C   UNL     1       8.968  -4.287  26.462  0.00  0.00    +0.046 A 
ATOM     13  C   UNL     1       8.917  -5.166  25.394  0.00  0.00    +0.117 A 
ATOM     14  C   UNL     1       8.344  -4.774  24.192  0.00  0.00    +0.046 A 
ATOM     15  C   UNL     1       7.796  -3.485  24.066  0.00  0.00    +0.012 A 
BRANCH  13  16
ATOM     16  O   UNL     1       9.431  -6.415  25.571  0.00  0.00    -0.507 OA
ATOM     17  H   UNL     1      10.371  -6.407  25.329  0.00  0.00    +0.292 HD
ENDBRANCH  13  16
ENDBRANCH   7  10
BRANCH   2  18
ATOM     18  O   UNL     1       4.379   2.537  22.287  0.00  0.00    -0.391 OA
ATOM     19  H   UNL     1       4.685   1.819  21.706  0.00  0.00    +0.210 HD
ENDBRANCH   2  18
BRANCH   1  20
ATOM     20  C   UNL     1       7.956   2.823  22.641  0.00  0.00    +0.107 C 
BRANCH  20  21
ATOM     21  C   UNL     1       9.067   2.046  21.948  0.00  0.00    +0.308 C 
ATOM     22  O   UNL     1      10.233   2.028  22.317  0.00  0.00    -0.251 OA
BRANCH  21  23
ATOM     23  O   UNL     1       8.658   1.366  20.858  0.00  0.00    -0.480 OA
ATOM     24  H   UNL     1       7.690   1.324  20.738  0.00  0.00    +0.295 HD
ENDBRANCH  21  23
ENDBRANCH  20  21
BRANCH  20  25
ATOM     25  C   UNL     1       8.461   3.345  24.018  0.00  0.00    +0.015 C 
BRANCH  25  26
ATOM     26  C   UNL     1       8.328   4.855  24.243  0.00  0.00    +0.001 C 
BRANCH  26  27
ATOM     27  C   UNL     1       9.590   5.459  24.846  0.00  0.00    +0.012 C 
BRANCH  27  28
ATOM     28  C   UNL     1      10.405   6.238  23.821  0.00  0.00    +0.127 C 
BRANCH  28  29
ATOM     29  C   UNL     1      11.754   5.569  23.685  0.00  0.00    +0.276 C 
ATOM     30  N   UNL     1      12.808   6.057  24.252  0.00  0.00    -0.104 NA
ATOM     31  H   UNL     1      12.578   6.921  24.753  0.00  0.00    +0.363 HD
ATOM     32  N   UNL     1      11.858   4.404  22.995  0.00  0.00    -0.251 N 
ATOM     33  H   UNL     1      12.822   4.161  22.794  0.00  0.00    +0.288 HD
ATOM     34  H   UNL     1      11.223   4.259  22.221  0.00  0.00    +0.288 HD
ENDBRANCH  28  29
ENDBRANCH  27  28
ENDBRANCH  26  27
ENDBRANCH  25  26
ENDBRANCH  20  25
ENDBRANCH   1  20
TORSDOF 11
ENDMDL
MODEL 8
REMARK VINA RESULT:      -6.0      2.267      6.560
REMARK  Name = 
REMARK  11 active torsions:
REMARK  status: ('A' for Active; 'I' for Inactive)
REMARK    1  A    between atoms: C_2  and  C_3
REMARK    2  A    between atoms: C_2  and  C_10
REMARK    3  A    between atoms: C_2  and  C_13
REMARK    4  A    between atoms: C_3  and  C_4
REMARK    5  A    between atoms: C_4  and  C_5
REMARK    6  A    between atoms: C_5  and  C_6
REMARK    7  A    between atoms: C_6  and  C_7
REMARK    8  A    between atoms: C_10  and  O_11
REMARK    9  A    between atoms: C_18  and  O_20
REMARK   10  A    between atoms: C_23  and  C_25
REMARK   11  A    between atoms: C_28  and  O_29
REMARK                            x       y       z     vdW  Elec       q    Type
REMARK                         _______ _______ _______ _____ _____    ______ ____
ROOT
ATOM      1  C   UNL     1       7.657   0.851  23.782  0.00  0.00    +0.062 C 
ATOM      2  C   UNL     1       7.740   1.929  24.907  0.00  0.00    +0.127 C 
ATOM      3  C   UNL     1       7.388   1.259  26.242  0.00  0.00    +0.067 C 
ATOM      4  C   UNL     1       6.730  -0.013  25.808  0.00  0.00    -0.041 A 
ATOM      5  C   UNL     1       6.002  -0.858  26.627  0.00  0.00    +0.004 A 
ATOM      6  C   UNL     1       5.389  -1.972  26.057  0.00  0.00    +0.009 A 
ATOM      7  C   UNL     1       5.504  -2.281  24.678  0.00  0.00    -0.018 A 
ATOM      8  C   UNL     1       6.293  -1.408  23.881  0.00  0.00    +0.012 A 
ATOM      9  C   UNL     1       6.903  -0.280  24.451  0.00  0.00    -0.037 A 
ENDROOT
BRANCH   7  10
ATOM     10  C   UNL     1       4.754  -3.451  24.128  0.00  0.00    -0.018 A 
ATOM     11  C   UNL     1       5.349  -4.328  23.193  0.00  0.00    +0.012 A 
ATOM     12  C   UNL     1       4.700  -5.484  22.739  0.00  0.00    +0.046 A 
ATOM     13  C   UNL     1       3.428  -5.780  23.198  0.00  0.00    +0.117 A 
ATOM     14  C   UNL     1       2.795  -4.935  24.099  0.00  0.00    +0.046 A 
ATOM     15  C   UNL     1       3.456  -3.783  24.560  0.00  0.00    +0.012 A 
BRANCH  13  16
ATOM     16  O   UNL     1       2.839  -6.924  22.749  0.00  0.00    -0.507 OA
ATOM     17  H   UNL     1       3.213  -7.152  21.883  0.00  0.00    +0.292 HD
ENDBRANCH  13  16
ENDBRANCH   7  10
BRANCH   2  18
ATOM     18  O   UNL     1       6.818   2.986  24.618  0.00  0.00    -0.391 OA
ATOM     19  H   UNL     1       6.463   3.308  25.464  0.00  0.00    +0.210 HD
ENDBRANCH   2  18
BRANCH   1  20
ATOM     20  C   UNL     1       9.028   0.549  23.140  0.00  0.00    +0.107 C 
BRANCH  20  21
ATOM     21  C   UNL     1       9.202   1.236  21.793  0.00  0.00    +0.308 C 
ATOM     22  O   UNL     1       8.527   0.995  20.802  0.00  0.00    -0.251 OA
BRANCH  21  23
ATOM     23  O   UNL     1      10.193   2.150  21.772  0.00  0.00    -0.480 OA
ATOM     24  H   UNL     1      10.753   2.132  20.973  0.00  0.00    +0.295 HD
ENDBRANCH  21  23
ENDBRANCH  20  21
BRANCH  20  25
ATOM     25  C   UNL     1       9.192  -0.990  22.971  0.00  0.00    +0.015 C 
BRANCH  25  26
ATOM     26  C   UNL     1       9.927  -1.708  24.108  0.00  0.00    +0.001 C 
BRANCH  26  27
ATOM     27  C   UNL     1       9.559  -3.184  24.187  0.00  0.00    +0.012 C 
BRANCH  27  28
ATOM     28  C   UNL     1       8.869  -3.539  25.498  0.00  0.00    +0.127 C 
BRANCH  28  29
ATOM     29  C   UNL     1       9.190  -4.980  25.824  0.00  0.00    +0.276 C 
ATOM     30  N   UNL     1      10.264  -5.547  25.383  0.00  0.00    -0.104 NA
ATOM     31  H   UNL     1      10.802  -4.896  24.804  0.00  0.00    +0.363 HD
ATOM     32  N   UNL     1       8.361  -5.683  26.637  0.00  0.00    -0.251 N 
ATOM     33  H   UNL     1       8.556  -6.678  26.618  0.00  0.00    +0.288 HD
ATOM     34  H   UNL     1       7.376  -5.453  26.615  0.00  0.00    +0.288 HD
ENDBRANCH  28  29
ENDBRANCH  27  28
ENDBRANCH  26  27
ENDBRANCH  25  26
ENDBRANCH  20  25
ENDBRANCH   1  20
TORSDOF 11
ENDMDL
MODEL 9
REMARK VINA RESULT:      -6.0      3.370      7.292
REMARK  Name = 
REMARK  11 active torsions:
REMARK  status: ('A' for Active; 'I' for Inactive)
REMARK    1  A    between atoms: C_2  and  C_3
REMARK    2  A    between atoms: C_2  and  C_10
REMARK    3  A    between atoms: C_2  and  C_13
REMARK    4  A    between atoms: C_3  and  C_4
REMARK    5  A    between atoms: C_4  and  C_5
REMARK    6  A    between atoms: C_5  and  C_6
REMARK    7  A    between atoms: C_6  and  C_7
REMARK    8  A    between atoms: C_10  and  O_11
REMARK    9  A    between atoms: C_18  and  O_20
REMARK   10  A    between atoms: C_23  and  C_25
REMARK   11  A    between atoms: C_28  and  O_29
REMARK                            x       y       z     vdW  Elec       q    Type
REMARK                         _______ _______ _______ _____ _____    ______ ____
ROOT
ATOM      1  C   UNL     1       6.949  -0.438  23.235  0.00  0.00    +0.062 C 
ATOM      2  C   UNL     1       6.678   1.035  23.670  0.00  0.00    +0.127 C 
ATOM      3  C   UNL     1       6.029   1.016  25.061  0.00  0.00    +0.067 C 
ATOM      4  C   UNL     1       5.578  -0.404  25.193  0.00  0.00    -0.041 A 
ATOM      5  C   UNL     1       4.710  -0.882  26.159  0.00  0.00    +0.004 A 
ATOM      6  C   UNL     1       4.329  -2.222  26.106  0.00  0.00    +0.009 A 
ATOM      7  C   UNL     1       4.814  -3.113  25.117  0.00  0.00    -0.018 A 
ATOM      8  C   UNL     1       5.733  -2.590  24.168  0.00  0.00    +0.012 A 
ATOM      9  C   UNL     1       6.111  -1.239  24.212  0.00  0.00    -0.037 A 
ENDROOT
BRANCH   7  10
ATOM     10  C   UNL     1       4.298  -4.515  25.082  0.00  0.00    -0.018 A 
ATOM     11  C   UNL     1       5.158  -5.606  24.822  0.00  0.00    +0.012 A 
ATOM     12  C   UNL     1       4.716  -6.934  24.881  0.00  0.00    +0.046 A 
ATOM     13  C   UNL     1       3.392  -7.202  25.184  0.00  0.00    +0.117 A 
ATOM     14  C   UNL     1       2.505  -6.161  25.423  0.00  0.00    +0.046 A 
ATOM     15  C   UNL     1       2.958  -4.831  25.375  0.00  0.00    +0.012 A 
BRANCH  13  16
ATOM     16  O   UNL     1       3.005  -8.506  25.252  0.00  0.00    -0.507 OA
ATOM     17  H   UNL     1       3.478  -9.011  24.571  0.00  0.00    +0.292 HD
ENDBRANCH  13  16
ENDBRANCH   7  10
BRANCH   2  18
ATOM     18  O   UNL     1       5.805   1.655  22.718  0.00  0.00    -0.391 OA
ATOM     19  H   UNL     1       6.224   2.485  22.430  0.00  0.00    +0.210 HD
ENDBRANCH   2  18
BRANCH   1  20
ATOM     20  C   UNL     1       8.454  -0.760  23.116  0.00  0.00    +0.107 C 
BRANCH  20  21
ATOM     21  C   UNL     1       8.728  -1.899  22.144  0.00  0.00    +0.308 C 
ATOM     22  O   UNL     1       8.103  -2.950  22.116  0.00  0.00    -0.251 OA
BRANCH  21  23
ATOM     23  O   UNL     1       9.749  -1.658  21.296  0.00  0.00    -0.480 OA
ATOM     24  H   UNL     1       9.491  -1.558  20.360  0.00  0.00    +0.295 HD
ENDBRANCH  21  23
ENDBRANCH  20  21
BRANCH  20  25
ATOM     25  C   UNL     1       9.020  -1.121  24.520  0.00  0.00    +0.015 C 
BRANCH  25  26
ATOM     26  C   UNL     1       9.936  -0.070  25.156  0.00  0.00    +0.001 C 
BRANCH  26  27
ATOM     27  C   UNL     1      10.622   0.801  24.112  0.00  0.00    +0.012 C 
BRANCH  27  28
ATOM     28  C   UNL     1      10.144   2.246  24.161  0.00  0.00    +0.127 C 
BRANCH  28  29
ATOM     29  C   UNL     1       9.671   2.633  22.778  0.00  0.00    +0.276 C 
ATOM     30  N   UNL     1      10.160   2.076  21.719  0.00  0.00    -0.104 NA
ATOM     31  H   UNL     1      10.882   1.395  21.972  0.00  0.00    +0.363 HD
ATOM     32  N   UNL     1       8.677   3.548  22.641  0.00  0.00    -0.251 N 
ATOM     33  H   UNL     1       8.588   3.879  21.686  0.00  0.00    +0.288 HD
ATOM     34  H   UNL     1       8.610   4.275  23.340  0.00  0.00    +0.288 HD
ENDBRANCH  28  29
ENDBRANCH  27  28
ENDBRANCH  26  27
ENDBRANCH  25  26
ENDBRANCH  20  25
ENDBRANCH   1  20
TORSDOF 11
ENDMDL
