MODEL 1
REMARK VINA RESULT:      -7.4      0.000      0.000
REMARK  Name = 
REMARK  7 active torsions:
REMARK  status: ('A' for Active; 'I' for Inactive)
REMARK    1  A    between atoms: C_1  and  C_2
REMARK    2  A    between atoms: C_12  and  S_14
REMARK    3  A    between atoms: S_14  and  C_15
REMARK    4  A    between atoms: C_15  and  C_16
REMARK    5  A    between atoms: N_18  and  C_19
REMARK    6  A    between atoms: C_23  and  S_26
REMARK    7  A    between atoms: S_26  and  N_27
REMARK                            x       y       z     vdW  Elec       q    Type
REMARK                         _______ _______ _______ _____ _____    ______ ____
ROOT
ATOM      1  C   UNL     1       9.038  -0.735  22.065  0.00  0.00    +0.228 C 
ATOM      2  N   UNL     1       8.310   0.016  22.972  0.00  0.00    -0.284 N 
ATOM      3  H   UNL     1       8.222  -0.405  23.895  0.00  0.00    +0.155 HD
ATOM      4  O   UNL     1       9.644  -0.262  21.104  0.00  0.00    -0.275 OA
ENDROOT
BRANCH   2   5
ATOM      5  C   UNL     1       8.190   1.424  22.921  0.00  0.00    +0.052 A 
ATOM      6  C   UNL     1       7.135   2.044  22.241  0.00  0.00    +0.027 A 
ATOM      7  C   UNL     1       7.009   3.438  22.257  0.00  0.00    +0.030 A 
ATOM      8  C   UNL     1       7.964   4.212  22.925  0.00  0.00    +0.107 A 
ATOM      9  C   UNL     1       9.024   3.608  23.603  0.00  0.00    +0.050 A 
ATOM     10  C   UNL     1       9.123   2.216  23.611  0.00  0.00    +0.064 A 
ATOM     11 CL   UNL     1      10.469   1.497  24.425  0.00  0.00    -0.082 Cl
BRANCH   8  12
ATOM     12  S   UNL     1       7.798   5.971  22.977  0.00  0.00    +0.056 S 
ATOM     13  O   UNL     1       9.093   6.571  23.211  0.00  0.00    -0.153 OA
ATOM     14  O   UNL     1       6.635   6.309  23.769  0.00  0.00    -0.153 OA
BRANCH  12  15
ATOM     15  N   UNL     1       7.395   6.329  21.387  0.00  0.00    -0.204 NA
ATOM     16  H   UNL     1       8.244   6.437  20.830  0.00  0.00    +0.144 HD
ATOM     17  H   UNL     1       6.781   7.144  21.359  0.00  0.00    +0.144 HD
ENDBRANCH  12  15
ENDBRANCH   8  12
ENDBRANCH   2   5
BRANCH   1  18
ATOM     18  C   UNL     1       9.010  -2.240  22.318  0.00  0.00    +0.174 C 
BRANCH  18  19
ATOM     19  S   UNL     1       8.643  -2.634  24.059  0.00  0.00    -0.058 S 
BRANCH  19  26
ATOM     20  C   UNL     1       2.387  -8.193  24.910  0.00  0.00    +0.044 C 
ATOM     21  C   UNL     1       3.524  -7.213  24.926  0.00  0.00    -0.050 A 
ATOM     22  C   UNL     1       3.869  -6.501  23.777  0.00  0.00    +0.005 A 
ATOM     23  C   UNL     1       4.937  -5.589  23.785  0.00  0.00    +0.024 A 
ATOM     24  C   UNL     1       5.700  -5.356  24.940  0.00  0.00    +0.040 A 
ATOM     25  N   UNL     1       6.802  -4.409  24.986  0.00  0.00    -0.262 N 
ATOM     26  C   UNL     1       7.415  -3.896  23.823  0.00  0.00    +0.279 C 
ATOM     27  O   UNL     1       7.185  -4.241  22.670  0.00  0.00    -0.262 OA
ATOM     28  C   UNL     1       7.211  -4.016  26.348  0.00  0.00    +0.115 C 
ATOM     29  C   UNL     1       7.392  -5.226  27.242  0.00  0.00    +0.024 C 
ATOM     30  C   UNL     1       6.054  -5.907  27.418  0.00  0.00    +0.038 C 
ATOM     31  C   UNL     1       5.338  -6.078  26.104  0.00  0.00    -0.026 A 
ATOM     32  C   UNL     1       4.260  -6.986  26.086  0.00  0.00    +0.008 A 
ENDBRANCH  19  26
ENDBRANCH  18  19
ENDBRANCH   1  18
TORSDOF 6
ENDMDL
MODEL 2
REMARK VINA RESULT:      -7.4      3.343      9.569
REMARK  Name = 
REMARK  7 active torsions:
REMARK  status: ('A' for Active; 'I' for Inactive)
REMARK    1  A    between atoms: C_1  and  C_2
REMARK    2  A    between atoms: C_12  and  S_14
REMARK    3  A    between atoms: S_14  and  C_15
REMARK    4  A    between atoms: C_15  and  C_16
REMARK    5  A    between atoms: N_18  and  C_19
REMARK    6  A    between atoms: C_23  and  S_26
REMARK    7  A    between atoms: S_26  and  N_27
REMARK                            x       y       z     vdW  Elec       q    Type
REMARK                         _______ _______ _______ _____ _____    ______ ____
ROOT
ATOM      1  C   UNL     1       8.475  -3.743  24.177  0.00  0.00    +0.228 C 
ATOM      2  N   UNL     1       7.131  -3.421  24.273  0.00  0.00    -0.284 N 
ATOM      3  H   UNL     1       6.890  -2.501  23.910  0.00  0.00    +0.155 HD
ATOM      4  O   UNL     1       8.908  -4.893  24.112  0.00  0.00    -0.275 OA
ENDROOT
BRANCH   2   5
ATOM      5  C   UNL     1       6.087  -4.374  24.284  0.00  0.00    +0.052 A 
ATOM      6  C   UNL     1       5.761  -5.089  25.444  0.00  0.00    +0.027 A 
ATOM      7  C   UNL     1       4.684  -5.984  25.441  0.00  0.00    +0.030 A 
ATOM      8  C   UNL     1       3.957  -6.188  24.263  0.00  0.00    +0.107 A 
ATOM      9  C   UNL     1       4.273  -5.485  23.099  0.00  0.00    +0.050 A 
ATOM     10  C   UNL     1       5.326  -4.571  23.119  0.00  0.00    +0.064 A 
ATOM     11 CL   UNL     1       5.720  -3.745  21.652  0.00  0.00    -0.082 Cl
BRANCH   8  12
ATOM     12  S   UNL     1       2.575  -7.291  24.257  0.00  0.00    +0.056 S 
ATOM     13  O   UNL     1       1.422  -6.622  24.817  0.00  0.00    -0.153 OA
ATOM     14  O   UNL     1       3.012  -8.592  24.713  0.00  0.00    -0.153 OA
BRANCH  12  15
ATOM     15  N   UNL     1       2.271  -7.455  22.614  0.00  0.00    -0.204 NA
ATOM     16  H   UNL     1       2.540  -6.601  22.123  0.00  0.00    +0.144 HD
ATOM     17  H   UNL     1       1.297  -7.722  22.466  0.00  0.00    +0.144 HD
ENDBRANCH  12  15
ENDBRANCH   8  12
ENDBRANCH   2   5
BRANCH   1  18
ATOM     18  C   UNL     1       9.418  -2.543  24.198  0.00  0.00    +0.174 C 
BRANCH  18  19
ATOM     19  S   UNL     1       9.582  -1.774  22.554  0.00  0.00    -0.058 S 
BRANCH  19  26
ATOM     20  C   UNL     1       5.497   5.575  22.826  0.00  0.00    +0.044 C 
ATOM     21  C   UNL     1       6.367   4.352  22.809  0.00  0.00    -0.050 A 
ATOM     22  C   UNL     1       5.852   3.115  22.424  0.00  0.00    +0.005 A 
ATOM     23  C   UNL     1       6.660   1.966  22.415  0.00  0.00    +0.024 A 
ATOM     24  C   UNL     1       8.011   2.011  22.790  0.00  0.00    +0.040 A 
ATOM     25  N   UNL     1       8.879   0.844  22.777  0.00  0.00    -0.262 N 
ATOM     26  C   UNL     1       8.381  -0.475  22.715  0.00  0.00    +0.279 C 
ATOM     27  O   UNL     1       7.203  -0.808  22.768  0.00  0.00    -0.262 OA
ATOM     28  C   UNL     1      10.321   1.157  22.815  0.00  0.00    +0.115 C 
ATOM     29  C   UNL     1      10.642   2.160  23.904  0.00  0.00    +0.024 C 
ATOM     30  C   UNL     1       9.967   3.472  23.574  0.00  0.00    +0.038 C 
ATOM     31  C   UNL     1       8.529   3.273  23.172  0.00  0.00    -0.026 A 
ATOM     32  C   UNL     1       7.709   4.421  23.173  0.00  0.00    +0.008 A 
ENDBRANCH  19  26
ENDBRANCH  18  19
ENDBRANCH   1  18
TORSDOF 6
ENDMDL
MODEL 3
REMARK VINA RESULT:      -7.4      3.353      9.522
REMARK  Name = 
REMARK  7 active torsions:
REMARK  status: ('A' for Active; 'I' for Inactive)
REMARK    1  A    between atoms: C_1  and  C_2
REMARK    2  A    between atoms: C_12  and  S_14
REMARK    3  A    between atoms: S_14  and  C_15
REMARK    4  A    between atoms: C_15  and  C_16
REMARK    5  A    between atoms: N_18  and  C_19
REMARK    6  A    between atoms: C_23  and  S_26
REMARK    7  A    between atoms: S_26  and  N_27
REMARK                            x       y       z     vdW  Elec       q    Type
REMARK                         _______ _______ _______ _____ _____    ______ ____
ROOT
ATOM      1  C   UNL     1       7.819  -2.134  22.553  0.00  0.00    +0.228 C 
ATOM      2  N   UNL     1       8.130  -3.383  23.062  0.00  0.00    -0.284 N 
ATOM      3  H   UNL     1       9.117  -3.521  23.271  0.00  0.00    +0.155 HD
ATOM      4  O   UNL     1       6.718  -1.597  22.660  0.00  0.00    -0.275 OA
ENDROOT
BRANCH   2   5
ATOM      5  C   UNL     1       7.225  -4.190  23.790  0.00  0.00    +0.052 A 
ATOM      6  C   UNL     1       7.049  -4.029  25.170  0.00  0.00    +0.027 A 
ATOM      7  C   UNL     1       6.103  -4.802  25.855  0.00  0.00    +0.030 A 
ATOM      8  C   UNL     1       5.360  -5.762  25.160  0.00  0.00    +0.107 A 
ATOM      9  C   UNL     1       5.529  -5.937  23.785  0.00  0.00    +0.050 A 
ATOM     10  C   UNL     1       6.449  -5.139  23.104  0.00  0.00    +0.064 A 
ATOM     11 CL   UNL     1       6.665  -5.405  21.409  0.00  0.00    -0.082 Cl
BRANCH   8  12
ATOM     12  S   UNL     1       4.142  -6.722  26.008  0.00  0.00    +0.056 S 
ATOM     13  O   UNL     1       3.803  -7.881  25.213  0.00  0.00    -0.153 OA
ATOM     14  O   UNL     1       3.136  -5.832  26.546  0.00  0.00    -0.153 OA
BRANCH  12  15
ATOM     15  N   UNL     1       5.007  -7.293  27.328  0.00  0.00    -0.204 NA
ATOM     16  H   UNL     1       4.775  -6.746  28.159  0.00  0.00    +0.144 HD
ATOM     17  H   UNL     1       6.004  -7.304  27.112  0.00  0.00    +0.144 HD
ENDBRANCH  12  15
ENDBRANCH   8  12
ENDBRANCH   2   5
BRANCH   1  18
ATOM     18  C   UNL     1       8.956  -1.458  21.791  0.00  0.00    +0.174 C 
BRANCH  18  19
ATOM     19  S   UNL     1      10.307  -0.938  22.898  0.00  0.00    -0.058 S 
BRANCH  19  26
ATOM     20  C   UNL     1       8.274   6.858  25.318  0.00  0.00    +0.044 C 
ATOM     21  C   UNL     1       8.543   5.412  25.016  0.00  0.00    -0.050 A 
ATOM     22  C   UNL     1       9.471   5.047  24.042  0.00  0.00    +0.005 A 
ATOM     23  C   UNL     1       9.719   3.696  23.749  0.00  0.00    +0.024 A 
ATOM     24  C   UNL     1       9.049   2.661  24.419  0.00  0.00    +0.040 A 
ATOM     25  N   UNL     1       9.293   1.252  24.152  0.00  0.00    -0.262 N 
ATOM     26  C   UNL     1       9.958   0.801  22.992  0.00  0.00    +0.279 C 
ATOM     27  O   UNL     1      10.311   1.493  22.043  0.00  0.00    -0.262 OA
ATOM     28  C   UNL     1       8.805   0.339  25.203  0.00  0.00    +0.115 C 
ATOM     29  C   UNL     1       7.377   0.660  25.596  0.00  0.00    +0.024 C 
ATOM     30  C   UNL     1       7.342   2.034  26.226  0.00  0.00    +0.038 C 
ATOM     31  C   UNL     1       8.113   3.040  25.413  0.00  0.00    -0.026 A 
ATOM     32  C   UNL     1       7.876   4.400  25.701  0.00  0.00    +0.008 A 
ENDBRANCH  19  26
ENDBRANCH  18  19
ENDBRANCH   1  18
TORSDOF 6
ENDMDL
MODEL 4
REMARK VINA RESULT:      -7.4      0.981      2.258
REMARK  Name = 
REMARK  7 active torsions:
REMARK  status: ('A' for Active; 'I' for Inactive)
REMARK    1  A    between atoms: C_1  and  C_2
REMARK    2  A    between atoms: C_12  and  S_14
REMARK    3  A    between atoms: S_14  and  C_15
REMARK    4  A    between atoms: C_15  and  C_16
REMARK    5  A    between atoms: N_18  and  C_19
REMARK    6  A    between atoms: C_23  and  S_26
REMARK    7  A    between atoms: S_26  and  N_27
REMARK                            x       y       z     vdW  Elec       q    Type
REMARK                         _______ _______ _______ _____ _____    ______ ____
ROOT
ATOM      1  C   UNL     1       9.103  -0.766  22.234  0.00  0.00    +0.228 C 
ATOM      2  N   UNL     1       8.320  -0.004  23.085  0.00  0.00    -0.284 N 
ATOM      3  H   UNL     1       8.176  -0.413  24.006  0.00  0.00    +0.155 HD
ATOM      4  O   UNL     1       9.766  -0.306  21.306  0.00  0.00    -0.275 OA
ENDROOT
BRANCH   2   5
ATOM      5  C   UNL     1       8.202   1.403  23.006  0.00  0.00    +0.052 A 
ATOM      6  C   UNL     1       7.134   2.012  22.336  0.00  0.00    +0.027 A 
ATOM      7  C   UNL     1       7.012   3.406  22.325  0.00  0.00    +0.030 A 
ATOM      8  C   UNL     1       7.983   4.191  22.956  0.00  0.00    +0.107 A 
ATOM      9  C   UNL     1       9.055   3.598  23.625  0.00  0.00    +0.050 A 
ATOM     10  C   UNL     1       9.151   2.207  23.660  0.00  0.00    +0.064 A 
ATOM     11 CL   UNL     1      10.512   1.501  24.461  0.00  0.00    -0.082 Cl
BRANCH   8  12
ATOM     12  S   UNL     1       7.822   5.952  22.976  0.00  0.00    +0.056 S 
ATOM     13  O   UNL     1       9.119   6.552  23.195  0.00  0.00    -0.153 OA
ATOM     14  O   UNL     1       6.662   6.308  23.763  0.00  0.00    -0.153 OA
BRANCH  12  15
ATOM     15  N   UNL     1       7.416   6.280  21.380  0.00  0.00    -0.204 NA
ATOM     16  H   UNL     1       7.860   7.149  21.081  0.00  0.00    +0.144 HD
ATOM     17  H   UNL     1       6.402   6.281  21.272  0.00  0.00    +0.144 HD
ENDBRANCH  12  15
ENDBRANCH   8  12
ENDBRANCH   2   5
BRANCH   1  18
ATOM     18  C   UNL     1       9.060  -2.268  22.506  0.00  0.00    +0.174 C 
BRANCH  18  19
ATOM     19  S   UNL     1       7.402  -2.967  22.219  0.00  0.00    -0.058 S 
BRANCH  19  26
ATOM     20  C   UNL     1       5.039  -6.736  29.359  0.00  0.00    +0.044 C 
ATOM     21  C   UNL     1       5.377  -6.186  28.004  0.00  0.00    -0.050 A 
ATOM     22  C   UNL     1       6.275  -5.128  27.866  0.00  0.00    +0.005 A 
ATOM     23  C   UNL     1       6.587  -4.604  26.601  0.00  0.00    +0.024 A 
ATOM     24  C   UNL     1       6.013  -5.118  25.427  0.00  0.00    +0.040 A 
ATOM     25  N   UNL     1       6.326  -4.609  24.102  0.00  0.00    -0.262 N 
ATOM     26  C   UNL     1       6.956  -3.365  23.892  0.00  0.00    +0.279 C 
ATOM     27  O   UNL     1       7.220  -2.532  24.752  0.00  0.00    -0.262 OA
ATOM     28  C   UNL     1       5.946  -5.512  22.998  0.00  0.00    +0.115 C 
ATOM     29  C   UNL     1       4.523  -6.010  23.155  0.00  0.00    +0.024 C 
ATOM     30  C   UNL     1       4.439  -6.862  24.401  0.00  0.00    +0.038 C 
ATOM     31  C   UNL     1       5.108  -6.198  25.576  0.00  0.00    -0.026 A 
ATOM     32  C   UNL     1       4.806  -6.719  26.851  0.00  0.00    +0.008 A 
ENDBRANCH  19  26
ENDBRANCH  18  19
ENDBRANCH   1  18
TORSDOF 6
ENDMDL
MODEL 5
REMARK VINA RESULT:      -7.3      1.760      2.113
REMARK  Name = 
REMARK  7 active torsions:
REMARK  status: ('A' for Active; 'I' for Inactive)
REMARK    1  A    between atoms: C_1  and  C_2
REMARK    2  A    between atoms: C_12  and  S_14
REMARK    3  A    between atoms: S_14  and  C_15
REMARK    4  A    between atoms: C_15  and  C_16
REMARK    5  A    between atoms: N_18  and  C_19
REMARK    6  A    between atoms: C_23  and  S_26
REMARK    7  A    between atoms: S_26  and  N_27
REMARK                            x       y       z     vdW  Elec       q    Type
REMARK                         _______ _______ _______ _____ _____    ______ ____
ROOT
ATOM      1  C   UNL     1       9.109  -0.649  22.209  0.00  0.00    +0.228 C 
ATOM      2  N   UNL     1       8.566   0.132  23.215  0.00  0.00    -0.284 N 
ATOM      3  H   UNL     1       8.716  -0.227  24.156  0.00  0.00    +0.155 HD
ATOM      4  O   UNL     1       9.451  -0.219  21.108  0.00  0.00    -0.275 OA
ENDROOT
BRANCH   2   5
ATOM      5  C   UNL     1       8.356   1.526  23.111  0.00  0.00    +0.052 A 
ATOM      6  C   UNL     1       7.155   2.051  22.617  0.00  0.00    +0.027 A 
ATOM      7  C   UNL     1       6.954   3.436  22.580  0.00  0.00    +0.030 A 
ATOM      8  C   UNL     1       7.972   4.295  23.006  0.00  0.00    +0.107 A 
ATOM      9  C   UNL     1       9.176   3.786  23.497  0.00  0.00    +0.050 A 
ATOM     10  C   UNL     1       9.356   2.404  23.562  0.00  0.00    +0.064 A 
ATOM     11 CL   UNL     1      10.872   1.804  24.137  0.00  0.00    -0.082 Cl
BRANCH   8  12
ATOM     12  S   UNL     1       7.716   6.044  22.994  0.00  0.00    +0.056 S 
ATOM     13  O   UNL     1       8.963   6.715  23.286  0.00  0.00    -0.153 OA
ATOM     14  O   UNL     1       6.492   6.344  23.703  0.00  0.00    -0.153 OA
BRANCH  12  15
ATOM     15  N   UNL     1       7.394   6.336  21.372  0.00  0.00    -0.204 NA
ATOM     16  H   UNL     1       6.487   6.795  21.275  0.00  0.00    +0.144 HD
ATOM     17  H   UNL     1       7.473   5.469  20.840  0.00  0.00    +0.144 HD
ENDBRANCH  12  15
ENDBRANCH   8  12
ENDBRANCH   2   5
BRANCH   1  18
ATOM     18  C   UNL     1       9.226  -2.132  22.549  0.00  0.00    +0.174 C 
BRANCH  18  19
ATOM     19  S   UNL     1       8.886  -2.459  24.309  0.00  0.00    -0.058 S 
BRANCH  19  26
ATOM     20  C   UNL     1       1.126  -5.658  23.752  0.00  0.00    +0.044 C 
ATOM     21  C   UNL     1       2.563  -5.226  23.768  0.00  0.00    -0.050 A 
ATOM     22  C   UNL     1       2.963  -4.105  24.496  0.00  0.00    +0.005 A 
ATOM     23  C   UNL     1       4.305  -3.691  24.507  0.00  0.00    +0.024 A 
ATOM     24  C   UNL     1       5.296  -4.382  23.793  0.00  0.00    +0.040 A 
ATOM     25  N   UNL     1       6.697  -3.989  23.796  0.00  0.00    -0.262 N 
ATOM     26  C   UNL     1       7.130  -2.718  24.227  0.00  0.00    +0.279 C 
ATOM     27  O   UNL     1       6.413  -1.776  24.544  0.00  0.00    -0.262 OA
ATOM     28  C   UNL     1       7.624  -5.038  23.329  0.00  0.00    +0.115 C 
ATOM     29  C   UNL     1       7.152  -5.655  22.027  0.00  0.00    +0.024 C 
ATOM     30  C   UNL     1       5.845  -6.372  22.273  0.00  0.00    +0.038 C 
ATOM     31  C   UNL     1       4.883  -5.524  23.063  0.00  0.00    -0.026 A 
ATOM     32  C   UNL     1       3.533  -5.933  23.063  0.00  0.00    +0.008 A 
ENDBRANCH  19  26
ENDBRANCH  18  19
ENDBRANCH   1  18
TORSDOF 6
ENDMDL
MODEL 6
REMARK VINA RESULT:      -7.1      3.780      9.904
REMARK  Name = 
REMARK  7 active torsions:
REMARK  status: ('A' for Active; 'I' for Inactive)
REMARK    1  A    between atoms: C_1  and  C_2
REMARK    2  A    between atoms: C_12  and  S_14
REMARK    3  A    between atoms: S_14  and  C_15
REMARK    4  A    between atoms: C_15  and  C_16
REMARK    5  A    between atoms: N_18  and  C_19
REMARK    6  A    between atoms: C_23  and  S_26
REMARK    7  A    between atoms: S_26  and  N_27
REMARK                            x       y       z     vdW  Elec       q    Type
REMARK                         _______ _______ _______ _____ _____    ______ ____
ROOT
ATOM      1  C   UNL     1       7.219  -4.742  23.182  0.00  0.00    +0.228 C 
ATOM      2  N   UNL     1       6.052  -4.417  23.854  0.00  0.00    -0.284 N 
ATOM      3  H   UNL     1       5.843  -3.420  23.880  0.00  0.00    +0.155 HD
ATOM      4  O   UNL     1       7.427  -5.828  22.642  0.00  0.00    -0.275 OA
ENDROOT
BRANCH   2   5
ATOM      5  C   UNL     1       4.944  -5.285  23.984  0.00  0.00    +0.052 A 
ATOM      6  C   UNL     1       3.951  -5.356  22.999  0.00  0.00    +0.027 A 
ATOM      7  C   UNL     1       2.896  -6.267  23.127  0.00  0.00    +0.030 A 
ATOM      8  C   UNL     1       2.818  -7.082  24.262  0.00  0.00    +0.107 A 
ATOM      9  C   UNL     1       3.799  -7.019  25.254  0.00  0.00    +0.050 A 
ATOM     10  C   UNL     1       4.865  -6.132  25.103  0.00  0.00    +0.064 A 
ATOM     11 CL   UNL     1       6.043  -6.047  26.366  0.00  0.00    -0.082 Cl
BRANCH   8  12
ATOM     12  S   UNL     1       1.508  -8.258  24.419  0.00  0.00    +0.056 S 
ATOM     13  O   UNL     1       1.171  -8.781  23.113  0.00  0.00    -0.153 OA
ATOM     14  O   UNL     1       0.508  -7.729  25.321  0.00  0.00    -0.153 OA
BRANCH  12  15
ATOM     15  N   UNL     1       2.262  -9.509  25.246  0.00  0.00    -0.204 NA
ATOM     16  H   UNL     1       2.699  -9.150  26.096  0.00  0.00    +0.144 HD
ATOM     17  H   UNL     1       2.911  -9.994  24.626  0.00  0.00    +0.144 HD
ENDBRANCH  12  15
ENDBRANCH   8  12
ENDBRANCH   2   5
BRANCH   1  18
ATOM     18  C   UNL     1       8.281  -3.646  23.187  0.00  0.00    +0.174 C 
BRANCH  18  19
ATOM     19  S   UNL     1       8.431  -2.846  24.817  0.00  0.00    -0.058 S 
BRANCH  19  26
ATOM     20  C   UNL     1       7.093   5.032  22.187  0.00  0.00    +0.044 C 
ATOM     21  C   UNL     1       7.496   3.667  22.663  0.00  0.00    -0.050 A 
ATOM     22  C   UNL     1       6.571   2.625  22.710  0.00  0.00    +0.005 A 
ATOM     23  C   UNL     1       6.940   1.348  23.164  0.00  0.00    +0.024 A 
ATOM     24  C   UNL     1       8.249   1.066  23.587  0.00  0.00    +0.040 A 
ATOM     25  N   UNL     1       8.669  -0.248  24.048  0.00  0.00    -0.262 N 
ATOM     26  C   UNL     1       7.752  -1.251  24.426  0.00  0.00    +0.279 C 
ATOM     27  O   UNL     1       6.536  -1.126  24.516  0.00  0.00    -0.262 OA
ATOM     28  C   UNL     1      10.130  -0.447  24.067  0.00  0.00    +0.115 C 
ATOM     29  C   UNL     1      10.838   0.707  24.747  0.00  0.00    +0.024 C 
ATOM     30  C   UNL     1      10.627   1.960  23.928  0.00  0.00    +0.038 C 
ATOM     31  C   UNL     1       9.185   2.128  23.529  0.00  0.00    -0.026 A 
ATOM     32  C   UNL     1       8.803   3.405  23.067  0.00  0.00    +0.008 A 
ENDBRANCH  19  26
ENDBRANCH  18  19
ENDBRANCH   1  18
TORSDOF 6
ENDMDL
MODEL 7
REMARK VINA RESULT:      -7.1      1.423      2.582
REMARK  Name = 
REMARK  7 active torsions:
REMARK  status: ('A' for Active; 'I' for Inactive)
REMARK    1  A    between atoms: C_1  and  C_2
REMARK    2  A    between atoms: C_12  and  S_14
REMARK    3  A    between atoms: S_14  and  C_15
REMARK    4  A    between atoms: C_15  and  C_16
REMARK    5  A    between atoms: N_18  and  C_19
REMARK    6  A    between atoms: C_23  and  S_26
REMARK    7  A    between atoms: S_26  and  N_27
REMARK                            x       y       z     vdW  Elec       q    Type
REMARK                         _______ _______ _______ _____ _____    ______ ____
ROOT
ATOM      1  C   UNL     1       9.498  -0.580  22.601  0.00  0.00    +0.228 C 
ATOM      2  N   UNL     1       9.054   0.163  23.681  0.00  0.00    -0.284 N 
ATOM      3  H   UNL     1       9.236  -0.261  24.589  0.00  0.00    +0.155 HD
ATOM      4  O   UNL     1       9.802  -0.101  21.509  0.00  0.00    -0.275 OA
ENDROOT
BRANCH   2   5
ATOM      5  C   UNL     1       8.915   1.571  23.672  0.00  0.00    +0.052 A 
ATOM      6  C   UNL     1      10.028   2.416  23.768  0.00  0.00    +0.027 A 
ATOM      7  C   UNL     1       9.866   3.805  23.697  0.00  0.00    +0.030 A 
ATOM      8  C   UNL     1       8.582   4.346  23.568  0.00  0.00    +0.107 A 
ATOM      9  C   UNL     1       7.463   3.515  23.476  0.00  0.00    +0.050 A 
ATOM     10  C   UNL     1       7.637   2.132  23.513  0.00  0.00    +0.064 A 
ATOM     11 CL   UNL     1       6.230   1.129  23.438  0.00  0.00    -0.082 Cl
BRANCH   8  12
ATOM     12  S   UNL     1       8.368   6.097  23.446  0.00  0.00    +0.056 S 
ATOM     13  O   UNL     1       9.654   6.748  23.565  0.00  0.00    -0.153 OA
ATOM     14  O   UNL     1       7.227   6.487  24.244  0.00  0.00    -0.153 OA
BRANCH  12  15
ATOM     15  N   UNL     1       7.897   6.278  21.845  0.00  0.00    -0.204 NA
ATOM     16  H   UNL     1       7.538   5.392  21.486  0.00  0.00    +0.144 HD
ATOM     17  H   UNL     1       8.669   6.658  21.296  0.00  0.00    +0.144 HD
ENDBRANCH  12  15
ENDBRANCH   8  12
ENDBRANCH   2   5
BRANCH   1  18
ATOM     18  C   UNL     1       9.553  -2.086  22.845  0.00  0.00    +0.174 C 
BRANCH  18  19
ATOM     19  S   UNL     1       7.995  -2.910  22.381  0.00  0.00    -0.058 S 
BRANCH  19  26
ATOM     20  C   UNL     1       4.871  -6.796  29.157  0.00  0.00    +0.044 C 
ATOM     21  C   UNL     1       5.345  -6.217  27.855  0.00  0.00    -0.050 A 
ATOM     22  C   UNL     1       6.308  -5.209  27.831  0.00  0.00    +0.005 A 
ATOM     23  C   UNL     1       6.748  -4.658  26.616  0.00  0.00    +0.024 A 
ATOM     24  C   UNL     1       6.240  -5.093  25.382  0.00  0.00    +0.040 A 
ATOM     25  N   UNL     1       6.684  -4.555  24.106  0.00  0.00    -0.262 N 
ATOM     26  C   UNL     1       7.398  -3.343  23.997  0.00  0.00    +0.279 C 
ATOM     27  O   UNL     1       7.639  -2.559  24.908  0.00  0.00    -0.262 OA
ATOM     28  C   UNL     1       6.343  -5.393  22.940  0.00  0.00    +0.115 C 
ATOM     29  C   UNL     1       4.887  -5.812  22.966  0.00  0.00    +0.024 C 
ATOM     30  C   UNL     1       4.657  -6.702  24.166  0.00  0.00    +0.038 C 
ATOM     31  C   UNL     1       5.268  -6.123  25.415  0.00  0.00    -0.026 A 
ATOM     32  C   UNL     1       4.838  -6.672  26.641  0.00  0.00    +0.008 A 
ENDBRANCH  19  26
ENDBRANCH  18  19
ENDBRANCH   1  18
TORSDOF 6
ENDMDL
MODEL 8
REMARK VINA RESULT:      -7.1      3.612      9.400
REMARK  Name = 
REMARK  7 active torsions:
REMARK  status: ('A' for Active; 'I' for Inactive)
REMARK    1  A    between atoms: C_1  and  C_2
REMARK    2  A    between atoms: C_12  and  S_14
REMARK    3  A    between atoms: S_14  and  C_15
REMARK    4  A    between atoms: C_15  and  C_16
REMARK    5  A    between atoms: N_18  and  C_19
REMARK    6  A    between atoms: C_23  and  S_26
REMARK    7  A    between atoms: S_26  and  N_27
REMARK                            x       y       z     vdW  Elec       q    Type
REMARK                         _______ _______ _______ _____ _____    ______ ____
ROOT
ATOM      1  C   UNL     1       7.885  -3.059  23.354  0.00  0.00    +0.228 C 
ATOM      2  N   UNL     1       8.017  -2.769  24.702  0.00  0.00    -0.284 N 
ATOM      3  H   UNL     1       8.134  -1.779  24.911  0.00  0.00    +0.155 HD
ATOM      4  O   UNL     1       7.301  -4.048  22.913  0.00  0.00    -0.275 OA
ENDROOT
BRANCH   2   5
ATOM      5  C   UNL     1       7.476  -3.562  25.740  0.00  0.00    +0.052 A 
ATOM      6  C   UNL     1       6.222  -3.281  26.297  0.00  0.00    +0.027 A 
ATOM      7  C   UNL     1       5.686  -4.118  27.283  0.00  0.00    +0.030 A 
ATOM      8  C   UNL     1       6.425  -5.216  27.736  0.00  0.00    +0.107 A 
ATOM      9  C   UNL     1       7.678  -5.505  27.193  0.00  0.00    +0.050 A 
ATOM     10  C   UNL     1       8.191  -4.686  26.187  0.00  0.00    +0.064 A 
ATOM     11 CL   UNL     1       9.762  -5.045  25.561  0.00  0.00    -0.082 Cl
BRANCH   8  12
ATOM     12  S   UNL     1       5.744  -6.298  28.957  0.00  0.00    +0.056 S 
ATOM     13  O   UNL     1       6.634  -7.420  29.157  0.00  0.00    -0.153 OA
ATOM     14  O   UNL     1       4.331  -6.467  28.699  0.00  0.00    -0.153 OA
BRANCH  12  15
ATOM     15  N   UNL     1       5.851  -5.361  30.347  0.00  0.00    -0.204 NA
ATOM     16  H   UNL     1       5.179  -4.594  30.301  0.00  0.00    +0.144 HD
ATOM     17  H   UNL     1       6.814  -5.054  30.486  0.00  0.00    +0.144 HD
ENDBRANCH  12  15
ENDBRANCH   8  12
ENDBRANCH   2   5
BRANCH   1  18
ATOM     18  C   UNL     1       8.567  -2.062  22.420  0.00  0.00    +0.174 C 
BRANCH  18  19
ATOM     19  S   UNL     1      10.138  -1.445  23.108  0.00  0.00    -0.058 S 
BRANCH  19  26
ATOM     20  C   UNL     1       8.393   6.599  24.844  0.00  0.00    +0.044 C 
ATOM     21  C   UNL     1       8.619   5.125  24.675  0.00  0.00    -0.050 A 
ATOM     22  C   UNL     1       9.470   4.642  23.681  0.00  0.00    +0.005 A 
ATOM     23  C   UNL     1       9.678   3.263  23.514  0.00  0.00    +0.024 A 
ATOM     24  C   UNL     1       9.042   2.316  24.332  0.00  0.00    +0.040 A 
ATOM     25  N   UNL     1       9.247   0.883  24.196  0.00  0.00    -0.262 N 
ATOM     26  C   UNL     1       9.821   0.302  23.045  0.00  0.00    +0.279 C 
ATOM     27  O   UNL     1      10.114   0.885  22.008  0.00  0.00    -0.262 OA
ATOM     28  C   UNL     1       8.823   0.093  25.368  0.00  0.00    +0.115 C 
ATOM     29  C   UNL     1       7.431   0.483  25.824  0.00  0.00    +0.024 C 
ATOM     30  C   UNL     1       7.460   1.914  26.309  0.00  0.00    +0.038 C 
ATOM     31  C   UNL     1       8.185   2.815  25.344  0.00  0.00    -0.026 A 
ATOM     32  C   UNL     1       7.989   4.202  25.506  0.00  0.00    +0.008 A 
ENDBRANCH  19  26
ENDBRANCH  18  19
ENDBRANCH   1  18
TORSDOF 6
ENDMDL
MODEL 9
REMARK VINA RESULT:      -7.0      3.787     10.033
REMARK  Name = 
REMARK  7 active torsions:
REMARK  status: ('A' for Active; 'I' for Inactive)
REMARK    1  A    between atoms: C_1  and  C_2
REMARK    2  A    between atoms: C_12  and  S_14
REMARK    3  A    between atoms: S_14  and  C_15
REMARK    4  A    between atoms: C_15  and  C_16
REMARK    5  A    between atoms: N_18  and  C_19
REMARK    6  A    between atoms: C_23  and  S_26
REMARK    7  A    between atoms: S_26  and  N_27
REMARK                            x       y       z     vdW  Elec       q    Type
REMARK                         _______ _______ _______ _____ _____    ______ ____
ROOT
ATOM      1  C   UNL     1       7.664  -4.778  26.217  0.00  0.00    +0.228 C 
ATOM      2  N   UNL     1       6.585  -4.525  25.387  0.00  0.00    -0.284 N 
ATOM      3  H   UNL     1       6.792  -3.919  24.596  0.00  0.00    +0.155 HD
ATOM      4  O   UNL     1       7.780  -5.783  26.916  0.00  0.00    -0.275 OA
ENDROOT
BRANCH   2   5
ATOM      5  C   UNL     1       5.489  -5.403  25.223  0.00  0.00    +0.052 A 
ATOM      6  C   UNL     1       4.575  -5.634  26.260  0.00  0.00    +0.027 A 
ATOM      7  C   UNL     1       3.466  -6.464  26.049  0.00  0.00    +0.030 A 
ATOM      8  C   UNL     1       3.295  -7.090  24.810  0.00  0.00    +0.107 A 
ATOM      9  C   UNL     1       4.200  -6.872  23.769  0.00  0.00    +0.050 A 
ATOM     10  C   UNL     1       5.284  -6.017  23.976  0.00  0.00    +0.064 A 
ATOM     11 CL   UNL     1       6.410  -5.798  22.683  0.00  0.00    -0.082 Cl
BRANCH   8  12
ATOM     12  S   UNL     1       1.882  -8.113  24.524  0.00  0.00    +0.056 S 
ATOM     13  O   UNL     1       0.685  -7.401  24.913  0.00  0.00    -0.153 OA
ATOM     14  O   UNL     1       2.171  -9.452  24.988  0.00  0.00    -0.153 OA
BRANCH  12  15
ATOM     15  N   UNL     1       1.852  -8.201  22.848  0.00  0.00    -0.204 NA
ATOM     16  H   UNL     1       1.874  -9.178  22.550  0.00  0.00    +0.144 HD
ATOM     17  H   UNL     1       2.607  -7.638  22.456  0.00  0.00    +0.144 HD
ENDBRANCH  12  15
ENDBRANCH   8  12
ENDBRANCH   2   5
BRANCH   1  18
ATOM     18  C   UNL     1       8.720  -3.675  26.238  0.00  0.00    +0.174 C 
BRANCH  18  19
ATOM     19  S   UNL     1       9.069  -3.029  24.570  0.00  0.00    -0.058 S 
BRANCH  19  26
ATOM     20  C   UNL     1       7.943   5.303  24.289  0.00  0.00    +0.044 C 
ATOM     21  C   UNL     1       8.148   3.820  24.170  0.00  0.00    -0.050 A 
ATOM     22  C   UNL     1       8.064   2.996  25.291  0.00  0.00    +0.005 A 
ATOM     23  C   UNL     1       8.265   1.610  25.186  0.00  0.00    +0.024 A 
ATOM     24  C   UNL     1       8.557   0.997  23.958  0.00  0.00    +0.040 A 
ATOM     25  N   UNL     1       8.755  -0.436  23.812  0.00  0.00    -0.262 N 
ATOM     26  C   UNL     1       9.003  -1.287  24.910  0.00  0.00    +0.279 C 
ATOM     27  O   UNL     1       9.183  -0.938  26.071  0.00  0.00    -0.262 OA
ATOM     28  C   UNL     1       8.655  -0.926  22.423  0.00  0.00    +0.115 C 
ATOM     29  C   UNL     1       9.486  -0.083  21.477  0.00  0.00    +0.024 C 
ATOM     30  C   UNL     1       8.913   1.315  21.439  0.00  0.00    +0.038 C 
ATOM     31  C   UNL     1       8.633   1.841  22.822  0.00  0.00    -0.026 A 
ATOM     32  C   UNL     1       8.424   3.231  22.939  0.00  0.00    +0.008 A 
ENDBRANCH  19  26
ENDBRANCH  18  19
ENDBRANCH   1  18
TORSDOF 6
ENDMDL
