MODEL 1
REMARK VINA RESULT:      -5.8      0.000      0.000
REMARK  Name = 
REMARK  6 active torsions:
REMARK  status: ('A' for Active; 'I' for Inactive)
REMARK    1  A    between atoms: C_5  and  N_6
REMARK    2  A    between atoms: N_6  and  C_7
REMARK    3  A    between atoms: C_7  and  O_9
REMARK    4  A    between atoms: O_9  and  C_10
REMARK    5  A    between atoms: C_10  and  C_11
REMARK    6  A    between atoms: C_11  and  N_12
REMARK                            x       y       z     vdW  Elec       q    Type
REMARK                         _______ _______ _______ _____ _____    ______ ____
ROOT
ATOM      1  C   UNL     1       9.189   5.935  23.495  0.00  0.00    +0.250 C 
ENDROOT
BRANCH   1   2
ATOM      2  O   UNL     1      10.224   5.108  24.092  0.00  0.00    -0.472 OA
BRANCH   2   3
ATOM      3  C   UNL     1      11.172   4.437  23.389  0.00  0.00    +0.232 C 
ATOM      4  S   UNL     1      12.780   4.859  23.344  0.00  0.00    +0.006 S 
BRANCH   3   5
ATOM      5  N   UNL     1      10.720   3.407  22.608  0.00  0.00    -0.279 N 
ATOM      6  H   UNL     1      10.614   3.657  21.632  0.00  0.00    +0.156 HD
BRANCH   5  11
ATOM      7 CL   UNL     1       9.816  -2.340  23.743  0.00  0.00    -0.084 Cl
ATOM      8  C   UNL     1      10.082  -0.669  23.431  0.00  0.00    +0.041 A 
ATOM      9  C   UNL     1       9.824  -0.149  22.166  0.00  0.00    +0.022 A 
ATOM     10  C   UNL     1      10.038   1.211  21.918  0.00  0.00    +0.025 A 
ATOM     11  C   UNL     1      10.483   2.060  22.940  0.00  0.00    +0.034 A 
ATOM     12  C   UNL     1      10.756   1.521  24.200  0.00  0.00    +0.025 A 
ATOM     13  C   UNL     1      10.560   0.157  24.444  0.00  0.00    +0.022 A 
ENDBRANCH   5  11
ENDBRANCH   3   5
ENDBRANCH   2   3
ENDBRANCH   1   2
BRANCH   1  14
ATOM     14  C   UNL     1       7.807   5.641  24.088  0.00  0.00    +0.158 C 
BRANCH  14  15
ATOM     15  N   UNL     1       7.553   4.219  24.221  0.00  0.00    -0.231 N 
ATOM     16  C   UNL     1       7.108   3.412  23.208  0.00  0.00    +0.254 C 
ATOM     17  O   UNL     1       6.857   3.697  22.055  0.00  0.00    -0.270 OA
ATOM     18  C   UNL     1       6.954   2.073  23.782  0.00  0.00    +0.049 A 
ATOM     19  C   UNL     1       6.546   0.885  23.201  0.00  0.00    +0.014 A 
ATOM     20  C   UNL     1       6.489  -0.242  24.029  0.00  0.00    +0.001 A 
ATOM     21  C   UNL     1       6.832  -0.158  25.395  0.00  0.00    +0.001 A 
ATOM     22  C   UNL     1       7.237   1.056  25.957  0.00  0.00    +0.014 A 
ATOM     23  C   UNL     1       7.285   2.154  25.121  0.00  0.00    +0.049 A 
ATOM     24  C   UNL     1       7.646   3.541  25.404  0.00  0.00    +0.254 C 
ATOM     25  O   UNL     1       7.943   3.961  26.507  0.00  0.00    -0.270 OA
ENDBRANCH  14  15
ENDBRANCH   1  14
TORSDOF 6
ENDMDL
MODEL 2
REMARK VINA RESULT:      -5.8      7.287      9.218
REMARK  Name = 
REMARK  6 active torsions:
REMARK  status: ('A' for Active; 'I' for Inactive)
REMARK    1  A    between atoms: C_5  and  N_6
REMARK    2  A    between atoms: N_6  and  C_7
REMARK    3  A    between atoms: C_7  and  O_9
REMARK    4  A    between atoms: O_9  and  C_10
REMARK    5  A    between atoms: C_10  and  C_11
REMARK    6  A    between atoms: C_11  and  N_12
REMARK                            x       y       z     vdW  Elec       q    Type
REMARK                         _______ _______ _______ _____ _____    ______ ____
ROOT
ATOM      1  C   UNL     1       3.206  -5.585  27.427  0.00  0.00    +0.250 C 
ENDROOT
BRANCH   1   2
ATOM      2  O   UNL     1       4.187  -6.617  27.718  0.00  0.00    -0.472 OA
BRANCH   2   3
ATOM      3  C   UNL     1       5.399  -6.387  28.285  0.00  0.00    +0.232 C 
ATOM      4  S   UNL     1       5.635  -6.083  29.903  0.00  0.00    +0.006 S 
BRANCH   3   5
ATOM      5  N   UNL     1       6.460  -6.319  27.422  0.00  0.00    -0.279 N 
ATOM      6  H   UNL     1       6.799  -7.227  27.127  0.00  0.00    +0.156 HD
BRANCH   5  11
ATOM      7 CL   UNL     1       9.047  -1.757  24.659  0.00  0.00    -0.084 Cl
ATOM      8  C   UNL     1       8.286  -3.070  25.471  0.00  0.00    +0.041 A 
ATOM      9  C   UNL     1       8.723  -4.372  25.246  0.00  0.00    +0.022 A 
ATOM     10  C   UNL     1       8.104  -5.435  25.911  0.00  0.00    +0.025 A 
ATOM     11  C   UNL     1       7.066  -5.199  26.823  0.00  0.00    +0.034 A 
ATOM     12  C   UNL     1       6.625  -3.889  27.025  0.00  0.00    +0.025 A 
ATOM     13  C   UNL     1       7.231  -2.826  26.346  0.00  0.00    +0.022 A 
ENDBRANCH   5  11
ENDBRANCH   3   5
ENDBRANCH   2   3
ENDBRANCH   1   2
BRANCH   1  14
ATOM     14  C   UNL     1       2.702  -5.665  25.983  0.00  0.00    +0.158 C 
BRANCH  14  15
ATOM     15  N   UNL     1       3.722  -5.296  25.019  0.00  0.00    -0.231 N 
ATOM     16  C   UNL     1       3.978  -4.013  24.614  0.00  0.00    +0.254 C 
ATOM     17  O   UNL     1       3.446  -2.979  24.961  0.00  0.00    -0.270 OA
ATOM     18  C   UNL     1       5.049  -4.099  23.618  0.00  0.00    +0.049 A 
ATOM     19  C   UNL     1       5.693  -3.108  22.899  0.00  0.00    +0.014 A 
ATOM     20  C   UNL     1       6.683  -3.515  21.998  0.00  0.00    +0.001 A 
ATOM     21  C   UNL     1       6.999  -4.881  21.835  0.00  0.00    +0.001 A 
ATOM     22  C   UNL     1       6.330  -5.862  22.571  0.00  0.00    +0.014 A 
ATOM     23  C   UNL     1       5.357  -5.436  23.453  0.00  0.00    +0.049 A 
ATOM     24  C   UNL     1       4.484  -6.204  24.339  0.00  0.00    +0.254 C 
ATOM     25  O   UNL     1       4.467  -7.418  24.401  0.00  0.00    -0.270 OA
ENDBRANCH  14  15
ENDBRANCH   1  14
TORSDOF 6
ENDMDL
MODEL 3
REMARK VINA RESULT:      -5.8      7.280      9.186
REMARK  Name = 
REMARK  6 active torsions:
REMARK  status: ('A' for Active; 'I' for Inactive)
REMARK    1  A    between atoms: C_5  and  N_6
REMARK    2  A    between atoms: N_6  and  C_7
REMARK    3  A    between atoms: C_7  and  O_9
REMARK    4  A    between atoms: O_9  and  C_10
REMARK    5  A    between atoms: C_10  and  C_11
REMARK    6  A    between atoms: C_11  and  N_12
REMARK                            x       y       z     vdW  Elec       q    Type
REMARK                         _______ _______ _______ _____ _____    ______ ____
ROOT
ATOM      1  C   UNL     1       3.184  -5.516  27.326  0.00  0.00    +0.250 C 
ENDROOT
BRANCH   1   2
ATOM      2  O   UNL     1       4.143  -6.564  27.637  0.00  0.00    -0.472 OA
BRANCH   2   3
ATOM      3  C   UNL     1       5.345  -6.352  28.231  0.00  0.00    +0.232 C 
ATOM      4  S   UNL     1       5.551  -6.057  29.855  0.00  0.00    +0.006 S 
BRANCH   3   5
ATOM      5  N   UNL     1       6.425  -6.297  27.390  0.00  0.00    -0.279 N 
ATOM      6  H   UNL     1       6.776  -7.209  27.124  0.00  0.00    +0.156 HD
BRANCH   5  11
ATOM      7 CL   UNL     1       9.035  -1.777  24.580  0.00  0.00    -0.084 Cl
ATOM      8  C   UNL     1       8.268  -3.077  25.406  0.00  0.00    +0.041 A 
ATOM      9  C   UNL     1       8.690  -4.385  25.185  0.00  0.00    +0.022 A 
ATOM     10  C   UNL     1       8.066  -5.438  25.862  0.00  0.00    +0.025 A 
ATOM     11  C   UNL     1       7.038  -5.186  26.781  0.00  0.00    +0.034 A 
ATOM     12  C   UNL     1       6.611  -3.871  26.978  0.00  0.00    +0.025 A 
ATOM     13  C   UNL     1       7.222  -2.818  26.288  0.00  0.00    +0.022 A 
ENDBRANCH   5  11
ENDBRANCH   3   5
ENDBRANCH   2   3
ENDBRANCH   1   2
BRANCH   1  14
ATOM     14  C   UNL     1       2.650  -5.635  25.894  0.00  0.00    +0.158 C 
BRANCH  14  15
ATOM     15  N   UNL     1       3.651  -5.298  24.900  0.00  0.00    -0.231 N 
ATOM     16  C   UNL     1       4.460  -6.208  24.274  0.00  0.00    +0.254 C 
ATOM     17  O   UNL     1       4.500  -7.414  24.402  0.00  0.00    -0.270 OA
ATOM     18  C   UNL     1       5.336  -5.441  23.384  0.00  0.00    +0.049 A 
ATOM     19  C   UNL     1       6.329  -5.860  22.517  0.00  0.00    +0.014 A 
ATOM     20  C   UNL     1       7.009  -4.869  21.801  0.00  0.00    +0.001 A 
ATOM     21  C   UNL     1       6.690  -3.504  21.967  0.00  0.00    +0.001 A 
ATOM     22  C   UNL     1       5.685  -3.109  22.854  0.00  0.00    +0.014 A 
ATOM     23  C   UNL     1       5.028  -4.105  23.549  0.00  0.00    +0.049 A 
ATOM     24  C   UNL     1       3.961  -4.015  24.543  0.00  0.00    +0.254 C 
ATOM     25  O   UNL     1       3.491  -2.971  24.953  0.00  0.00    -0.270 OA
ENDBRANCH  14  15
ENDBRANCH   1  14
TORSDOF 6
ENDMDL
MODEL 4
REMARK VINA RESULT:      -5.7      0.223      2.048
REMARK  Name = 
REMARK  6 active torsions:
REMARK  status: ('A' for Active; 'I' for Inactive)
REMARK    1  A    between atoms: C_5  and  N_6
REMARK    2  A    between atoms: N_6  and  C_7
REMARK    3  A    between atoms: C_7  and  O_9
REMARK    4  A    between atoms: O_9  and  C_10
REMARK    5  A    between atoms: C_10  and  C_11
REMARK    6  A    between atoms: C_11  and  N_12
REMARK                            x       y       z     vdW  Elec       q    Type
REMARK                         _______ _______ _______ _____ _____    ______ ____
ROOT
ATOM      1  C   UNL     1       9.304   6.040  23.644  0.00  0.00    +0.250 C 
ENDROOT
BRANCH   1   2
ATOM      2  O   UNL     1      10.215   5.024  24.147  0.00  0.00    -0.472 OA
BRANCH   2   3
ATOM      3  C   UNL     1      11.157   4.399  23.396  0.00  0.00    +0.232 C 
ATOM      4  S   UNL     1      12.751   4.868  23.310  0.00  0.00    +0.006 S 
BRANCH   3   5
ATOM      5  N   UNL     1      10.708   3.376  22.604  0.00  0.00    -0.279 N 
ATOM      6  H   UNL     1      10.579   3.643  21.635  0.00  0.00    +0.156 HD
BRANCH   5  11
ATOM      7 CL   UNL     1       9.731  -2.257  24.168  0.00  0.00    -0.084 Cl
ATOM      8  C   UNL     1      10.012  -0.626  23.697  0.00  0.00    +0.041 A 
ATOM      9  C   UNL     1      10.452   0.302  24.636  0.00  0.00    +0.022 A 
ATOM     10  C   UNL     1      10.682   1.626  24.247  0.00  0.00    +0.025 A 
ATOM     11  C   UNL     1      10.501   2.020  22.914  0.00  0.00    +0.034 A 
ATOM     12  C   UNL     1      10.041   1.082  21.986  0.00  0.00    +0.025 A 
ATOM     13  C   UNL     1       9.792  -0.238  22.378  0.00  0.00    +0.022 A 
ENDBRANCH   5  11
ENDBRANCH   3   5
ENDBRANCH   2   3
ENDBRANCH   1   2
BRANCH   1  14
ATOM     14  C   UNL     1       7.877   5.837  24.166  0.00  0.00    +0.158 C 
BRANCH  14  15
ATOM     15  N   UNL     1       7.536   4.435  24.315  0.00  0.00    -0.231 N 
ATOM     16  C   UNL     1       7.605   3.742  25.494  0.00  0.00    +0.254 C 
ATOM     17  O   UNL     1       7.936   4.132  26.595  0.00  0.00    -0.270 OA
ATOM     18  C   UNL     1       7.212   2.364  25.189  0.00  0.00    +0.049 A 
ATOM     19  C   UNL     1       7.099   1.256  26.009  0.00  0.00    +0.014 A 
ATOM     20  C   UNL     1       6.705   0.055  25.408  0.00  0.00    +0.001 A 
ATOM     21  C   UNL     1       6.442  -0.011  24.023  0.00  0.00    +0.001 A 
ATOM     22  C   UNL     1       6.568   1.123  23.217  0.00  0.00    +0.014 A 
ATOM     23  C   UNL     1       6.958   2.295  23.833  0.00  0.00    +0.049 A 
ATOM     24  C   UNL     1       7.191   3.624  23.271  0.00  0.00    +0.254 C 
ATOM     25  O   UNL     1       7.102   3.894  22.088  0.00  0.00    -0.270 OA
ENDBRANCH  14  15
ENDBRANCH   1  14
TORSDOF 6
ENDMDL
MODEL 5
REMARK VINA RESULT:      -5.7      4.454      6.147
REMARK  Name = 
REMARK  6 active torsions:
REMARK  status: ('A' for Active; 'I' for Inactive)
REMARK    1  A    between atoms: C_5  and  N_6
REMARK    2  A    between atoms: N_6  and  C_7
REMARK    3  A    between atoms: C_7  and  O_9
REMARK    4  A    between atoms: O_9  and  C_10
REMARK    5  A    between atoms: C_10  and  C_11
REMARK    6  A    between atoms: C_11  and  N_12
REMARK                            x       y       z     vdW  Elec       q    Type
REMARK                         _______ _______ _______ _____ _____    ______ ____
ROOT
ATOM      1  C   UNL     1       9.678   0.361  24.962  0.00  0.00    +0.250 C 
ENDROOT
BRANCH   1   2
ATOM      2  O   UNL     1       8.330   0.382  25.505  0.00  0.00    -0.472 OA
BRANCH   2   3
ATOM      3  C   UNL     1       7.949  -0.258  26.640  0.00  0.00    +0.232 C 
ATOM      4  S   UNL     1       7.133   0.464  27.896  0.00  0.00    +0.006 S 
BRANCH   3   5
ATOM      5  N   UNL     1       8.362  -1.559  26.759  0.00  0.00    -0.279 N 
ATOM      6  H   UNL     1       9.321  -1.651  27.070  0.00  0.00    +0.156 HD
BRANCH   5  11
ATOM      7 CL   UNL     1       5.133  -6.461  25.928  0.00  0.00    -0.084 Cl
ATOM      8  C   UNL     1       6.084  -5.048  26.174  0.00  0.00    +0.041 A 
ATOM      9  C   UNL     1       5.497  -3.790  26.077  0.00  0.00    +0.022 A 
ATOM     10  C   UNL     1       6.274  -2.645  26.282  0.00  0.00    +0.025 A 
ATOM     11  C   UNL     1       7.632  -2.753  26.612  0.00  0.00    +0.034 A 
ATOM     12  C   UNL     1       8.212  -4.022  26.687  0.00  0.00    +0.025 A 
ATOM     13  C   UNL     1       7.441  -5.168  26.464  0.00  0.00    +0.022 A 
ENDBRANCH   5  11
ENDBRANCH   3   5
ENDBRANCH   2   3
ENDBRANCH   1   2
BRANCH   1  14
ATOM     14  C   UNL     1       9.694  -0.044  23.484  0.00  0.00    +0.158 C 
BRANCH  14  15
ATOM     15  N   UNL     1       8.815  -1.165  23.208  0.00  0.00    -0.231 N 
ATOM     16  C   UNL     1       7.500  -1.048  22.844  0.00  0.00    +0.254 C 
ATOM     17  O   UNL     1       6.837  -0.045  22.677  0.00  0.00    -0.270 OA
ATOM     18  C   UNL     1       6.987  -2.412  22.701  0.00  0.00    +0.049 A 
ATOM     19  C   UNL     1       5.731  -2.870  22.342  0.00  0.00    +0.014 A 
ATOM     20  C   UNL     1       5.545  -4.257  22.307  0.00  0.00    +0.001 A 
ATOM     21  C   UNL     1       6.598  -5.140  22.627  0.00  0.00    +0.001 A 
ATOM     22  C   UNL     1       7.856  -4.650  22.990  0.00  0.00    +0.014 A 
ATOM     23  C   UNL     1       8.015  -3.278  23.019  0.00  0.00    +0.049 A 
ATOM     24  C   UNL     1       9.182  -2.472  23.368  0.00  0.00    +0.254 C 
ATOM     25  O   UNL     1      10.245  -2.929  23.744  0.00  0.00    -0.270 OA
ENDBRANCH  14  15
ENDBRANCH   1  14
TORSDOF 6
ENDMDL
MODEL 6
REMARK VINA RESULT:      -5.7      3.943      5.888
REMARK  Name = 
REMARK  6 active torsions:
REMARK  status: ('A' for Active; 'I' for Inactive)
REMARK    1  A    between atoms: C_5  and  N_6
REMARK    2  A    between atoms: N_6  and  C_7
REMARK    3  A    between atoms: C_7  and  O_9
REMARK    4  A    between atoms: O_9  and  C_10
REMARK    5  A    between atoms: C_10  and  C_11
REMARK    6  A    between atoms: C_11  and  N_12
REMARK                            x       y       z     vdW  Elec       q    Type
REMARK                         _______ _______ _______ _____ _____    ______ ____
ROOT
ATOM      1  C   UNL     1       9.409   1.365  24.376  0.00  0.00    +0.250 C 
ENDROOT
BRANCH   1   2
ATOM      2  O   UNL     1       8.521   0.941  23.305  0.00  0.00    -0.472 OA
BRANCH   2   3
ATOM      3  C   UNL     1       7.168   1.039  23.346  0.00  0.00    +0.232 C 
ATOM      4  S   UNL     1       6.293   2.251  22.616  0.00  0.00    +0.006 S 
BRANCH   3   5
ATOM      5  N   UNL     1       6.525   0.113  24.122  0.00  0.00    -0.279 N 
ATOM      6  H   UNL     1       6.232   0.474  25.022  0.00  0.00    +0.156 HD
BRANCH   5  11
ATOM      7 CL   UNL     1       4.626  -5.383  22.967  0.00  0.00    -0.084 Cl
ATOM      8  C   UNL     1       5.187  -3.788  23.287  0.00  0.00    +0.041 A 
ATOM      9  C   UNL     1       4.856  -3.163  24.486  0.00  0.00    +0.022 A 
ATOM     10  C   UNL     1       5.318  -1.868  24.744  0.00  0.00    +0.025 A 
ATOM     11  C   UNL     1       6.134  -1.205  23.817  0.00  0.00    +0.034 A 
ATOM     12  C   UNL     1       6.443  -1.836  22.610  0.00  0.00    +0.025 A 
ATOM     13  C   UNL     1       5.966  -3.125  22.343  0.00  0.00    +0.022 A 
ENDBRANCH   5  11
ENDBRANCH   3   5
ENDBRANCH   2   3
ENDBRANCH   1   2
BRANCH   1  14
ATOM     14  C   UNL     1      10.398   0.263  24.769  0.00  0.00    +0.158 C 
BRANCH  14  15
ATOM     15  N   UNL     1       9.748  -1.017  24.975  0.00  0.00    -0.231 N 
ATOM     16  C   UNL     1       9.069  -1.368  26.112  0.00  0.00    +0.254 C 
ATOM     17  O   UNL     1       8.872  -0.719  27.118  0.00  0.00    -0.270 OA
ATOM     18  C   UNL     1       8.609  -2.745  25.912  0.00  0.00    +0.049 A 
ATOM     19  C   UNL     1       7.872  -3.577  26.735  0.00  0.00    +0.014 A 
ATOM     20  C   UNL     1       7.598  -4.864  26.259  0.00  0.00    +0.001 A 
ATOM     21  C   UNL     1       8.061  -5.284  24.994  0.00  0.00    +0.001 A 
ATOM     22  C   UNL     1       8.807  -4.424  24.184  0.00  0.00    +0.014 A 
ATOM     23  C   UNL     1       9.066  -3.160  24.676  0.00  0.00    +0.049 A 
ATOM     24  C   UNL     1       9.818  -2.054  24.088  0.00  0.00    +0.254 C 
ATOM     25  O   UNL     1      10.395  -2.109  23.018  0.00  0.00    -0.270 OA
ENDBRANCH  14  15
ENDBRANCH   1  14
TORSDOF 6
ENDMDL
MODEL 7
REMARK VINA RESULT:      -5.6      5.185      7.237
REMARK  Name = 
REMARK  6 active torsions:
REMARK  status: ('A' for Active; 'I' for Inactive)
REMARK    1  A    between atoms: C_5  and  N_6
REMARK    2  A    between atoms: N_6  and  C_7
REMARK    3  A    between atoms: C_7  and  O_9
REMARK    4  A    between atoms: O_9  and  C_10
REMARK    5  A    between atoms: C_10  and  C_11
REMARK    6  A    between atoms: C_11  and  N_12
REMARK                            x       y       z     vdW  Elec       q    Type
REMARK                         _______ _______ _______ _____ _____    ______ ____
ROOT
ATOM      1  C   UNL     1       8.900  -0.850  25.934  0.00  0.00    +0.250 C 
ENDROOT
BRANCH   1   2
ATOM      2  O   UNL     1       7.568  -0.268  25.976  0.00  0.00    -0.472 OA
BRANCH   2   3
ATOM      3  C   UNL     1       6.525  -0.788  26.672  0.00  0.00    +0.232 C 
ATOM      4  S   UNL     1       5.217   0.094  27.200  0.00  0.00    +0.006 S 
BRANCH   3   5
ATOM      5  N   UNL     1       6.637  -2.108  27.020  0.00  0.00    -0.279 N 
ATOM      6  H   UNL     1       7.137  -2.255  27.888  0.00  0.00    +0.156 HD
BRANCH   5  11
ATOM      7 CL   UNL     1       4.369  -7.069  24.701  0.00  0.00    -0.084 Cl
ATOM      8  C   UNL     1       5.016  -5.620  25.364  0.00  0.00    +0.041 A 
ATOM      9  C   UNL     1       6.131  -5.673  26.195  0.00  0.00    +0.022 A 
ATOM     10  C   UNL     1       6.656  -4.491  26.728  0.00  0.00    +0.025 A 
ATOM     11  C   UNL     1       6.085  -3.251  26.411  0.00  0.00    +0.034 A 
ATOM     12  C   UNL     1       4.955  -3.213  25.592  0.00  0.00    +0.025 A 
ATOM     13  C   UNL     1       4.417  -4.397  25.072  0.00  0.00    +0.022 A 
ENDBRANCH   5  11
ENDBRANCH   3   5
ENDBRANCH   2   3
ENDBRANCH   1   2
BRANCH   1  14
ATOM     14  C   UNL     1       9.353  -1.138  24.499  0.00  0.00    +0.158 C 
BRANCH  14  15
ATOM     15  N   UNL     1       8.598  -2.213  23.885  0.00  0.00    -0.231 N 
ATOM     16  C   UNL     1       8.929  -3.539  23.967  0.00  0.00    +0.254 C 
ATOM     17  O   UNL     1       9.860  -4.063  24.543  0.00  0.00    -0.270 OA
ATOM     18  C   UNL     1       7.928  -4.266  23.181  0.00  0.00    +0.049 A 
ATOM     19  C   UNL     1       7.783  -5.620  22.938  0.00  0.00    +0.014 A 
ATOM     20  C   UNL     1       6.714  -6.010  22.123  0.00  0.00    +0.001 A 
ATOM     21  C   UNL     1       5.832  -5.054  21.576  0.00  0.00    +0.001 A 
ATOM     22  C   UNL     1       6.005  -3.692  21.834  0.00  0.00    +0.014 A 
ATOM     23  C   UNL     1       7.066  -3.332  22.641  0.00  0.00    +0.049 A 
ATOM     24  C   UNL     1       7.515  -2.011  23.076  0.00  0.00    +0.254 C 
ATOM     25  O   UNL     1       6.998  -0.964  22.734  0.00  0.00    -0.270 OA
ENDBRANCH  14  15
ENDBRANCH   1  14
TORSDOF 6
ENDMDL
MODEL 8
REMARK VINA RESULT:      -5.6      5.076      6.695
REMARK  Name = 
REMARK  6 active torsions:
REMARK  status: ('A' for Active; 'I' for Inactive)
REMARK    1  A    between atoms: C_5  and  N_6
REMARK    2  A    between atoms: N_6  and  C_7
REMARK    3  A    between atoms: C_7  and  O_9
REMARK    4  A    between atoms: O_9  and  C_10
REMARK    5  A    between atoms: C_10  and  C_11
REMARK    6  A    between atoms: C_11  and  N_12
REMARK                            x       y       z     vdW  Elec       q    Type
REMARK                         _______ _______ _______ _____ _____    ______ ____
ROOT
ATOM      1  C   UNL     1       8.505  -0.462  25.222  0.00  0.00    +0.250 C 
ENDROOT
BRANCH   1   2
ATOM      2  O   UNL     1       9.537  -1.124  24.441  0.00  0.00    -0.472 OA
BRANCH   2   3
ATOM      3  C   UNL     1       9.344  -1.655  23.207  0.00  0.00    +0.232 C 
ATOM      4  S   UNL     1       9.442  -0.793  21.788  0.00  0.00    +0.006 S 
BRANCH   3   5
ATOM      5  N   UNL     1       8.957  -2.969  23.176  0.00  0.00    -0.279 N 
ATOM      6  H   UNL     1       9.723  -3.618  23.305  0.00  0.00    +0.156 HD
BRANCH   5  11
ATOM      7 CL   UNL     1       3.621  -5.544  22.986  0.00  0.00    -0.084 Cl
ATOM      8  C   UNL     1       5.162  -4.780  23.040  0.00  0.00    +0.041 A 
ATOM      9  C   UNL     1       6.320  -5.550  22.997  0.00  0.00    +0.022 A 
ATOM     10  C   UNL     1       7.571  -4.924  23.037  0.00  0.00    +0.025 A 
ATOM     11  C   UNL     1       7.668  -3.527  23.092  0.00  0.00    +0.034 A 
ATOM     12  C   UNL     1       6.497  -2.768  23.154  0.00  0.00    +0.025 A 
ATOM     13  C   UNL     1       5.245  -3.393  23.133  0.00  0.00    +0.022 A 
ENDBRANCH   5  11
ENDBRANCH   3   5
ENDBRANCH   2   3
ENDBRANCH   1   2
BRANCH   1  14
ATOM     14  C   UNL     1       8.379  -1.058  26.628  0.00  0.00    +0.158 C 
BRANCH  14  15
ATOM     15  N   UNL     1       7.506  -2.216  26.662  0.00  0.00    -0.231 N 
ATOM     16  C   UNL     1       7.931  -3.511  26.536  0.00  0.00    +0.254 C 
ATOM     17  O   UNL     1       9.057  -3.938  26.386  0.00  0.00    -0.270 OA
ATOM     18  C   UNL     1       6.730  -4.349  26.590  0.00  0.00    +0.049 A 
ATOM     19  C   UNL     1       6.585  -5.723  26.521  0.00  0.00    +0.014 A 
ATOM     20  C   UNL     1       5.283  -6.231  26.592  0.00  0.00    +0.001 A 
ATOM     21  C   UNL     1       4.174  -5.369  26.724  0.00  0.00    +0.001 A 
ATOM     22  C   UNL     1       4.348  -3.984  26.787  0.00  0.00    +0.014 A 
ATOM     23  C   UNL     1       5.642  -3.507  26.715  0.00  0.00    +0.049 A 
ATOM     24  C   UNL     1       6.143  -2.135  26.737  0.00  0.00    +0.254 C 
ATOM     25  O   UNL     1       5.436  -1.146  26.789  0.00  0.00    -0.270 OA
ENDBRANCH  14  15
ENDBRANCH   1  14
TORSDOF 6
ENDMDL
MODEL 9
REMARK VINA RESULT:      -5.5      4.186      5.741
REMARK  Name = 
REMARK  6 active torsions:
REMARK  status: ('A' for Active; 'I' for Inactive)
REMARK    1  A    between atoms: C_5  and  N_6
REMARK    2  A    between atoms: N_6  and  C_7
REMARK    3  A    between atoms: C_7  and  O_9
REMARK    4  A    between atoms: O_9  and  C_10
REMARK    5  A    between atoms: C_10  and  C_11
REMARK    6  A    between atoms: C_11  and  N_12
REMARK                            x       y       z     vdW  Elec       q    Type
REMARK                         _______ _______ _______ _____ _____    ______ ____
ROOT
ATOM      1  C   UNL     1       7.607  -3.584  26.297  0.00  0.00    +0.250 C 
ENDROOT
BRANCH   1   2
ATOM      2  O   UNL     1       7.200  -4.378  25.149  0.00  0.00    -0.472 OA
BRANCH   2   3
ATOM      3  C   UNL     1       7.771  -4.299  23.920  0.00  0.00    +0.232 C 
ATOM      4  S   UNL     1       7.196  -5.077  22.567  0.00  0.00    +0.006 S 
BRANCH   3   5
ATOM      5  N   UNL     1       8.945  -3.597  23.850  0.00  0.00    -0.279 N 
ATOM      6  H   UNL     1       9.756  -4.139  24.123  0.00  0.00    +0.156 HD
BRANCH   5  11
ATOM      7 CL   UNL     1      10.246   1.865  21.951  0.00  0.00    -0.084 Cl
ATOM      8  C   UNL     1       9.857   0.277  22.488  0.00  0.00    +0.041 A 
ATOM      9  C   UNL     1      10.304  -0.164  23.730  0.00  0.00    +0.022 A 
ATOM     10  C   UNL     1       9.982  -1.455  24.164  0.00  0.00    +0.025 A 
ATOM     11  C   UNL     1       9.191  -2.297  23.371  0.00  0.00    +0.034 A 
ATOM     12  C   UNL     1       8.765  -1.848  22.119  0.00  0.00    +0.025 A 
ATOM     13  C   UNL     1       9.102  -0.564  21.675  0.00  0.00    +0.022 A 
ENDBRANCH   5  11
ENDBRANCH   3   5
ENDBRANCH   2   3
ENDBRANCH   1   2
BRANCH   1  14
ATOM     14  C   UNL     1       6.531  -2.572  26.704  0.00  0.00    +0.158 C 
BRANCH  14  15
ATOM     15  N   UNL     1       6.690  -1.295  26.037  0.00  0.00    -0.231 N 
ATOM     16  C   UNL     1       6.164  -0.990  24.810  0.00  0.00    +0.254 C 
ATOM     17  O   UNL     1       5.487  -1.678  24.073  0.00  0.00    -0.270 OA
ATOM     18  C   UNL     1       6.594   0.377  24.502  0.00  0.00    +0.049 A 
ATOM     19  C   UNL     1       6.338   1.176  23.402  0.00  0.00    +0.014 A 
ATOM     20  C   UNL     1       6.911   2.453  23.395  0.00  0.00    +0.001 A 
ATOM     21  C   UNL     1       7.715   2.894  24.468  0.00  0.00    +0.001 A 
ATOM     22  C   UNL     1       7.960   2.064  25.566  0.00  0.00    +0.014 A 
ATOM     23  C   UNL     1       7.385   0.809  25.549  0.00  0.00    +0.049 A 
ATOM     24  C   UNL     1       7.464  -0.278  26.522  0.00  0.00    +0.254 C 
ATOM     25  O   UNL     1       8.126  -0.239  27.542  0.00  0.00    -0.270 OA
ENDBRANCH  14  15
ENDBRANCH   1  14
TORSDOF 6
ENDMDL
