MODEL 1
REMARK VINA RESULT:      -5.9      0.000      0.000
REMARK  Name = 
REMARK  6 active torsions:
REMARK  status: ('A' for Active; 'I' for Inactive)
REMARK    1  A    between atoms: N_1  and  CA_2
REMARK    2  A    between atoms: CA_2  and  C_4
REMARK    3  A    between atoms: CA_2  and  C_16
REMARK    4  A    between atoms: C_4  and  O_6
REMARK    5  A    between atoms: C_4  and  C_7
REMARK    6  A    between atoms: C_16  and  O_17
REMARK                            x       y       z     vdW  Elec       q    Type
REMARK                         _______ _______ _______ _____ _____    ______ ____
ROOT
ATOM      1  C   UNL     1       8.757  -3.442  24.572  0.00  0.00    +0.174 C 
ENDROOT
BRANCH   1   2
ATOM      2  C   UNL     1       9.020  -1.969  24.713  0.00  0.00    +0.008 A 
ATOM      3  C   UNL     1       9.279  -1.024  23.660  0.00  0.00    +0.005 A 
ATOM      4  C   UNL     1       9.516   0.216  24.260  0.00  0.00    +0.047 A 
ATOM      5  C   UNL     1       9.833   1.369  23.529  0.00  0.00    +0.026 A 
ATOM      6  C   UNL     1       9.914   1.257  22.140  0.00  0.00    +0.002 A 
ATOM      7  C   UNL     1       9.681   0.037  21.509  0.00  0.00    +0.001 A 
ATOM      8  N   UNL     1       9.380   0.043  25.616  0.00  0.00    -0.360 N 
ATOM      9  H   UNL     1       9.514   0.772  26.304  0.00  0.00    +0.165 HD
ATOM     10  C   UNL     1       9.360  -1.103  22.255  0.00  0.00    +0.010 A 
ATOM     11  C   UNL     1       9.066  -1.255  25.900  0.00  0.00    +0.089 A 
ENDBRANCH   1   2
BRANCH   1  12
ATOM     12  O   UNL     1       7.373  -3.711  24.290  0.00  0.00    -0.385 OA
ATOM     13  H   UNL     1       7.018  -4.261  25.003  0.00  0.00    +0.210 HD
ENDBRANCH   1  12
BRANCH   1  14
ATOM     14  CA  UNL     1       9.216  -4.296  25.781  0.00  0.00    +0.194 C 
BRANCH  14  15
ATOM     15  N   UNL     1       9.969  -5.543  25.351  0.00  0.00    -0.316 NA
ATOM     16  H1  UNL     1      10.770  -5.252  24.785  0.00  0.00    +0.119 HD
ATOM     17  H2  UNL     1      10.379  -5.961  26.193  0.00  0.00    +0.119 HD
ENDBRANCH  14  15
BRANCH  14  18
ATOM     18  C   UNL     1       8.035  -4.735  26.672  0.00  0.00    +0.325 C 
ATOM     19  OXT UNL     1       7.137  -4.031  27.100  0.00  0.00    -0.249 OA
BRANCH  18  20
ATOM     20  O   UNL     1       8.153  -6.050  27.020  0.00  0.00    -0.479 OA
ATOM     21  H   UNL     1       8.391  -6.055  27.979  0.00  0.00    +0.295 HD
ENDBRANCH  18  20
ENDBRANCH  14  18
ENDBRANCH   1  14
TORSDOF 6
ENDMDL
MODEL 2
REMARK VINA RESULT:      -5.7      1.720      1.808
REMARK  Name = 
REMARK  6 active torsions:
REMARK  status: ('A' for Active; 'I' for Inactive)
REMARK    1  A    between atoms: N_1  and  CA_2
REMARK    2  A    between atoms: CA_2  and  C_4
REMARK    3  A    between atoms: CA_2  and  C_16
REMARK    4  A    between atoms: C_4  and  O_6
REMARK    5  A    between atoms: C_4  and  C_7
REMARK    6  A    between atoms: C_16  and  O_17
REMARK                            x       y       z     vdW  Elec       q    Type
REMARK                         _______ _______ _______ _____ _____    ______ ____
ROOT
ATOM      1  C   UNL     1       8.210  -4.098  23.879  0.00  0.00    +0.174 C 
ENDROOT
BRANCH   1   2
ATOM      2  C   UNL     1       7.624  -2.738  23.624  0.00  0.00    +0.008 A 
ATOM      3  C   UNL     1       8.232  -1.647  22.909  0.00  0.00    +0.005 A 
ATOM      4  C   UNL     1       7.347  -0.566  22.968  0.00  0.00    +0.047 A 
ATOM      5  C   UNL     1       7.629   0.682  22.397  0.00  0.00    +0.026 A 
ATOM      6  C   UNL     1       8.854   0.837  21.745  0.00  0.00    +0.002 A 
ATOM      7  C   UNL     1       9.757  -0.220  21.664  0.00  0.00    +0.001 A 
ATOM      8  N   UNL     1       6.239  -0.985  23.663  0.00  0.00    -0.360 N 
ATOM      9  H   UNL     1       5.440  -0.403  23.876  0.00  0.00    +0.165 HD
ATOM     10  C   UNL     1       9.456  -1.462  22.236  0.00  0.00    +0.010 A 
ATOM     11  C   UNL     1       6.384  -2.288  24.046  0.00  0.00    +0.089 A 
ENDBRANCH   1   2
BRANCH   1  12
ATOM     12  O   UNL     1       7.195  -5.117  23.912  0.00  0.00    -0.385 OA
ATOM     13  H   UNL     1       6.992  -5.314  24.837  0.00  0.00    +0.210 HD
ENDBRANCH   1  12
BRANCH   1  14
ATOM     14  CA  UNL     1       9.082  -4.194  25.156  0.00  0.00    +0.194 C 
BRANCH  14  15
ATOM     15  N   UNL     1      10.235  -5.170  24.993  0.00  0.00    -0.316 NA
ATOM     16  H1  UNL     1      10.586  -5.406  25.925  0.00  0.00    +0.119 HD
ATOM     17  H2  UNL     1       9.847  -6.046  24.628  0.00  0.00    +0.119 HD
ENDBRANCH  14  15
BRANCH  14  18
ATOM     18  C   UNL     1       8.267  -4.622  26.395  0.00  0.00    +0.325 C 
ATOM     19  OXT UNL     1       7.662  -3.894  27.162  0.00  0.00    -0.249 OA
BRANCH  18  20
ATOM     20  O   UNL     1       8.369  -5.968  26.600  0.00  0.00    -0.479 OA
ATOM     21  H   UNL     1       7.442  -6.311  26.599  0.00  0.00    +0.295 HD
ENDBRANCH  18  20
ENDBRANCH  14  18
ENDBRANCH   1  14
TORSDOF 6
ENDMDL
MODEL 3
REMARK VINA RESULT:      -5.7      1.919      2.626
REMARK  Name = 
REMARK  6 active torsions:
REMARK  status: ('A' for Active; 'I' for Inactive)
REMARK    1  A    between atoms: N_1  and  CA_2
REMARK    2  A    between atoms: CA_2  and  C_4
REMARK    3  A    between atoms: CA_2  and  C_16
REMARK    4  A    between atoms: C_4  and  O_6
REMARK    5  A    between atoms: C_4  and  C_7
REMARK    6  A    between atoms: C_16  and  O_17
REMARK                            x       y       z     vdW  Elec       q    Type
REMARK                         _______ _______ _______ _____ _____    ______ ____
ROOT
ATOM      1  C   UNL     1       8.350  -2.505  24.319  0.00  0.00    +0.174 C 
ENDROOT
BRANCH   1   2
ATOM      2  C   UNL     1       8.926  -1.559  23.305  0.00  0.00    +0.008 A 
ATOM      3  C   UNL     1       9.239  -0.167  23.489  0.00  0.00    +0.005 A 
ATOM      4  C   UNL     1       9.703   0.323  22.265  0.00  0.00    +0.047 A 
ATOM      5  C   UNL     1      10.075   1.660  22.069  0.00  0.00    +0.026 A 
ATOM      6  C   UNL     1       9.969   2.530  23.155  0.00  0.00    +0.002 A 
ATOM      7  C   UNL     1       9.514   2.075  24.391  0.00  0.00    +0.001 A 
ATOM      8  N   UNL     1       9.700  -0.728  21.380  0.00  0.00    -0.360 N 
ATOM      9  H   UNL     1       9.972  -0.662  20.408  0.00  0.00    +0.165 HD
ATOM     10  C   UNL     1       9.152   0.735  24.569  0.00  0.00    +0.010 A 
ATOM     11  C   UNL     1       9.255  -1.864  21.994  0.00  0.00    +0.089 A 
ENDBRANCH   1   2
BRANCH   1  12
ATOM     12  O   UNL     1       8.973  -2.349  25.606  0.00  0.00    -0.385 OA
ATOM     13  H   UNL     1       8.278  -2.221  26.267  0.00  0.00    +0.210 HD
ENDBRANCH   1  12
BRANCH   1  14
ATOM     14  CA  UNL     1       8.388  -3.997  23.903  0.00  0.00    +0.194 C 
BRANCH  14  15
ATOM     15  N   UNL     1       7.016  -4.520  23.511  0.00  0.00    -0.316 NA
ATOM     16  H1  UNL     1       6.328  -3.791  23.717  0.00  0.00    +0.119 HD
ATOM     17  H2  UNL     1       7.002  -4.614  22.491  0.00  0.00    +0.119 HD
ENDBRANCH  14  15
BRANCH  14  18
ATOM     18  C   UNL     1       8.943  -4.906  25.020  0.00  0.00    +0.325 C 
ATOM     19  OXT UNL     1       8.325  -5.374  25.960  0.00  0.00    -0.249 OA
BRANCH  18  20
ATOM     20  O   UNL     1      10.291  -5.070  24.884  0.00  0.00    -0.479 OA
ATOM     21  H   UNL     1      10.691  -4.720  25.717  0.00  0.00    +0.295 HD
ENDBRANCH  18  20
ENDBRANCH  14  18
ENDBRANCH   1  14
TORSDOF 6
ENDMDL
MODEL 4
REMARK VINA RESULT:      -5.6      1.486      1.773
REMARK  Name = 
REMARK  6 active torsions:
REMARK  status: ('A' for Active; 'I' for Inactive)
REMARK    1  A    between atoms: N_1  and  CA_2
REMARK    2  A    between atoms: CA_2  and  C_4
REMARK    3  A    between atoms: CA_2  and  C_16
REMARK    4  A    between atoms: C_4  and  O_6
REMARK    5  A    between atoms: C_4  and  C_7
REMARK    6  A    between atoms: C_16  and  O_17
REMARK                            x       y       z     vdW  Elec       q    Type
REMARK                         _______ _______ _______ _____ _____    ______ ____
ROOT
ATOM      1  C   UNL     1       9.369  -2.721  23.650  0.00  0.00    +0.174 C 
ENDROOT
BRANCH   1   2
ATOM      2  C   UNL     1       9.334  -1.359  24.283  0.00  0.00    +0.008 A 
ATOM      3  C   UNL     1       9.573  -0.093  23.641  0.00  0.00    +0.005 A 
ATOM      4  C   UNL     1       9.487   0.896  24.625  0.00  0.00    +0.047 A 
ATOM      5  C   UNL     1       9.695   2.257  24.360  0.00  0.00    +0.026 A 
ATOM      6  C   UNL     1      10.003   2.624  23.049  0.00  0.00    +0.002 A 
ATOM      7  C   UNL     1      10.093   1.664  22.043  0.00  0.00    +0.001 A 
ATOM      8  N   UNL     1       9.183   0.267  25.808  0.00  0.00    -0.360 N 
ATOM      9  H   UNL     1       9.077   0.736  26.698  0.00  0.00    +0.165 HD
ATOM     10  C   UNL     1       9.876   0.311  22.325  0.00  0.00    +0.010 A 
ATOM     11  C   UNL     1       9.071  -1.080  25.614  0.00  0.00    +0.089 A 
ENDBRANCH   1   2
BRANCH   1  12
ATOM     12  O   UNL     1       8.534  -2.785  22.481  0.00  0.00    -0.385 OA
ATOM     13  H   UNL     1       9.066  -2.537  21.712  0.00  0.00    +0.210 HD
ENDBRANCH   1  12
BRANCH   1  14
ATOM     14  CA  UNL     1       9.010  -3.885  24.608  0.00  0.00    +0.194 C 
BRANCH  14  15
ATOM     15  N   UNL     1      10.180  -4.829  24.828  0.00  0.00    -0.316 NA
ATOM     16  H1  UNL     1       9.900  -5.761  24.511  0.00  0.00    +0.119 HD
ATOM     17  H2  UNL     1      10.928  -4.547  24.188  0.00  0.00    +0.119 HD
ENDBRANCH  14  15
BRANCH  14  18
ATOM     18  C   UNL     1       7.814  -4.717  24.101  0.00  0.00    +0.325 C 
ATOM     19  OXT UNL     1       6.647  -4.601  24.431  0.00  0.00    -0.249 OA
BRANCH  18  20
ATOM     20  O   UNL     1       8.234  -5.706  23.259  0.00  0.00    -0.479 OA
ATOM     21  H   UNL     1       7.644  -5.657  22.468  0.00  0.00    +0.295 HD
ENDBRANCH  18  20
ENDBRANCH  14  18
ENDBRANCH   1  14
TORSDOF 6
ENDMDL
MODEL 5
REMARK VINA RESULT:      -5.6      2.039      2.369
REMARK  Name = 
REMARK  6 active torsions:
REMARK  status: ('A' for Active; 'I' for Inactive)
REMARK    1  A    between atoms: N_1  and  CA_2
REMARK    2  A    between atoms: CA_2  and  C_4
REMARK    3  A    between atoms: CA_2  and  C_16
REMARK    4  A    between atoms: C_4  and  O_6
REMARK    5  A    between atoms: C_4  and  C_7
REMARK    6  A    between atoms: C_16  and  O_17
REMARK                            x       y       z     vdW  Elec       q    Type
REMARK                         _______ _______ _______ _____ _____    ______ ____
ROOT
ATOM      1  C   UNL     1       9.214  -2.543  24.656  0.00  0.00    +0.174 C 
ENDROOT
BRANCH   1   2
ATOM      2  C   UNL     1       8.287  -1.561  23.998  0.00  0.00    +0.008 A 
ATOM      3  C   UNL     1       8.649  -0.407  23.219  0.00  0.00    +0.005 A 
ATOM      4  C   UNL     1       7.464   0.238  22.853  0.00  0.00    +0.047 A 
ATOM      5  C   UNL     1       7.441   1.424  22.106  0.00  0.00    +0.026 A 
ATOM      6  C   UNL     1       8.664   1.974  21.720  0.00  0.00    +0.002 A 
ATOM      7  C   UNL     1       9.864   1.354  22.064  0.00  0.00    +0.001 A 
ATOM      8  N   UNL     1       6.425  -0.502  23.361  0.00  0.00    -0.360 N 
ATOM      9  H   UNL     1       5.447  -0.261  23.266  0.00  0.00    +0.165 HD
ATOM     10  C   UNL     1       9.868   0.168  22.805  0.00  0.00    +0.010 A 
ATOM     11  C   UNL     1       6.902  -1.591  24.034  0.00  0.00    +0.089 A 
ENDBRANCH   1   2
BRANCH   1  12
ATOM     12  O   UNL     1      10.245  -2.986  23.757  0.00  0.00    -0.385 OA
ATOM     13  H   UNL     1      10.791  -3.639  24.217  0.00  0.00    +0.210 HD
ENDBRANCH   1  12
BRANCH   1  14
ATOM     14  CA  UNL     1       8.509  -3.773  25.282  0.00  0.00    +0.194 C 
BRANCH  14  15
ATOM     15  N   UNL     1       8.796  -3.906  26.768  0.00  0.00    -0.316 NA
ATOM     16  H1  UNL     1       9.251  -4.809  26.925  0.00  0.00    +0.119 HD
ATOM     17  H2  UNL     1       9.507  -3.208  27.008  0.00  0.00    +0.119 HD
ENDBRANCH  14  15
BRANCH  14  18
ATOM     18  C   UNL     1       8.916  -5.096  24.598  0.00  0.00    +0.325 C 
ATOM     19  OXT UNL     1       8.406  -5.599  23.613  0.00  0.00    -0.249 OA
BRANCH  18  20
ATOM     20  O   UNL     1       9.907  -5.719  25.300  0.00  0.00    -0.479 OA
ATOM     21  H   UNL     1       9.462  -6.428  25.824  0.00  0.00    +0.295 HD
ENDBRANCH  18  20
ENDBRANCH  14  18
ENDBRANCH   1  14
TORSDOF 6
ENDMDL
MODEL 6
REMARK VINA RESULT:      -5.6      1.675      2.534
REMARK  Name = 
REMARK  6 active torsions:
REMARK  status: ('A' for Active; 'I' for Inactive)
REMARK    1  A    between atoms: N_1  and  CA_2
REMARK    2  A    between atoms: CA_2  and  C_4
REMARK    3  A    between atoms: CA_2  and  C_16
REMARK    4  A    between atoms: C_4  and  O_6
REMARK    5  A    between atoms: C_4  and  C_7
REMARK    6  A    between atoms: C_16  and  O_17
REMARK                            x       y       z     vdW  Elec       q    Type
REMARK                         _______ _______ _______ _____ _____    ______ ____
ROOT
ATOM      1  C   UNL     1       9.469  -2.724  24.708  0.00  0.00    +0.174 C 
ENDROOT
BRANCH   1   2
ATOM      2  C   UNL     1       9.507  -1.804  23.520  0.00  0.00    +0.008 A 
ATOM      3  C   UNL     1       9.857  -0.409  23.508  0.00  0.00    +0.005 A 
ATOM      4  C   UNL     1       9.702   0.049  22.196  0.00  0.00    +0.047 A 
ATOM      5  C   UNL     1       9.931   1.380  21.821  0.00  0.00    +0.026 A 
ATOM      6  C   UNL     1      10.330   2.276  22.814  0.00  0.00    +0.002 A 
ATOM      7  C   UNL     1      10.498   1.853  24.130  0.00  0.00    +0.001 A 
ATOM      8  N   UNL     1       9.302  -1.023  21.436  0.00  0.00    -0.360 N 
ATOM      9  H   UNL     1       9.096  -0.981  20.447  0.00  0.00    +0.165 HD
ATOM     10  C   UNL     1      10.270   0.519  24.485  0.00  0.00    +0.010 A 
ATOM     11  C   UNL     1       9.198  -2.142  22.212  0.00  0.00    +0.089 A 
ENDBRANCH   1   2
BRANCH   1  12
ATOM     12  O   UNL     1       9.911  -4.050  24.368  0.00  0.00    -0.385 OA
ATOM     13  H   UNL     1      10.030  -4.094  23.408  0.00  0.00    +0.210 HD
ENDBRANCH   1  12
BRANCH   1  14
ATOM     14  CA  UNL     1       8.094  -2.801  25.418  0.00  0.00    +0.194 C 
BRANCH  14  15
ATOM     15  N   UNL     1       7.973  -1.793  26.548  0.00  0.00    -0.316 NA
ATOM     16  H1  UNL     1       8.797  -1.187  26.523  0.00  0.00    +0.119 HD
ATOM     17  H2  UNL     1       7.185  -1.177  26.328  0.00  0.00    +0.119 HD
ENDBRANCH  14  15
BRANCH  14  18
ATOM     18  C   UNL     1       7.810  -4.204  25.997  0.00  0.00    +0.325 C 
ATOM     19  OXT UNL     1       8.238  -4.667  27.040  0.00  0.00    -0.249 OA
BRANCH  18  20
ATOM     20  O   UNL     1       7.055  -4.941  25.131  0.00  0.00    -0.479 OA
ATOM     21  H   UNL     1       6.946  -5.827  25.555  0.00  0.00    +0.295 HD
ENDBRANCH  18  20
ENDBRANCH  14  18
ENDBRANCH   1  14
TORSDOF 6
ENDMDL
MODEL 7
REMARK VINA RESULT:      -5.5      3.468      5.870
REMARK  Name = 
REMARK  6 active torsions:
REMARK  status: ('A' for Active; 'I' for Inactive)
REMARK    1  A    between atoms: N_1  and  CA_2
REMARK    2  A    between atoms: CA_2  and  C_4
REMARK    3  A    between atoms: CA_2  and  C_16
REMARK    4  A    between atoms: C_4  and  O_6
REMARK    5  A    between atoms: C_4  and  C_7
REMARK    6  A    between atoms: C_16  and  O_17
REMARK                            x       y       z     vdW  Elec       q    Type
REMARK                         _______ _______ _______ _____ _____    ______ ____
ROOT
ATOM      1  C   UNL     1       8.781  -0.795  21.977  0.00  0.00    +0.174 C 
ENDROOT
BRANCH   1   2
ATOM      2  C   UNL     1       8.835  -1.999  22.874  0.00  0.00    +0.008 A 
ATOM      3  C   UNL     1       7.863  -3.055  22.977  0.00  0.00    +0.005 A 
ATOM      4  C   UNL     1       8.302  -3.932  23.973  0.00  0.00    +0.047 A 
ATOM      5  C   UNL     1       7.581  -5.068  24.362  0.00  0.00    +0.026 A 
ATOM      6  C   UNL     1       6.368  -5.320  23.718  0.00  0.00    +0.002 A 
ATOM      7  C   UNL     1       5.902  -4.470  22.719  0.00  0.00    +0.001 A 
ATOM      8  N   UNL     1       9.502  -3.450  24.438  0.00  0.00    -0.360 N 
ATOM      9  H   UNL     1      10.044  -3.875  25.178  0.00  0.00    +0.165 HD
ATOM     10  C   UNL     1       6.639  -3.342  22.339  0.00  0.00    +0.010 A 
ATOM     11  C   UNL     1       9.841  -2.304  23.777  0.00  0.00    +0.089 A 
ENDBRANCH   1   2
BRANCH   1  12
ATOM     12  O   UNL     1       9.931  -0.721  21.117  0.00  0.00    -0.385 OA
ATOM     13  H   UNL     1       9.776  -1.293  20.352  0.00  0.00    +0.210 HD
ENDBRANCH   1  12
BRANCH   1  14
ATOM     14  CA  UNL     1       8.600   0.553  22.720  0.00  0.00    +0.194 C 
BRANCH  14  15
ATOM     15  N   UNL     1       7.495   1.400  22.113  0.00  0.00    -0.316 NA
ATOM     16  H1  UNL     1       7.448   1.193  21.112  0.00  0.00    +0.119 HD
ATOM     17  H2  UNL     1       6.604   1.062  22.493  0.00  0.00    +0.119 HD
ENDBRANCH  14  15
BRANCH  14  18
ATOM     18  C   UNL     1       9.894   1.395  22.733  0.00  0.00    +0.325 C 
ATOM     19  OXT UNL     1      10.680   1.517  23.656  0.00  0.00    -0.249 OA
BRANCH  18  20
ATOM     20  O   UNL     1      10.029   2.092  21.568  0.00  0.00    -0.479 OA
ATOM     21  H   UNL     1      10.978   2.366  21.526  0.00  0.00    +0.295 HD
ENDBRANCH  18  20
ENDBRANCH  14  18
ENDBRANCH   1  14
TORSDOF 6
ENDMDL
MODEL 8
REMARK VINA RESULT:      -5.4      4.112      5.515
REMARK  Name = 
REMARK  6 active torsions:
REMARK  status: ('A' for Active; 'I' for Inactive)
REMARK    1  A    between atoms: N_1  and  CA_2
REMARK    2  A    between atoms: CA_2  and  C_4
REMARK    3  A    between atoms: CA_2  and  C_16
REMARK    4  A    between atoms: C_4  and  O_6
REMARK    5  A    between atoms: C_4  and  C_7
REMARK    6  A    between atoms: C_16  and  O_17
REMARK                            x       y       z     vdW  Elec       q    Type
REMARK                         _______ _______ _______ _____ _____    ______ ____
ROOT
ATOM      1  C   UNL     1       9.686   0.864  23.895  0.00  0.00    +0.174 C 
ENDROOT
BRANCH   1   2
ATOM      2  C   UNL     1       9.296   2.299  24.110  0.00  0.00    +0.008 A 
ATOM      3  C   UNL     1      10.110   3.465  23.894  0.00  0.00    +0.005 A 
ATOM      4  C   UNL     1       9.355   4.578  24.274  0.00  0.00    +0.047 A 
ATOM      5  C   UNL     1       9.847   5.889  24.224  0.00  0.00    +0.026 A 
ATOM      6  C   UNL     1      11.156   6.075  23.774  0.00  0.00    +0.002 A 
ATOM      7  C   UNL     1      11.936   4.988  23.383  0.00  0.00    +0.001 A 
ATOM      8  N   UNL     1       8.125   4.115  24.677  0.00  0.00    -0.360 N 
ATOM      9  H   UNL     1       7.377   4.700  25.024  0.00  0.00    +0.165 HD
ATOM     10  C   UNL     1      11.425   3.687  23.435  0.00  0.00    +0.010 A 
ATOM     11  C   UNL     1       8.071   2.755  24.568  0.00  0.00    +0.089 A 
ENDBRANCH   1   2
BRANCH   1  12
ATOM     12  O   UNL     1      10.725   0.453  24.801  0.00  0.00    -0.385 OA
ATOM     13  H   UNL     1      10.350   0.401  25.691  0.00  0.00    +0.210 HD
ENDBRANCH   1  12
BRANCH   1  14
ATOM     14  CA  UNL     1      10.100   0.520  22.442  0.00  0.00    +0.194 C 
BRANCH  14  15
ATOM     15  N   UNL     1       9.248   1.246  21.414  0.00  0.00    -0.316 NA
ATOM     16  H1  UNL     1       8.565   0.581  21.041  0.00  0.00    +0.119 HD
ATOM     17  H2  UNL     1       8.689   1.944  21.916  0.00  0.00    +0.119 HD
ENDBRANCH  14  15
BRANCH  14  18
ATOM     18  C   UNL     1      10.015  -0.993  22.148  0.00  0.00    +0.325 C 
ATOM     19  OXT UNL     1      10.472  -1.898  22.825  0.00  0.00    -0.249 OA
BRANCH  18  20
ATOM     20  O   UNL     1       9.414  -1.220  20.944  0.00  0.00    -0.479 OA
ATOM     21  H   UNL     1       9.977  -1.889  20.484  0.00  0.00    +0.295 HD
ENDBRANCH  18  20
ENDBRANCH  14  18
ENDBRANCH   1  14
TORSDOF 6
ENDMDL
MODEL 9
REMARK VINA RESULT:      -5.3      2.333      3.775
REMARK  Name = 
REMARK  6 active torsions:
REMARK  status: ('A' for Active; 'I' for Inactive)
REMARK    1  A    between atoms: N_1  and  CA_2
REMARK    2  A    between atoms: CA_2  and  C_4
REMARK    3  A    between atoms: CA_2  and  C_16
REMARK    4  A    between atoms: C_4  and  O_6
REMARK    5  A    between atoms: C_4  and  C_7
REMARK    6  A    between atoms: C_16  and  O_17
REMARK                            x       y       z     vdW  Elec       q    Type
REMARK                         _______ _______ _______ _____ _____    ______ ____
ROOT
ATOM      1  C   UNL     1       9.969  -1.004  23.447  0.00  0.00    +0.174 C 
ENDROOT
BRANCH   1   2
ATOM      2  C   UNL     1       9.431   0.208  22.741  0.00  0.00    +0.008 A 
ATOM      3  C   UNL     1       8.980   1.437  23.339  0.00  0.00    +0.005 A 
ATOM      4  C   UNL     1       8.518   2.258  22.307  0.00  0.00    +0.047 A 
ATOM      5  C   UNL     1       7.976   3.531  22.529  0.00  0.00    +0.026 A 
ATOM      6  C   UNL     1       7.899   3.984  23.847  0.00  0.00    +0.002 A 
ATOM      7  C   UNL     1       8.354   3.194  24.900  0.00  0.00    +0.001 A 
ATOM      8  N   UNL     1       8.703   1.574  21.130  0.00  0.00    -0.360 N 
ATOM      9  H   UNL     1       8.441   1.920  20.216  0.00  0.00    +0.165 HD
ATOM     10  C   UNL     1       8.898   1.927  24.658  0.00  0.00    +0.010 A 
ATOM     11  C   UNL     1       9.264   0.353  21.374  0.00  0.00    +0.089 A 
ENDBRANCH   1   2
BRANCH   1  12
ATOM     12  O   UNL     1      10.638  -1.896  22.538  0.00  0.00    -0.385 OA
ATOM     13  H   UNL     1      10.873  -2.702  23.020  0.00  0.00    +0.210 HD
ENDBRANCH   1  12
BRANCH   1  14
ATOM     14  CA  UNL     1       8.916  -1.793  24.266  0.00  0.00    +0.194 C 
BRANCH  14  15
ATOM     15  N   UNL     1       9.042  -1.542  25.759  0.00  0.00    -0.316 NA
ATOM     16  H1  UNL     1       9.588  -0.686  25.892  0.00  0.00    +0.119 HD
ATOM     17  H2  UNL     1       8.107  -1.315  26.113  0.00  0.00    +0.119 HD
ENDBRANCH  14  15
BRANCH  14  18
ATOM     18  C   UNL     1       9.006  -3.315  24.029  0.00  0.00    +0.325 C 
ATOM     19  OXT UNL     1       9.823  -4.084  24.505  0.00  0.00    -0.249 OA
BRANCH  18  20
ATOM     20  O   UNL     1       8.076  -3.719  23.115  0.00  0.00    -0.479 OA
ATOM     21  H   UNL     1       7.365  -3.033  23.133  0.00  0.00    +0.295 HD
ENDBRANCH  18  20
ENDBRANCH  14  18
ENDBRANCH   1  14
TORSDOF 6
ENDMDL
