MODEL 1
REMARK VINA RESULT:      -7.4      0.000      0.000
REMARK  Name = 
REMARK  10 active torsions:
REMARK  status: ('A' for Active; 'I' for Inactive)
REMARK    1  A    between atoms: C_1  and  N_2
REMARK    2  A    between atoms: C_3  and  C_5
REMARK    3  A    between atoms: C_6  and  C_23
REMARK    4  A    between atoms: C_10  and  N_11
REMARK    5  A    between atoms: N_11  and  S_12
REMARK    6  A    between atoms: S_12  and  C_13
REMARK    7  A    between atoms: C_16  and  O_17
REMARK    8  A    between atoms: O_17  and  C_18
REMARK    9  A    between atoms: C_18  and  C_19
REMARK   10  A    between atoms: C_18  and  C_20
REMARK                            x       y       z     vdW  Elec       q    Type
REMARK                         _______ _______ _______ _____ _____    ______ ____
ROOT
ATOM      1  C   UNL     1       7.804   0.952  23.159  0.00  0.00    +0.090 A 
ATOM      2  C   UNL     1       7.803  -0.471  23.276  0.00  0.00    +0.037 A 
ATOM      3  C   UNL     1       8.985  -0.853  23.895  0.00  0.00    +0.138 A 
ATOM      4  C   UNL     1       9.289  -2.198  24.238  0.00  0.00    +0.075 A 
ATOM      5  C   UNL     1       8.322  -3.195  23.946  0.00  0.00    +0.093 A 
ATOM      6  C   UNL     1       7.134  -2.802  23.291  0.00  0.00    +0.144 A 
ATOM      7  O   UNL     1       9.733   0.275  24.143  0.00  0.00    -0.454 OA
ATOM      8  C   UNL     1       6.877  -1.465  22.970  0.00  0.00    +0.060 A 
ATOM      9  C   UNL     1       9.017   1.367  23.690  0.00  0.00    +0.148 A 
ENDROOT
BRANCH   9  10
ATOM     10  C   UNL     1       9.648   2.688  23.808  0.00  0.00    +0.018 A 
ATOM     11  C   UNL     1      10.955   2.890  23.318  0.00  0.00    +0.014 A 
ATOM     12  C   UNL     1      11.559   4.150  23.348  0.00  0.00    +0.039 A 
ATOM     13  C   UNL     1      10.861   5.222  23.881  0.00  0.00    +0.123 A 
ATOM     14  F   UNL     1      11.435   6.433  23.911  0.00  0.00    -0.205 F 
ATOM     15  C   UNL     1       9.575   5.054  24.382  0.00  0.00    +0.039 A 
ATOM     16  C   UNL     1       8.968   3.788  24.346  0.00  0.00    +0.014 A 
ENDBRANCH   9  10
BRANCH   1  20
ATOM     17  C   UNL     1       4.539   2.790  23.186  0.00  0.00    +0.128 C 
ATOM     18  N   UNL     1       5.675   1.966  23.509  0.00  0.00    -0.314 N 
ATOM     19  H   UNL     1       5.627   1.386  24.336  0.00  0.00    +0.149 HD
ATOM     20  C   UNL     1       6.741   1.813  22.648  0.00  0.00    +0.248 C 
ATOM     21  O   UNL     1       6.783   2.350  21.546  0.00  0.00    -0.270 OA
ENDBRANCH   1  20
BRANCH   5  22
ATOM     22  N   UNL     1       8.382  -4.499  24.607  0.00  0.00    -0.217 N 
ATOM     23  H   UNL     1       7.906  -5.212  24.047  0.00  0.00    +0.173 HD
BRANCH  22  24
ATOM     24  S   UNL     1       7.961  -4.721  26.226  0.00  0.00    +0.040 S 
ATOM     25  O   UNL     1       9.175  -4.477  26.981  0.00  0.00    -0.155 OA
ATOM     26  O   UNL     1       7.208  -5.941  26.366  0.00  0.00    -0.155 OA
ATOM     27  C   UNL     1       6.852  -3.339  26.574  0.00  0.00    +0.218 C 
ENDBRANCH  22  24
ENDBRANCH   5  22
BRANCH   6  28
ATOM     28  O   UNL     1       6.034  -3.537  22.947  0.00  0.00    -0.487 OA
BRANCH  28  29
ATOM     29  C   UNL     1       6.180  -4.931  22.759  0.00  0.00    +0.167 C 
ATOM     30  C   UNL     1       6.244  -5.166  21.254  0.00  0.00    +0.051 C 
ATOM     31  C   UNL     1       4.949  -5.554  23.407  0.00  0.00    +0.051 C 
ENDBRANCH  28  29
ENDBRANCH   6  28
TORSDOF 6
ENDMDL
MODEL 2
REMARK VINA RESULT:      -7.3      3.371      5.724
REMARK  Name = 
REMARK  10 active torsions:
REMARK  status: ('A' for Active; 'I' for Inactive)
REMARK    1  A    between atoms: C_1  and  N_2
REMARK    2  A    between atoms: C_3  and  C_5
REMARK    3  A    between atoms: C_6  and  C_23
REMARK    4  A    between atoms: C_10  and  N_11
REMARK    5  A    between atoms: N_11  and  S_12
REMARK    6  A    between atoms: S_12  and  C_13
REMARK    7  A    between atoms: C_16  and  O_17
REMARK    8  A    between atoms: O_17  and  C_18
REMARK    9  A    between atoms: C_18  and  C_19
REMARK   10  A    between atoms: C_18  and  C_20
REMARK                            x       y       z     vdW  Elec       q    Type
REMARK                         _______ _______ _______ _____ _____    ______ ____
ROOT
ATOM      1  C   UNL     1       7.154  -3.064  24.646  0.00  0.00    +0.090 A 
ATOM      2  C   UNL     1       6.172  -4.099  24.637  0.00  0.00    +0.037 A 
ATOM      3  C   UNL     1       5.600  -4.138  23.374  0.00  0.00    +0.138 A 
ATOM      4  C   UNL     1       4.629  -5.100  22.983  0.00  0.00    +0.075 A 
ATOM      5  C   UNL     1       4.242  -6.080  23.935  0.00  0.00    +0.093 A 
ATOM      6  C   UNL     1       4.808  -6.016  25.227  0.00  0.00    +0.144 A 
ATOM      7  O   UNL     1       6.170  -3.150  22.605  0.00  0.00    -0.454 OA
ATOM      8  C   UNL     1       5.760  -5.049  25.568  0.00  0.00    +0.060 A 
ATOM      9  C   UNL     1       7.109  -2.496  23.381  0.00  0.00    +0.148 A 
ENDROOT
BRANCH   9  10
ATOM     10  C   UNL     1       7.816  -1.360  22.777  0.00  0.00    +0.018 A 
ATOM     11  C   UNL     1       7.287  -0.058  22.894  0.00  0.00    +0.014 A 
ATOM     12  C   UNL     1       7.969   1.055  22.394  0.00  0.00    +0.039 A 
ATOM     13  C   UNL     1       9.187   0.873  21.760  0.00  0.00    +0.123 A 
ATOM     14  F   UNL     1       9.847   1.937  21.281  0.00  0.00    -0.205 F 
ATOM     15  C   UNL     1       9.731  -0.399  21.619  0.00  0.00    +0.039 A 
ATOM     16  C   UNL     1       9.047  -1.515  22.126  0.00  0.00    +0.014 A 
ENDBRANCH   9  10
BRANCH   1  20
ATOM     17  C   UNL     1       8.815  -0.838  27.162  0.00  0.00    +0.128 C 
ATOM     18  N   UNL     1       8.001  -1.377  26.104  0.00  0.00    -0.314 N 
ATOM     19  H   UNL     1       7.458  -0.735  25.542  0.00  0.00    +0.149 HD
ATOM     20  C   UNL     1       8.069  -2.701  25.726  0.00  0.00    +0.248 C 
ATOM     21  O   UNL     1       8.839  -3.499  26.249  0.00  0.00    -0.270 OA
ENDBRANCH   1  20
BRANCH   5  22
ATOM     22  N   UNL     1       3.571  -7.306  23.503  0.00  0.00    -0.217 N 
ATOM     23  H   UNL     1       3.526  -7.355  22.482  0.00  0.00    +0.173 HD
BRANCH  22  24
ATOM     24  S   UNL     1       2.085  -7.801  24.131  0.00  0.00    +0.040 S 
ATOM     25  O   UNL     1       1.445  -6.592  24.615  0.00  0.00    -0.155 OA
ATOM     26  O   UNL     1       2.277  -8.952  24.974  0.00  0.00    -0.155 OA
ATOM     27  C   UNL     1       1.157  -8.326  22.674  0.00  0.00    +0.218 C 
ENDBRANCH  22  24
ENDBRANCH   5  22
BRANCH   6  28
ATOM     28  O   UNL     1       4.654  -6.851  26.298  0.00  0.00    -0.487 OA
BRANCH  28  29
ATOM     29  C   UNL     1       4.349  -6.289  27.560  0.00  0.00    +0.167 C 
ATOM     30  C   UNL     1       5.229  -6.999  28.581  0.00  0.00    +0.051 C 
ATOM     31  C   UNL     1       2.862  -6.555  27.768  0.00  0.00    +0.051 C 
ENDBRANCH  28  29
ENDBRANCH   6  28
TORSDOF 6
ENDMDL
MODEL 3
REMARK VINA RESULT:      -7.1      2.179      3.182
REMARK  Name = 
REMARK  10 active torsions:
REMARK  status: ('A' for Active; 'I' for Inactive)
REMARK    1  A    between atoms: C_1  and  N_2
REMARK    2  A    between atoms: C_3  and  C_5
REMARK    3  A    between atoms: C_6  and  C_23
REMARK    4  A    between atoms: C_10  and  N_11
REMARK    5  A    between atoms: N_11  and  S_12
REMARK    6  A    between atoms: S_12  and  C_13
REMARK    7  A    between atoms: C_16  and  O_17
REMARK    8  A    between atoms: O_17  and  C_18
REMARK    9  A    between atoms: C_18  and  C_19
REMARK   10  A    between atoms: C_18  and  C_20
REMARK                            x       y       z     vdW  Elec       q    Type
REMARK                         _______ _______ _______ _____ _____    ______ ____
ROOT
ATOM      1  C   UNL     1       7.558   1.389  24.489  0.00  0.00    +0.090 A 
ATOM      2  C   UNL     1       7.200   0.071  24.076  0.00  0.00    +0.037 A 
ATOM      3  C   UNL     1       8.165  -0.378  23.186  0.00  0.00    +0.138 A 
ATOM      4  C   UNL     1       8.165  -1.684  22.625  0.00  0.00    +0.075 A 
ATOM      5  C   UNL     1       7.132  -2.576  23.015  0.00  0.00    +0.093 A 
ATOM      6  C   UNL     1       6.138  -2.102  23.899  0.00  0.00    +0.144 A 
ATOM      7  O   UNL     1       9.096   0.620  23.010  0.00  0.00    -0.454 OA
ATOM      8  C   UNL     1       6.177  -0.807  24.425  0.00  0.00    +0.060 A 
ATOM      9  C   UNL     1       8.722   1.693  23.797  0.00  0.00    +0.148 A 
ENDROOT
BRANCH   9  10
ATOM     10  C   UNL     1       9.550   2.903  23.732  0.00  0.00    +0.018 A 
ATOM     11  C   UNL     1       8.993   4.157  24.055  0.00  0.00    +0.014 A 
ATOM     12  C   UNL     1       9.769   5.319  24.073  0.00  0.00    +0.039 A 
ATOM     13  C   UNL     1      11.115   5.238  23.755  0.00  0.00    +0.123 A 
ATOM     14  F   UNL     1      11.865   6.349  23.773  0.00  0.00    -0.205 F 
ATOM     15  C   UNL     1      11.694   4.018  23.422  0.00  0.00    +0.039 A 
ATOM     16  C   UNL     1      10.913   2.852  23.410  0.00  0.00    +0.014 A 
ENDBRANCH   9  10
BRANCH   1  20
ATOM     17  C   UNL     1       6.900   2.907  27.852  0.00  0.00    +0.128 C 
ATOM     18  N   UNL     1       7.416   2.138  26.749  0.00  0.00    -0.314 N 
ATOM     19  H   UNL     1       8.097   1.417  26.944  0.00  0.00    +0.149 HD
ATOM     20  C   UNL     1       6.892   2.235  25.477  0.00  0.00    +0.248 C 
ATOM     21  O   UNL     1       5.943   2.963  25.206  0.00  0.00    -0.270 OA
ENDBRANCH   1  20
BRANCH   5  22
ATOM     22  N   UNL     1       7.280  -4.017  22.804  0.00  0.00    -0.217 N 
ATOM     23  H   UNL     1       8.260  -4.260  22.635  0.00  0.00    +0.173 HD
BRANCH  22  24
ATOM     24  S   UNL     1       6.317  -4.882  21.721  0.00  0.00    +0.040 S 
ATOM     25  O   UNL     1       7.168  -5.935  21.199  0.00  0.00    -0.155 OA
ATOM     26  O   UNL     1       5.621  -3.965  20.856  0.00  0.00    -0.155 OA
ATOM     27  C   UNL     1       5.096  -5.686  22.780  0.00  0.00    +0.218 C 
ENDBRANCH  22  24
ENDBRANCH   5  22
BRANCH   6  28
ATOM     28  O   UNL     1       5.081  -2.756  24.467  0.00  0.00    -0.487 OA
BRANCH  28  29
ATOM     29  C   UNL     1       5.050  -2.905  25.873  0.00  0.00    +0.167 C 
ATOM     30  C   UNL     1       5.811  -4.185  26.195  0.00  0.00    +0.051 C 
ATOM     31  C   UNL     1       3.571  -2.985  26.235  0.00  0.00    +0.051 C 
ENDBRANCH  28  29
ENDBRANCH   6  28
TORSDOF 6
ENDMDL
MODEL 4
REMARK VINA RESULT:      -6.8      1.357      1.558
REMARK  Name = 
REMARK  10 active torsions:
REMARK  status: ('A' for Active; 'I' for Inactive)
REMARK    1  A    between atoms: C_1  and  N_2
REMARK    2  A    between atoms: C_3  and  C_5
REMARK    3  A    between atoms: C_6  and  C_23
REMARK    4  A    between atoms: C_10  and  N_11
REMARK    5  A    between atoms: N_11  and  S_12
REMARK    6  A    between atoms: S_12  and  C_13
REMARK    7  A    between atoms: C_16  and  O_17
REMARK    8  A    between atoms: O_17  and  C_18
REMARK    9  A    between atoms: C_18  and  C_19
REMARK   10  A    between atoms: C_18  and  C_20
REMARK                            x       y       z     vdW  Elec       q    Type
REMARK                         _______ _______ _______ _____ _____    ______ ____
ROOT
ATOM      1  C   UNL     1       7.335   0.970  23.752  0.00  0.00    +0.090 A 
ATOM      2  C   UNL     1       7.338  -0.453  23.645  0.00  0.00    +0.037 A 
ATOM      3  C   UNL     1       8.656  -0.885  23.670  0.00  0.00    +0.138 A 
ATOM      4  C   UNL     1       9.032  -2.256  23.654  0.00  0.00    +0.075 A 
ATOM      5  C   UNL     1       7.999  -3.229  23.630  0.00  0.00    +0.093 A 
ATOM      6  C   UNL     1       6.660  -2.781  23.577  0.00  0.00    +0.144 A 
ATOM      7  O   UNL     1       9.475   0.217  23.762  0.00  0.00    -0.454 OA
ATOM      8  C   UNL     1       6.337  -1.421  23.592  0.00  0.00    +0.060 A 
ATOM      9  C   UNL     1       8.671   1.341  23.807  0.00  0.00    +0.148 A 
ENDROOT
BRANCH   9  10
ATOM     10  C   UNL     1       9.336   2.648  23.857  0.00  0.00    +0.018 A 
ATOM     11  C   UNL     1      10.656   2.787  23.379  0.00  0.00    +0.014 A 
ATOM     12  C   UNL     1      11.294   4.030  23.345  0.00  0.00    +0.039 A 
ATOM     13  C   UNL     1      10.618   5.150  23.803  0.00  0.00    +0.123 A 
ATOM     14  F   UNL     1      11.224   6.345  23.771  0.00  0.00    -0.205 F 
ATOM     15  C   UNL     1       9.320   5.045  24.291  0.00  0.00    +0.039 A 
ATOM     16  C   UNL     1       8.679   3.797  24.319  0.00  0.00    +0.014 A 
ENDBRANCH   9  10
BRANCH   1  20
ATOM     17  C   UNL     1       4.616   3.241  22.533  0.00  0.00    +0.128 C 
ATOM     18  N   UNL     1       5.748   2.358  22.639  0.00  0.00    -0.314 N 
ATOM     19  H   UNL     1       6.313   2.201  21.815  0.00  0.00    +0.149 HD
ATOM     20  C   UNL     1       6.183   1.862  23.850  0.00  0.00    +0.248 C 
ATOM     21  O   UNL     1       5.650   2.156  24.914  0.00  0.00    -0.270 OA
ENDBRANCH   1  20
BRANCH   5  22
ATOM     22  N   UNL     1       8.279  -4.615  24.006  0.00  0.00    -0.217 N 
ATOM     23  H   UNL     1       7.483  -5.219  23.785  0.00  0.00    +0.173 HD
BRANCH  22  24
ATOM     24  S   UNL     1       8.875  -5.044  25.526  0.00  0.00    +0.040 S 
ATOM     25  O   UNL     1      10.295  -5.270  25.338  0.00  0.00    -0.155 OA
ATOM     26  O   UNL     1       8.016  -6.038  26.117  0.00  0.00    -0.155 OA
ATOM     27  C   UNL     1       8.718  -3.527  26.492  0.00  0.00    +0.218 C 
ENDBRANCH  22  24
ENDBRANCH   5  22
BRANCH   6  28
ATOM     28  O   UNL     1       5.493  -3.492  23.599  0.00  0.00    -0.487 OA
BRANCH  28  29
ATOM     29  C   UNL     1       4.573  -3.255  24.648  0.00  0.00    +0.167 C 
ATOM     30  C   UNL     1       5.203  -3.815  25.918  0.00  0.00    +0.051 C 
ATOM     31  C   UNL     1       3.302  -3.991  24.240  0.00  0.00    +0.051 C 
ENDBRANCH  28  29
ENDBRANCH   6  28
TORSDOF 6
ENDMDL
MODEL 5
REMARK VINA RESULT:      -6.7      4.233      8.206
REMARK  Name = 
REMARK  10 active torsions:
REMARK  status: ('A' for Active; 'I' for Inactive)
REMARK    1  A    between atoms: C_1  and  N_2
REMARK    2  A    between atoms: C_3  and  C_5
REMARK    3  A    between atoms: C_6  and  C_23
REMARK    4  A    between atoms: C_10  and  N_11
REMARK    5  A    between atoms: N_11  and  S_12
REMARK    6  A    between atoms: S_12  and  C_13
REMARK    7  A    between atoms: C_16  and  O_17
REMARK    8  A    between atoms: O_17  and  C_18
REMARK    9  A    between atoms: C_18  and  C_19
REMARK   10  A    between atoms: C_18  and  C_20
REMARK                            x       y       z     vdW  Elec       q    Type
REMARK                         _______ _______ _______ _____ _____    ______ ____
ROOT
ATOM      1  C   UNL     1       7.712   0.145  24.439  0.00  0.00    +0.090 A 
ATOM      2  C   UNL     1       8.538   1.296  24.264  0.00  0.00    +0.037 A 
ATOM      3  C   UNL     1       9.554   0.966  23.379  0.00  0.00    +0.138 A 
ATOM      4  C   UNL     1      10.524   1.897  22.918  0.00  0.00    +0.075 A 
ATOM      5  C   UNL     1      10.431   3.237  23.378  0.00  0.00    +0.093 A 
ATOM      6  C   UNL     1       9.411   3.558  24.300  0.00  0.00    +0.144 A 
ATOM      7  O   UNL     1       9.407  -0.354  23.018  0.00  0.00    -0.454 OA
ATOM      8  C   UNL     1       8.478   2.608  24.728  0.00  0.00    +0.060 A 
ATOM      9  C   UNL     1       8.292  -0.850  23.667  0.00  0.00    +0.148 A 
ENDROOT
BRANCH   9  10
ATOM     10  C   UNL     1       7.967  -2.268  23.467  0.00  0.00    +0.018 A 
ATOM     11  C   UNL     1       7.219  -2.667  22.340  0.00  0.00    +0.014 A 
ATOM     12  C   UNL     1       6.952  -4.014  22.080  0.00  0.00    +0.039 A 
ATOM     13  C   UNL     1       7.425  -4.978  22.955  0.00  0.00    +0.123 A 
ATOM     14  F   UNL     1       7.174  -6.272  22.710  0.00  0.00    -0.205 F 
ATOM     15  C   UNL     1       8.156  -4.617  24.081  0.00  0.00    +0.039 A 
ATOM     16  C   UNL     1       8.427  -3.264  24.337  0.00  0.00    +0.014 A 
ENDBRANCH   9  10
BRANCH   1  20
ATOM     17  C   UNL     1       5.543  -0.711  27.373  0.00  0.00    +0.128 C 
ATOM     18  N   UNL     1       6.642  -0.533  26.460  0.00  0.00    -0.314 N 
ATOM     19  H   UNL     1       7.533  -0.949  26.695  0.00  0.00    +0.149 HD
ATOM     20  C   UNL     1       6.478   0.032  25.213  0.00  0.00    +0.248 C 
ATOM     21  O   UNL     1       5.386   0.400  24.792  0.00  0.00    -0.270 OA
ENDBRANCH   1  20
BRANCH   5  22
ATOM     22  N   UNL     1      11.122   4.312  22.666  0.00  0.00    -0.217 N 
ATOM     23  H   UNL     1      11.367   4.020  21.716  0.00  0.00    +0.173 HD
BRANCH  22  24
ATOM     24  S   UNL     1      12.433   5.146  23.325  0.00  0.00    +0.040 S 
ATOM     25  O   UNL     1      13.308   4.126  23.872  0.00  0.00    -0.155 OA
ATOM     26  O   UNL     1      11.953   6.246  24.122  0.00  0.00    -0.155 OA
ATOM     27  C   UNL     1      13.277   5.829  21.883  0.00  0.00    +0.218 C 
ENDBRANCH  22  24
ENDBRANCH   5  22
BRANCH   6  28
ATOM     28  O   UNL     1       9.069   4.761  24.851  0.00  0.00    -0.487 OA
BRANCH  28  29
ATOM     29  C   UNL     1       7.886   5.399  24.410  0.00  0.00    +0.167 C 
ATOM     30  C   UNL     1       8.280   6.295  23.242  0.00  0.00    +0.051 C 
ATOM     31  C   UNL     1       7.379   6.181  25.617  0.00  0.00    +0.051 C 
ENDBRANCH  28  29
ENDBRANCH   6  28
TORSDOF 6
ENDMDL
MODEL 6
REMARK VINA RESULT:      -6.7      1.977      2.404
REMARK  Name = 
REMARK  10 active torsions:
REMARK  status: ('A' for Active; 'I' for Inactive)
REMARK    1  A    between atoms: C_1  and  N_2
REMARK    2  A    between atoms: C_3  and  C_5
REMARK    3  A    between atoms: C_6  and  C_23
REMARK    4  A    between atoms: C_10  and  N_11
REMARK    5  A    between atoms: N_11  and  S_12
REMARK    6  A    between atoms: S_12  and  C_13
REMARK    7  A    between atoms: C_16  and  O_17
REMARK    8  A    between atoms: O_17  and  C_18
REMARK    9  A    between atoms: C_18  and  C_19
REMARK   10  A    between atoms: C_18  and  C_20
REMARK                            x       y       z     vdW  Elec       q    Type
REMARK                         _______ _______ _______ _____ _____    ______ ____
ROOT
ATOM      1  C   UNL     1       6.248   1.002  24.295  0.00  0.00    +0.090 A 
ATOM      2  C   UNL     1       6.426  -0.406  24.136  0.00  0.00    +0.037 A 
ATOM      3  C   UNL     1       7.662  -0.619  23.542  0.00  0.00    +0.138 A 
ATOM      4  C   UNL     1       8.200  -1.912  23.298  0.00  0.00    +0.075 A 
ATOM      5  C   UNL     1       7.437  -3.038  23.703  0.00  0.00    +0.093 A 
ATOM      6  C   UNL     1       6.169  -2.813  24.282  0.00  0.00    +0.144 A 
ATOM      7  O   UNL     1       8.248   0.603  23.302  0.00  0.00    -0.454 OA
ATOM      8  C   UNL     1       5.677  -1.522  24.501  0.00  0.00    +0.060 A 
ATOM      9  C   UNL     1       7.386   1.584  23.754  0.00  0.00    +0.148 A 
ENDROOT
BRANCH   9  10
ATOM     10  C   UNL     1       7.786   2.982  23.555  0.00  0.00    +0.018 A 
ATOM     11  C   UNL     1       7.149   3.763  22.568  0.00  0.00    +0.014 A 
ATOM     12  C   UNL     1       7.454   5.117  22.400  0.00  0.00    +0.039 A 
ATOM     13  C   UNL     1       8.411   5.701  23.213  0.00  0.00    +0.123 A 
ATOM     14  F   UNL     1       8.705   7.000  23.058  0.00  0.00    -0.205 F 
ATOM     15  C   UNL     1       9.064   4.956  24.189  0.00  0.00    +0.039 A 
ATOM     16  C   UNL     1       8.753   3.598  24.360  0.00  0.00    +0.014 A 
ENDBRANCH   9  10
BRANCH   1  20
ATOM     17  C   UNL     1       4.237   2.403  27.130  0.00  0.00    +0.128 C 
ATOM     18  N   UNL     1       5.227   1.743  26.319  0.00  0.00    -0.314 N 
ATOM     19  H   UNL     1       5.935   1.189  26.782  0.00  0.00    +0.149 HD
ATOM     20  C   UNL     1       5.142   1.701  24.943  0.00  0.00    +0.248 C 
ATOM     21  O   UNL     1       4.210   2.202  24.323  0.00  0.00    -0.270 OA
ENDBRANCH   1  20
BRANCH   5  22
ATOM     22  N   UNL     1       8.073  -4.348  23.849  0.00  0.00    -0.217 N 
ATOM     23  H   UNL     1       7.490  -5.082  23.440  0.00  0.00    +0.173 HD
BRANCH  22  24
ATOM     24  S   UNL     1       8.682  -4.905  25.322  0.00  0.00    +0.040 S 
ATOM     25  O   UNL     1      10.071  -5.238  25.067  0.00  0.00    -0.155 OA
ATOM     26  O   UNL     1       7.763  -5.854  25.896  0.00  0.00    -0.155 OA
ATOM     27  C   UNL     1       8.689  -3.434  26.368  0.00  0.00    +0.218 C 
ENDBRANCH  22  24
ENDBRANCH   5  22
BRANCH   6  28
ATOM     28  O   UNL     1       5.267  -3.700  24.799  0.00  0.00    -0.487 OA
BRANCH  28  29
ATOM     29  C   UNL     1       4.249  -4.203  23.956  0.00  0.00    +0.167 C 
ATOM     30  C   UNL     1       2.952  -4.148  24.755  0.00  0.00    +0.051 C 
ATOM     31  C   UNL     1       4.677  -5.626  23.616  0.00  0.00    +0.051 C 
ENDBRANCH  28  29
ENDBRANCH   6  28
TORSDOF 6
ENDMDL
MODEL 7
REMARK VINA RESULT:      -6.7      4.409      8.530
REMARK  Name = 
REMARK  10 active torsions:
REMARK  status: ('A' for Active; 'I' for Inactive)
REMARK    1  A    between atoms: C_1  and  N_2
REMARK    2  A    between atoms: C_3  and  C_5
REMARK    3  A    between atoms: C_6  and  C_23
REMARK    4  A    between atoms: C_10  and  N_11
REMARK    5  A    between atoms: N_11  and  S_12
REMARK    6  A    between atoms: S_12  and  C_13
REMARK    7  A    between atoms: C_16  and  O_17
REMARK    8  A    between atoms: O_17  and  C_18
REMARK    9  A    between atoms: C_18  and  C_19
REMARK   10  A    between atoms: C_18  and  C_20
REMARK                            x       y       z     vdW  Elec       q    Type
REMARK                         _______ _______ _______ _____ _____    ______ ____
ROOT
ATOM      1  C   UNL     1       5.667  -3.071  23.724  0.00  0.00    +0.090 A 
ATOM      2  C   UNL     1       6.153  -1.797  24.148  0.00  0.00    +0.037 A 
ATOM      3  C   UNL     1       5.704  -1.574  25.442  0.00  0.00    +0.138 A 
ATOM      4  C   UNL     1       6.059  -0.430  26.207  0.00  0.00    +0.075 A 
ATOM      5  C   UNL     1       6.933   0.520  25.618  0.00  0.00    +0.093 A 
ATOM      6  C   UNL     1       7.363   0.300  24.291  0.00  0.00    +0.144 A 
ATOM      7  O   UNL     1       4.935  -2.648  25.829  0.00  0.00    -0.454 OA
ATOM      8  C   UNL     1       6.987  -0.841  23.574  0.00  0.00    +0.060 A 
ATOM      9  C   UNL     1       4.910  -3.551  24.783  0.00  0.00    +0.148 A 
ENDROOT
BRANCH   9  10
ATOM     10  C   UNL     1       4.102  -4.764  24.955  0.00  0.00    +0.018 A 
ATOM     11  C   UNL     1       2.757  -4.782  24.529  0.00  0.00    +0.014 A 
ATOM     12  C   UNL     1       1.980  -5.940  24.611  0.00  0.00    +0.039 A 
ATOM     13  C   UNL     1       2.540  -7.095  25.132  0.00  0.00    +0.123 A 
ATOM     14  F   UNL     1       1.800  -8.210  25.211  0.00  0.00    -0.205 F 
ATOM     15  C   UNL     1       3.859  -7.109  25.570  0.00  0.00    +0.039 A 
ATOM     16  C   UNL     1       4.640  -5.945  25.482  0.00  0.00    +0.014 A 
ENDBRANCH   9  10
BRANCH   1  20
ATOM     17  C   UNL     1       7.109  -5.711  21.489  0.00  0.00    +0.128 C 
ATOM     18  N   UNL     1       6.740  -4.886  22.611  0.00  0.00    -0.314 N 
ATOM     19  H   UNL     1       7.183  -5.063  23.503  0.00  0.00    +0.149 HD
ATOM     20  C   UNL     1       5.945  -3.768  22.471  0.00  0.00    +0.248 C 
ATOM     21  O   UNL     1       5.518  -3.392  21.385  0.00  0.00    -0.270 OA
ENDBRANCH   1  20
BRANCH   5  22
ATOM     22  N   UNL     1       7.643   1.489  26.453  0.00  0.00    -0.217 N 
ATOM     23  H   UNL     1       7.670   1.178  27.427  0.00  0.00    +0.173 HD
BRANCH  22  24
ATOM     24  S   UNL     1       7.297   3.141  26.427  0.00  0.00    +0.040 S 
ATOM     25  O   UNL     1       8.152   3.701  25.397  0.00  0.00    -0.155 OA
ATOM     26  O   UNL     1       7.289   3.653  27.773  0.00  0.00    -0.155 OA
ATOM     27  C   UNL     1       5.609   3.216  25.792  0.00  0.00    +0.218 C 
ENDBRANCH  22  24
ENDBRANCH   5  22
BRANCH   6  28
ATOM     28  O   UNL     1       8.233   1.015  23.517  0.00  0.00    -0.487 OA
BRANCH  28  29
ATOM     29  C   UNL     1       9.487   0.443  23.198  0.00  0.00    +0.167 C 
ATOM     30  C   UNL     1      10.455   0.869  24.295  0.00  0.00    +0.051 C 
ATOM     31  C   UNL     1       9.850   1.011  21.831  0.00  0.00    +0.051 C 
ENDBRANCH  28  29
ENDBRANCH   6  28
TORSDOF 6
ENDMDL
MODEL 8
REMARK VINA RESULT:      -6.5      3.937      8.545
REMARK  Name = 
REMARK  10 active torsions:
REMARK  status: ('A' for Active; 'I' for Inactive)
REMARK    1  A    between atoms: C_1  and  N_2
REMARK    2  A    between atoms: C_3  and  C_5
REMARK    3  A    between atoms: C_6  and  C_23
REMARK    4  A    between atoms: C_10  and  N_11
REMARK    5  A    between atoms: N_11  and  S_12
REMARK    6  A    between atoms: S_12  and  C_13
REMARK    7  A    between atoms: C_16  and  O_17
REMARK    8  A    between atoms: O_17  and  C_18
REMARK    9  A    between atoms: C_18  and  C_19
REMARK   10  A    between atoms: C_18  and  C_20
REMARK                            x       y       z     vdW  Elec       q    Type
REMARK                         _______ _______ _______ _____ _____    ______ ____
ROOT
ATOM      1  C   UNL     1       7.733  -2.455  24.454  0.00  0.00    +0.090 A 
ATOM      2  C   UNL     1       7.738  -1.034  24.322  0.00  0.00    +0.037 A 
ATOM      3  C   UNL     1       6.421  -0.597  24.321  0.00  0.00    +0.138 A 
ATOM      4  C   UNL     1       6.052   0.775  24.277  0.00  0.00    +0.075 A 
ATOM      5  C   UNL     1       7.089   1.743  24.251  0.00  0.00    +0.093 A 
ATOM      6  C   UNL     1       8.427   1.289  24.225  0.00  0.00    +0.144 A 
ATOM      7  O   UNL     1       5.596  -1.694  24.420  0.00  0.00    -0.454 OA
ATOM      8  C   UNL     1       8.744  -0.072  24.268  0.00  0.00    +0.060 A 
ATOM      9  C   UNL     1       6.395  -2.820  24.495  0.00  0.00    +0.148 A 
ENDROOT
BRANCH   9  10
ATOM     10  C   UNL     1       5.723  -4.124  24.558  0.00  0.00    +0.018 A 
ATOM     11  C   UNL     1       5.620  -4.921  23.399  0.00  0.00    +0.014 A 
ATOM     12  C   UNL     1       5.052  -6.197  23.438  0.00  0.00    +0.039 A 
ATOM     13  C   UNL     1       4.570  -6.686  24.641  0.00  0.00    +0.123 A 
ATOM     14  F   UNL     1       4.026  -7.910  24.685  0.00  0.00    -0.205 F 
ATOM     15  C   UNL     1       4.647  -5.922  25.800  0.00  0.00    +0.039 A 
ATOM     16  C   UNL     1       5.222  -4.642  25.760  0.00  0.00    +0.014 A 
ENDBRANCH   9  10
BRANCH   1  20
ATOM     17  C   UNL     1       9.835  -5.179  25.938  0.00  0.00    +0.128 C 
ATOM     18  N   UNL     1       8.806  -4.212  25.657  0.00  0.00    -0.314 N 
ATOM     19  H   UNL     1       8.073  -4.080  26.341  0.00  0.00    +0.149 HD
ATOM     20  C   UNL     1       8.879  -3.351  24.583  0.00  0.00    +0.248 C 
ATOM     21  O   UNL     1       9.832  -3.337  23.811  0.00  0.00    -0.270 OA
ENDBRANCH   1  20
BRANCH   5  22
ATOM     22  N   UNL     1       6.809   3.136  24.599  0.00  0.00    -0.217 N 
ATOM     23  H   UNL     1       6.108   3.191  25.343  0.00  0.00    +0.173 HD
BRANCH  22  24
ATOM     24  S   UNL     1       6.453   4.311  23.440  0.00  0.00    +0.040 S 
ATOM     25  O   UNL     1       6.719   3.686  22.158  0.00  0.00    -0.155 OA
ATOM     26  O   UNL     1       7.059   5.561  23.818  0.00  0.00    -0.155 OA
ATOM     27  C   UNL     1       4.662   4.502  23.558  0.00  0.00    +0.218 C 
ENDBRANCH  22  24
ENDBRANCH   5  22
BRANCH   6  28
ATOM     28  O   UNL     1       9.596   1.995  24.252  0.00  0.00    -0.487 OA
BRANCH  28  29
ATOM     29  C   UNL     1       9.945   2.776  23.124  0.00  0.00    +0.167 C 
ATOM     30  C   UNL     1      10.112   1.810  21.957  0.00  0.00    +0.051 C 
ATOM     31  C   UNL     1      11.243   3.476  23.508  0.00  0.00    +0.051 C 
ENDBRANCH  28  29
ENDBRANCH   6  28
TORSDOF 6
ENDMDL
MODEL 9
REMARK VINA RESULT:      -6.4      2.464      3.203
REMARK  Name = 
REMARK  10 active torsions:
REMARK  status: ('A' for Active; 'I' for Inactive)
REMARK    1  A    between atoms: C_1  and  N_2
REMARK    2  A    between atoms: C_3  and  C_5
REMARK    3  A    between atoms: C_6  and  C_23
REMARK    4  A    between atoms: C_10  and  N_11
REMARK    5  A    between atoms: N_11  and  S_12
REMARK    6  A    between atoms: S_12  and  C_13
REMARK    7  A    between atoms: C_16  and  O_17
REMARK    8  A    between atoms: O_17  and  C_18
REMARK    9  A    between atoms: C_18  and  C_19
REMARK   10  A    between atoms: C_18  and  C_20
REMARK                            x       y       z     vdW  Elec       q    Type
REMARK                         _______ _______ _______ _____ _____    ______ ____
ROOT
ATOM      1  C   UNL     1       7.673  -0.417  24.411  0.00  0.00    +0.090 A 
ATOM      2  C   UNL     1       7.696  -1.802  24.757  0.00  0.00    +0.037 A 
ATOM      3  C   UNL     1       7.617  -1.902  26.139  0.00  0.00    +0.138 A 
ATOM      4  C   UNL     1       7.543  -3.140  26.831  0.00  0.00    +0.075 A 
ATOM      5  C   UNL     1       7.531  -4.333  26.062  0.00  0.00    +0.093 A 
ATOM      6  C   UNL     1       7.639  -4.224  24.658  0.00  0.00    +0.144 A 
ATOM      7  O   UNL     1       7.573  -0.631  26.666  0.00  0.00    -0.454 OA
ATOM      8  C   UNL     1       7.712  -2.983  24.019  0.00  0.00    +0.060 A 
ATOM      9  C   UNL     1       7.613   0.267  25.617  0.00  0.00    +0.148 A 
ENDROOT
BRANCH   9  10
ATOM     10  C   UNL     1       7.626   1.697  25.948  0.00  0.00    +0.018 A 
ATOM     11  C   UNL     1       8.313   2.606  25.117  0.00  0.00    +0.014 A 
ATOM     12  C   UNL     1       8.286   3.982  25.362  0.00  0.00    +0.039 A 
ATOM     13  C   UNL     1       7.578   4.462  26.451  0.00  0.00    +0.123 A 
ATOM     14  F   UNL     1       7.547   5.781  26.689  0.00  0.00    -0.205 F 
ATOM     15  C   UNL     1       6.898   3.591  27.296  0.00  0.00    +0.039 A 
ATOM     16  C   UNL     1       6.922   2.210  27.045  0.00  0.00    +0.014 A 
ENDBRANCH   9  10
BRANCH   1  20
ATOM     17  C   UNL     1       9.051   0.708  21.113  0.00  0.00    +0.128 C 
ATOM     18  N   UNL     1       8.877   0.179  22.441  0.00  0.00    -0.314 N 
ATOM     19  H   UNL     1       9.701  -0.080  22.966  0.00  0.00    +0.149 HD
ATOM     20  C   UNL     1       7.653   0.176  23.076  0.00  0.00    +0.248 C 
ATOM     21  O   UNL     1       6.641   0.640  22.563  0.00  0.00    -0.270 OA
ENDBRANCH   1  20
BRANCH   5  22
ATOM     22  N   UNL     1       7.068  -5.589  26.653  0.00  0.00    -0.217 N 
ATOM     23  H   UNL     1       7.308  -6.383  26.053  0.00  0.00    +0.173 HD
BRANCH  22  24
ATOM     24  S   UNL     1       5.492  -5.803  27.220  0.00  0.00    +0.040 S 
ATOM     25  O   UNL     1       5.199  -7.211  27.032  0.00  0.00    -0.155 OA
ATOM     26  O   UNL     1       4.643  -4.769  26.686  0.00  0.00    -0.155 OA
ATOM     27  C   UNL     1       5.638  -5.541  29.000  0.00  0.00    +0.218 C 
ENDBRANCH  22  24
ENDBRANCH   5  22
BRANCH   6  28
ATOM     28  O   UNL     1       7.599  -5.193  23.694  0.00  0.00    -0.487 OA
BRANCH  28  29
ATOM     29  C   UNL     1       6.521  -5.195  22.778  0.00  0.00    +0.167 C 
ATOM     30  C   UNL     1       5.408  -6.020  23.414  0.00  0.00    +0.051 C 
ATOM     31  C   UNL     1       7.077  -5.826  21.507  0.00  0.00    +0.051 C 
ENDBRANCH  28  29
ENDBRANCH   6  28
TORSDOF 6
ENDMDL
