MODEL 1
REMARK VINA RESULT:      -5.6      0.000      0.000
REMARK  Name = 
REMARK  14 active torsions:
REMARK  status: ('A' for Active; 'I' for Inactive)
REMARK    1  A    between atoms: C_1  and  O_2
REMARK    2  A    between atoms: O_2  and  C_3
REMARK    3  A    between atoms: C_4  and  O_5
REMARK    4  A    between atoms: O_5  and  C_6
REMARK    5  A    between atoms: C_8  and  C_9
REMARK    6  A    between atoms: C_9  and  C_10
REMARK    7  A    between atoms: C_10  and  N_11
REMARK    8  A    between atoms: N_11  and  C_12
REMARK    9  A    between atoms: C_12  and  C_13
REMARK   10  A    between atoms: C_13  and  O_14
REMARK   11  A    between atoms: C_13  and  C_15
REMARK   12  A    between atoms: C_15  and  O_16
REMARK   13  A    between atoms: O_16  and  C_17
REMARK   14  A    between atoms: C_21  and  C_22
REMARK                            x       y       z     vdW  Elec       q    Type
REMARK                         _______ _______ _______ _____ _____    ______ ____
ROOT
ATOM      1  N   UNL     1       9.732   1.885  21.577  0.00  0.00    -0.313 NA
ATOM      2  H   UNL     1       8.944   2.425  21.220  0.00  0.00    +0.122 HD
ENDROOT
BRANCH   1   3
ATOM      3  C   UNL     1       9.342   0.468  21.598  0.00  0.00    +0.085 C 
BRANCH   3   4
ATOM      4  C   UNL     1      10.060  -0.346  22.685  0.00  0.00    +0.050 C 
BRANCH   4   8
ATOM      5  C   UNL     1       8.005  -4.052  23.439  0.00  0.00    +0.161 A 
ATOM      6  C   UNL     1       7.495  -3.130  22.517  0.00  0.00    +0.049 A 
ATOM      7  C   UNL     1       8.169  -1.941  22.266  0.00  0.00    +0.007 A 
ATOM      8  C   UNL     1       9.362  -1.654  22.933  0.00  0.00    -0.042 A 
ATOM      9  C   UNL     1       9.869  -2.570  23.862  0.00  0.00    +0.053 A 
ATOM     10  C   UNL     1       9.197  -3.763  24.133  0.00  0.00    +0.162 A 
BRANCH   5  12
ATOM     11  C   UNL     1       6.096  -5.103  24.367  0.00  0.00    +0.277 C 
ATOM     12  O   UNL     1       7.371  -5.231  23.746  0.00  0.00    -0.491 OA
ENDBRANCH   5  12
BRANCH  10  13
ATOM     13  O   UNL     1       9.619  -4.694  25.050  0.00  0.00    -0.491 OA
ATOM     14  C   UNL     1       9.188  -4.528  26.395  0.00  0.00    +0.277 C 
ENDBRANCH  10  13
ENDBRANCH   4   8
ENDBRANCH   3   4
ENDBRANCH   1   3
BRANCH   1  15
ATOM     15  C   UNL     1      10.131   2.363  22.914  0.00  0.00    +0.115 C 
BRANCH  15  16
ATOM     16  C   UNL     1       9.221   3.496  23.420  0.00  0.00    +0.166 C 
BRANCH  16  17
ATOM     17  O   UNL     1       8.487   4.035  22.313  0.00  0.00    -0.387 OA
ATOM     18  H   UNL     1       7.716   4.490  22.701  0.00  0.00    +0.210 HD
ENDBRANCH  16  17
BRANCH  16  19
ATOM     19  C   UNL     1       8.264   2.992  24.508  0.00  0.00    +0.261 C 
BRANCH  19  20
ATOM     20  O   UNL     1       7.276   2.155  23.913  0.00  0.00    -0.489 OA
BRANCH  20  21
ATOM     21  C   UNL     1       7.032   0.971  24.552  0.00  0.00    +0.121 A 
ATOM     22  C   UNL     1       8.005   0.610  25.484  0.00  0.00    +0.049 A 
ATOM     23  C   UNL     1       7.900  -0.581  26.209  0.00  0.00    -0.047 A 
ATOM     24  C   UNL     1       8.965  -0.939  27.200  0.00  0.00    +0.044 C 
ATOM     25  C   UNL     1       6.804  -1.420  25.982  0.00  0.00    +0.003 A 
ATOM     26  C   UNL     1       5.829  -1.066  25.050  0.00  0.00    +0.004 A 
ATOM     27  C   UNL     1       5.941   0.130  24.335  0.00  0.00    +0.045 A 
ENDBRANCH  20  21
ENDBRANCH  19  20
ENDBRANCH  16  19
ENDBRANCH  15  16
ENDBRANCH   1  15
TORSDOF 11
ENDMDL
MODEL 2
REMARK VINA RESULT:      -5.6      0.993      2.322
REMARK  Name = 
REMARK  14 active torsions:
REMARK  status: ('A' for Active; 'I' for Inactive)
REMARK    1  A    between atoms: C_1  and  O_2
REMARK    2  A    between atoms: O_2  and  C_3
REMARK    3  A    between atoms: C_4  and  O_5
REMARK    4  A    between atoms: O_5  and  C_6
REMARK    5  A    between atoms: C_8  and  C_9
REMARK    6  A    between atoms: C_9  and  C_10
REMARK    7  A    between atoms: C_10  and  N_11
REMARK    8  A    between atoms: N_11  and  C_12
REMARK    9  A    between atoms: C_12  and  C_13
REMARK   10  A    between atoms: C_13  and  O_14
REMARK   11  A    between atoms: C_13  and  C_15
REMARK   12  A    between atoms: C_15  and  O_16
REMARK   13  A    between atoms: O_16  and  C_17
REMARK   14  A    between atoms: C_21  and  C_22
REMARK                            x       y       z     vdW  Elec       q    Type
REMARK                         _______ _______ _______ _____ _____    ______ ____
ROOT
ATOM      1  N   UNL     1       9.098   1.461  21.283  0.00  0.00    -0.313 NA
ATOM      2  H   UNL     1       8.218   1.943  21.462  0.00  0.00    +0.122 HD
ENDROOT
BRANCH   1   3
ATOM      3  C   UNL     1       8.839   0.015  21.298  0.00  0.00    +0.085 C 
BRANCH   3   4
ATOM      4  C   UNL     1       9.915  -0.790  22.043  0.00  0.00    +0.050 C 
BRANCH   4   8
ATOM      5  C   UNL     1       8.243  -4.187  24.090  0.00  0.00    +0.161 A 
ATOM      6  C   UNL     1       9.455  -3.628  24.512  0.00  0.00    +0.049 A 
ATOM      7  C   UNL     1       9.985  -2.522  23.857  0.00  0.00    +0.007 A 
ATOM      8  C   UNL     1       9.312  -1.959  22.770  0.00  0.00    -0.042 A 
ATOM      9  C   UNL     1       8.104  -2.522  22.340  0.00  0.00    +0.053 A 
ATOM     10  C   UNL     1       7.567  -3.639  22.981  0.00  0.00    +0.162 A 
BRANCH   5  12
ATOM     11  C   UNL     1       7.778  -5.347  26.101  0.00  0.00    +0.277 C 
ATOM     12  O   UNL     1       7.684  -5.294  24.682  0.00  0.00    -0.491 OA
ENDBRANCH   5  12
BRANCH  10  13
ATOM     13  O   UNL     1       6.404  -4.261  22.598  0.00  0.00    -0.491 OA
ATOM     14  C   UNL     1       6.399  -4.921  21.339  0.00  0.00    +0.277 C 
ENDBRANCH  10  13
ENDBRANCH   4   8
ENDBRANCH   3   4
ENDBRANCH   1   3
BRANCH   1  15
ATOM     15  C   UNL     1      10.117   1.845  22.278  0.00  0.00    +0.115 C 
BRANCH  15  16
ATOM     16  C   UNL     1       9.628   2.976  23.202  0.00  0.00    +0.166 C 
BRANCH  16  17
ATOM     17  O   UNL     1       8.664   3.769  22.498  0.00  0.00    -0.387 OA
ATOM     18  H   UNL     1       7.966   3.149  22.213  0.00  0.00    +0.210 HD
ENDBRANCH  16  17
BRANCH  16  19
ATOM     19  C   UNL     1       9.023   2.412  24.494  0.00  0.00    +0.261 C 
BRANCH  19  20
ATOM     20  O   UNL     1       7.925   1.565  24.167  0.00  0.00    -0.489 OA
BRANCH  20  21
ATOM     21  C   UNL     1       7.737   0.487  24.987  0.00  0.00    +0.121 A 
ATOM     22  C   UNL     1       6.578  -0.243  24.720  0.00  0.00    +0.049 A 
ATOM     23  C   UNL     1       6.244  -1.365  25.483  0.00  0.00    -0.047 A 
ATOM     24  C   UNL     1       4.990  -2.124  25.170  0.00  0.00    +0.044 C 
ATOM     25  C   UNL     1       7.085  -1.748  26.533  0.00  0.00    +0.003 A 
ATOM     26  C   UNL     1       8.243  -1.021  26.807  0.00  0.00    +0.004 A 
ATOM     27  C   UNL     1       8.571   0.096  26.034  0.00  0.00    +0.045 A 
ENDBRANCH  20  21
ENDBRANCH  19  20
ENDBRANCH  16  19
ENDBRANCH  15  16
ENDBRANCH   1  15
TORSDOF 11
ENDMDL
MODEL 3
REMARK VINA RESULT:      -5.5      2.846      6.822
REMARK  Name = 
REMARK  14 active torsions:
REMARK  status: ('A' for Active; 'I' for Inactive)
REMARK    1  A    between atoms: C_1  and  O_2
REMARK    2  A    between atoms: O_2  and  C_3
REMARK    3  A    between atoms: C_4  and  O_5
REMARK    4  A    between atoms: O_5  and  C_6
REMARK    5  A    between atoms: C_8  and  C_9
REMARK    6  A    between atoms: C_9  and  C_10
REMARK    7  A    between atoms: C_10  and  N_11
REMARK    8  A    between atoms: N_11  and  C_12
REMARK    9  A    between atoms: C_12  and  C_13
REMARK   10  A    between atoms: C_13  and  O_14
REMARK   11  A    between atoms: C_13  and  C_15
REMARK   12  A    between atoms: C_15  and  O_16
REMARK   13  A    between atoms: O_16  and  C_17
REMARK   14  A    between atoms: C_21  and  C_22
REMARK                            x       y       z     vdW  Elec       q    Type
REMARK                         _______ _______ _______ _____ _____    ______ ____
ROOT
ATOM      1  N   UNL     1       7.929  -5.786  27.202  0.00  0.00    -0.313 NA
ATOM      2  H   UNL     1       8.080  -5.883  28.206  0.00  0.00    +0.122 HD
ENDROOT
BRANCH   1   3
ATOM      3  C   UNL     1       8.999  -4.938  26.659  0.00  0.00    +0.085 C 
BRANCH   3   4
ATOM      4  C   UNL     1       8.692  -4.394  25.255  0.00  0.00    +0.050 C 
BRANCH   4   8
ATOM      5  C   UNL     1       9.449  -0.166  24.987  0.00  0.00    +0.161 A 
ATOM      6  C   UNL     1       8.805  -0.704  26.108  0.00  0.00    +0.049 A 
ATOM      7  C   UNL     1       8.576  -2.072  26.197  0.00  0.00    +0.007 A 
ATOM      8  C   UNL     1       8.985  -2.922  25.167  0.00  0.00    -0.042 A 
ATOM      9  C   UNL     1       9.620  -2.386  24.041  0.00  0.00    +0.053 A 
ATOM     10  C   UNL     1       9.847  -1.013  23.934  0.00  0.00    +0.162 A 
BRANCH   5  12
ATOM     11  C   UNL     1       8.536   1.974  24.544  0.00  0.00    +0.277 C 
ATOM     12  O   UNL     1       9.682   1.179  24.833  0.00  0.00    -0.491 OA
ENDBRANCH   5  12
BRANCH  10  13
ATOM     13  O   UNL     1      10.439  -0.413  22.849  0.00  0.00    -0.491 OA
ATOM     14  C   UNL     1       9.694  -0.372  21.638  0.00  0.00    +0.277 C 
ENDBRANCH  10  13
ENDBRANCH   4   8
ENDBRANCH   3   4
ENDBRANCH   1   3
BRANCH   1  15
ATOM     15  C   UNL     1       6.593  -5.225  26.927  0.00  0.00    +0.115 C 
BRANCH  15  16
ATOM     16  C   UNL     1       5.631  -6.278  26.347  0.00  0.00    +0.166 C 
BRANCH  16  17
ATOM     17  O   UNL     1       5.228  -7.170  27.394  0.00  0.00    -0.387 OA
ATOM     18  H   UNL     1       4.267  -7.037  27.501  0.00  0.00    +0.210 HD
ENDBRANCH  16  17
BRANCH  16  19
ATOM     19  C   UNL     1       4.407  -5.613  25.703  0.00  0.00    +0.261 C 
BRANCH  19  20
ATOM     20  O   UNL     1       4.328  -6.001  24.334  0.00  0.00    -0.489 OA
BRANCH  20  21
ATOM     21  C   UNL     1       5.230  -5.411  23.493  0.00  0.00    +0.121 A 
ATOM     22  C   UNL     1       5.301  -4.022  23.609  0.00  0.00    +0.049 A 
ATOM     23  C   UNL     1       6.169  -3.277  22.805  0.00  0.00    -0.047 A 
ATOM     24  C   UNL     1       6.218  -1.787  22.955  0.00  0.00    +0.044 C 
ATOM     25  C   UNL     1       6.967  -3.942  21.869  0.00  0.00    +0.003 A 
ATOM     26  C   UNL     1       6.899  -5.330  21.747  0.00  0.00    +0.004 A 
ATOM     27  C   UNL     1       6.032  -6.066  22.558  0.00  0.00    +0.045 A 
ENDBRANCH  20  21
ENDBRANCH  19  20
ENDBRANCH  16  19
ENDBRANCH  15  16
ENDBRANCH   1  15
TORSDOF 11
ENDMDL
MODEL 4
REMARK VINA RESULT:      -5.4      2.801      6.661
REMARK  Name = 
REMARK  14 active torsions:
REMARK  status: ('A' for Active; 'I' for Inactive)
REMARK    1  A    between atoms: C_1  and  O_2
REMARK    2  A    between atoms: O_2  and  C_3
REMARK    3  A    between atoms: C_4  and  O_5
REMARK    4  A    between atoms: O_5  and  C_6
REMARK    5  A    between atoms: C_8  and  C_9
REMARK    6  A    between atoms: C_9  and  C_10
REMARK    7  A    between atoms: C_10  and  N_11
REMARK    8  A    between atoms: N_11  and  C_12
REMARK    9  A    between atoms: C_12  and  C_13
REMARK   10  A    between atoms: C_13  and  O_14
REMARK   11  A    between atoms: C_13  and  C_15
REMARK   12  A    between atoms: C_15  and  O_16
REMARK   13  A    between atoms: O_16  and  C_17
REMARK   14  A    between atoms: C_21  and  C_22
REMARK                            x       y       z     vdW  Elec       q    Type
REMARK                         _______ _______ _______ _____ _____    ______ ____
ROOT
ATOM      1  N   UNL     1       7.939  -5.706  26.965  0.00  0.00    -0.313 NA
ATOM      2  H   UNL     1       8.564  -6.198  27.603  0.00  0.00    +0.122 HD
ENDROOT
BRANCH   1   3
ATOM      3  C   UNL     1       8.524  -4.390  26.676  0.00  0.00    +0.085 C 
BRANCH   3   4
ATOM      4  C   UNL     1       9.195  -4.311  25.296  0.00  0.00    +0.050 C 
BRANCH   4   8
ATOM      5  C   UNL     1       9.159  -0.294  23.751  0.00  0.00    +0.161 A 
ATOM      6  C   UNL     1       9.664  -1.348  22.981  0.00  0.00    +0.049 A 
ATOM      7  C   UNL     1       9.661  -2.646  23.478  0.00  0.00    +0.007 A 
ATOM      8  C   UNL     1       9.154  -2.910  24.752  0.00  0.00    -0.042 A 
ATOM      9  C   UNL     1       8.656  -1.857  25.528  0.00  0.00    +0.053 A 
ATOM     10  C   UNL     1       8.664  -0.547  25.046  0.00  0.00    +0.162 A 
BRANCH   5  12
ATOM     11  C   UNL     1       9.977   1.291  22.194  0.00  0.00    +0.277 C 
ATOM     12  O   UNL     1       9.158   1.012  23.324  0.00  0.00    -0.491 OA
ENDBRANCH   5  12
BRANCH  10  13
ATOM     13  O   UNL     1       8.219   0.539  25.761  0.00  0.00    -0.491 OA
ATOM     14  C   UNL     1       7.131   0.332  26.653  0.00  0.00    +0.277 C 
ENDBRANCH  10  13
ENDBRANCH   4   8
ENDBRANCH   3   4
ENDBRANCH   1   3
BRANCH   1  15
ATOM     15  C   UNL     1       6.587  -5.590  27.543  0.00  0.00    +0.115 C 
BRANCH  15  16
ATOM     16  C   UNL     1       5.598  -6.585  26.910  0.00  0.00    +0.166 C 
BRANCH  16  17
ATOM     17  O   UNL     1       4.698  -7.056  27.921  0.00  0.00    -0.387 OA
ATOM     18  H   UNL     1       5.262  -7.379  28.649  0.00  0.00    +0.210 HD
ENDBRANCH  16  17
BRANCH  16  19
ATOM     19  C   UNL     1       4.822  -5.935  25.757  0.00  0.00    +0.261 C 
BRANCH  19  20
ATOM     20  O   UNL     1       5.148  -4.550  25.695  0.00  0.00    -0.489 OA
BRANCH  20  21
ATOM     21  C   UNL     1       5.544  -4.084  24.471  0.00  0.00    +0.121 A 
ATOM     22  C   UNL     1       6.070  -5.062  23.627  0.00  0.00    +0.049 A 
ATOM     23  C   UNL     1       6.530  -4.735  22.347  0.00  0.00    -0.047 A 
ATOM     24  C   UNL     1       7.092  -5.810  21.468  0.00  0.00    +0.044 C 
ATOM     25  C   UNL     1       6.466  -3.404  21.922  0.00  0.00    +0.003 A 
ATOM     26  C   UNL     1       5.943  -2.422  22.762  0.00  0.00    +0.004 A 
ATOM     27  C   UNL     1       5.481  -2.760  24.037  0.00  0.00    +0.045 A 
ENDBRANCH  20  21
ENDBRANCH  19  20
ENDBRANCH  16  19
ENDBRANCH  15  16
ENDBRANCH   1  15
TORSDOF 11
ENDMDL
MODEL 5
REMARK VINA RESULT:      -5.3      1.964      3.500
REMARK  Name = 
REMARK  14 active torsions:
REMARK  status: ('A' for Active; 'I' for Inactive)
REMARK    1  A    between atoms: C_1  and  O_2
REMARK    2  A    between atoms: O_2  and  C_3
REMARK    3  A    between atoms: C_4  and  O_5
REMARK    4  A    between atoms: O_5  and  C_6
REMARK    5  A    between atoms: C_8  and  C_9
REMARK    6  A    between atoms: C_9  and  C_10
REMARK    7  A    between atoms: C_10  and  N_11
REMARK    8  A    between atoms: N_11  and  C_12
REMARK    9  A    between atoms: C_12  and  C_13
REMARK   10  A    between atoms: C_13  and  O_14
REMARK   11  A    between atoms: C_13  and  C_15
REMARK   12  A    between atoms: C_15  and  O_16
REMARK   13  A    between atoms: O_16  and  C_17
REMARK   14  A    between atoms: C_21  and  C_22
REMARK                            x       y       z     vdW  Elec       q    Type
REMARK                         _______ _______ _______ _____ _____    ______ ____
ROOT
ATOM      1  N   UNL     1       7.762   1.428  23.259  0.00  0.00    -0.313 NA
ATOM      2  H   UNL     1       8.382   1.426  24.069  0.00  0.00    +0.122 HD
ENDROOT
BRANCH   1   3
ATOM      3  C   UNL     1       6.705   0.434  23.490  0.00  0.00    +0.085 C 
BRANCH   3   4
ATOM      4  C   UNL     1       6.758  -0.751  22.514  0.00  0.00    +0.050 C 
BRANCH   4   8
ATOM      5  C   UNL     1       5.385  -4.355  24.423  0.00  0.00    +0.161 A 
ATOM      6  C   UNL     1       5.197  -3.110  25.034  0.00  0.00    +0.049 A 
ATOM      7  C   UNL     1       5.629  -1.947  24.408  0.00  0.00    +0.007 A 
ATOM      8  C   UNL     1       6.257  -2.011  23.162  0.00  0.00    -0.042 A 
ATOM      9  C   UNL     1       6.455  -3.256  22.553  0.00  0.00    +0.053 A 
ATOM     10  C   UNL     1       6.037  -4.432  23.176  0.00  0.00    +0.162 A 
BRANCH   5  12
ATOM     11  C   UNL     1       5.617  -5.841  26.253  0.00  0.00    +0.277 C 
ATOM     12  O   UNL     1       5.002  -5.540  25.005  0.00  0.00    -0.491 OA
ENDBRANCH   5  12
BRANCH  10  13
ATOM     13  O   UNL     1       6.222  -5.689  22.652  0.00  0.00    -0.491 OA
ATOM     14  C   UNL     1       6.132  -5.828  21.240  0.00  0.00    +0.277 C 
ENDBRANCH  10  13
ENDBRANCH   4   8
ENDBRANCH   3   4
ENDBRANCH   1   3
BRANCH   1  15
ATOM     15  C   UNL     1       8.516   1.149  22.023  0.00  0.00    +0.115 C 
BRANCH  15  16
ATOM     16  C   UNL     1      10.037   1.263  22.232  0.00  0.00    +0.166 C 
BRANCH  16  17
ATOM     17  O   UNL     1      10.390   2.647  22.343  0.00  0.00    -0.387 OA
ATOM     18  H   UNL     1      11.333   2.662  22.594  0.00  0.00    +0.210 HD
ENDBRANCH  16  17
BRANCH  16  19
ATOM     19  C   UNL     1      10.482   0.490  23.480  0.00  0.00    +0.261 C 
BRANCH  19  20
ATOM     20  O   UNL     1      10.245  -0.900  23.281  0.00  0.00    -0.489 OA
BRANCH  20  21
ATOM     21  C   UNL     1       9.688  -1.569  24.336  0.00  0.00    +0.121 A 
ATOM     22  C   UNL     1       9.673  -2.957  24.193  0.00  0.00    +0.049 A 
ATOM     23  C   UNL     1       9.124  -3.775  25.185  0.00  0.00    -0.047 A 
ATOM     24  C   UNL     1       9.123  -5.262  24.998  0.00  0.00    +0.044 C 
ATOM     25  C   UNL     1       8.576  -3.184  26.328  0.00  0.00    +0.003 A 
ATOM     26  C   UNL     1       8.586  -1.797  26.475  0.00  0.00    +0.004 A 
ATOM     27  C   UNL     1       9.142  -0.988  25.481  0.00  0.00    +0.045 A 
ENDBRANCH  20  21
ENDBRANCH  19  20
ENDBRANCH  16  19
ENDBRANCH  15  16
ENDBRANCH   1  15
TORSDOF 11
ENDMDL
MODEL 6
REMARK VINA RESULT:      -5.3      1.887      3.390
REMARK  Name = 
REMARK  14 active torsions:
REMARK  status: ('A' for Active; 'I' for Inactive)
REMARK    1  A    between atoms: C_1  and  O_2
REMARK    2  A    between atoms: O_2  and  C_3
REMARK    3  A    between atoms: C_4  and  O_5
REMARK    4  A    between atoms: O_5  and  C_6
REMARK    5  A    between atoms: C_8  and  C_9
REMARK    6  A    between atoms: C_9  and  C_10
REMARK    7  A    between atoms: C_10  and  N_11
REMARK    8  A    between atoms: N_11  and  C_12
REMARK    9  A    between atoms: C_12  and  C_13
REMARK   10  A    between atoms: C_13  and  O_14
REMARK   11  A    between atoms: C_13  and  C_15
REMARK   12  A    between atoms: C_15  and  O_16
REMARK   13  A    between atoms: O_16  and  C_17
REMARK   14  A    between atoms: C_21  and  C_22
REMARK                            x       y       z     vdW  Elec       q    Type
REMARK                         _______ _______ _______ _____ _____    ______ ____
ROOT
ATOM      1  N   UNL     1       6.204   1.809  24.675  0.00  0.00    -0.313 NA
ATOM      2  H   UNL     1       7.168   2.007  24.410  0.00  0.00    +0.122 HD
ENDROOT
BRANCH   1   3
ATOM      3  C   UNL     1       5.979   0.364  24.533  0.00  0.00    +0.085 C 
BRANCH   3   4
ATOM      4  C   UNL     1       7.180  -0.486  24.974  0.00  0.00    +0.050 C 
BRANCH   4   8
ATOM      5  C   UNL     1       7.362  -4.147  22.717  0.00  0.00    +0.161 A 
ATOM      6  C   UNL     1       6.470  -3.131  22.354  0.00  0.00    +0.049 A 
ATOM      7  C   UNL     1       6.424  -1.944  23.077  0.00  0.00    +0.007 A 
ATOM      8  C   UNL     1       7.269  -1.756  24.173  0.00  0.00    -0.042 A 
ATOM      9  C   UNL     1       8.155  -2.774  24.544  0.00  0.00    +0.053 A 
ATOM     10  C   UNL     1       8.203  -3.975  23.835  0.00  0.00    +0.162 A 
BRANCH   5  12
ATOM     11  C   UNL     1       6.298  -5.690  21.270  0.00  0.00    +0.277 C 
ATOM     12  O   UNL     1       7.434  -5.349  22.056  0.00  0.00    -0.491 OA
ENDBRANCH   5  12
BRANCH  10  13
ATOM     13  O   UNL     1       9.025  -5.027  24.157  0.00  0.00    -0.491 OA
ATOM     14  C   UNL     1       9.545  -5.069  25.479  0.00  0.00    +0.277 C 
ENDBRANCH  10  13
ENDBRANCH   4   8
ENDBRANCH   3   4
ENDBRANCH   1   3
BRANCH   1  15
ATOM     15  C   UNL     1       5.264   2.593  23.852  0.00  0.00    +0.115 C 
BRANCH  15  16
ATOM     16  C   UNL     1       5.968   3.732  23.092  0.00  0.00    +0.166 C 
BRANCH  16  17
ATOM     17  O   UNL     1       6.518   4.655  24.040  0.00  0.00    -0.387 OA
ATOM     18  H   UNL     1       7.461   4.749  23.805  0.00  0.00    +0.210 HD
ENDBRANCH  16  17
BRANCH  16  19
ATOM     19  C   UNL     1       7.067   3.185  22.172  0.00  0.00    +0.261 C 
BRANCH  19  20
ATOM     20  O   UNL     1       8.341   3.451  22.753  0.00  0.00    -0.489 OA
BRANCH  20  21
ATOM     21  C   UNL     1       9.105   2.354  23.044  0.00  0.00    +0.121 A 
ATOM     22  C   UNL     1       8.993   1.314  22.122  0.00  0.00    +0.049 A 
ATOM     23  C   UNL     1       9.705   0.123  22.292  0.00  0.00    -0.047 A 
ATOM     24  C   UNL     1       9.558  -0.975  21.283  0.00  0.00    +0.044 C 
ATOM     25  C   UNL     1      10.531  -0.021  23.411  0.00  0.00    +0.003 A 
ATOM     26  C   UNL     1      10.646   1.015  24.337  0.00  0.00    +0.004 A 
ATOM     27  C   UNL     1       9.935   2.204  24.155  0.00  0.00    +0.045 A 
ENDBRANCH  20  21
ENDBRANCH  19  20
ENDBRANCH  16  19
ENDBRANCH  15  16
ENDBRANCH   1  15
TORSDOF 11
ENDMDL
MODEL 7
REMARK VINA RESULT:      -5.2      1.938      3.935
REMARK  Name = 
REMARK  14 active torsions:
REMARK  status: ('A' for Active; 'I' for Inactive)
REMARK    1  A    between atoms: C_1  and  O_2
REMARK    2  A    between atoms: O_2  and  C_3
REMARK    3  A    between atoms: C_4  and  O_5
REMARK    4  A    between atoms: O_5  and  C_6
REMARK    5  A    between atoms: C_8  and  C_9
REMARK    6  A    between atoms: C_9  and  C_10
REMARK    7  A    between atoms: C_10  and  N_11
REMARK    8  A    between atoms: N_11  and  C_12
REMARK    9  A    between atoms: C_12  and  C_13
REMARK   10  A    between atoms: C_13  and  O_14
REMARK   11  A    between atoms: C_13  and  C_15
REMARK   12  A    between atoms: C_15  and  O_16
REMARK   13  A    between atoms: O_16  and  C_17
REMARK   14  A    between atoms: C_21  and  C_22
REMARK                            x       y       z     vdW  Elec       q    Type
REMARK                         _______ _______ _______ _____ _____    ______ ____
ROOT
ATOM      1  N   UNL     1       9.301   1.763  21.483  0.00  0.00    -0.313 NA
ATOM      2  H   UNL     1       9.703   2.157  20.633  0.00  0.00    +0.122 HD
ENDROOT
BRANCH   1   3
ATOM      3  C   UNL     1       9.653   0.337  21.536  0.00  0.00    +0.085 C 
BRANCH   3   4
ATOM      4  C   UNL     1       9.830  -0.194  22.967  0.00  0.00    +0.050 C 
BRANCH   4   8
ATOM      5  C   UNL     1       8.009  -4.065  23.437  0.00  0.00    +0.161 A 
ATOM      6  C   UNL     1       7.553  -3.180  22.453  0.00  0.00    +0.049 A 
ATOM      7  C   UNL     1       8.153  -1.936  22.295  0.00  0.00    +0.007 A 
ATOM      8  C   UNL     1       9.217  -1.558  23.118  0.00  0.00    -0.042 A 
ATOM      9  C   UNL     1       9.669  -2.438  24.109  0.00  0.00    +0.053 A 
ATOM     10  C   UNL     1       9.068  -3.686  24.286  0.00  0.00    +0.162 A 
BRANCH   5  12
ATOM     11  C   UNL     1       6.034  -5.371  23.450  0.00  0.00    +0.277 C 
ATOM     12  O   UNL     1       7.440  -5.297  23.656  0.00  0.00    -0.491 OA
ENDBRANCH   5  12
BRANCH  10  13
ATOM     13  O   UNL     1       9.438  -4.588  25.253  0.00  0.00    -0.491 OA
ATOM     14  C   UNL     1       8.925  -4.389  26.564  0.00  0.00    +0.277 C 
ENDBRANCH  10  13
ENDBRANCH   4   8
ENDBRANCH   3   4
ENDBRANCH   1   3
BRANCH   1  15
ATOM     15  C   UNL     1       7.841   1.968  21.515  0.00  0.00    +0.115 C 
BRANCH  15  16
ATOM     16  C   UNL     1       7.457   3.297  22.191  0.00  0.00    +0.166 C 
BRANCH  16  17
ATOM     17  O   UNL     1       6.147   3.680  21.756  0.00  0.00    -0.387 OA
ATOM     18  H   UNL     1       5.947   4.517  22.217  0.00  0.00    +0.210 HD
ENDBRANCH  16  17
BRANCH  16  19
ATOM     19  C   UNL     1       7.503   3.173  23.719  0.00  0.00    +0.261 C 
BRANCH  19  20
ATOM     20  O   UNL     1       8.858   3.027  24.137  0.00  0.00    -0.489 OA
BRANCH  20  21
ATOM     21  C   UNL     1       9.578   4.185  24.246  0.00  0.00    +0.121 A 
ATOM     22  C   UNL     1      10.830   4.142  23.634  0.00  0.00    +0.049 A 
ATOM     23  C   UNL     1      11.687   5.246  23.671  0.00  0.00    -0.047 A 
ATOM     24  C   UNL     1      13.027   5.164  23.005  0.00  0.00    +0.044 C 
ATOM     25  C   UNL     1      11.276   6.402  24.342  0.00  0.00    +0.003 A 
ATOM     26  C   UNL     1      10.026   6.451  24.957  0.00  0.00    +0.004 A 
ATOM     27  C   UNL     1       9.175   5.344  24.910  0.00  0.00    +0.045 A 
ENDBRANCH  20  21
ENDBRANCH  19  20
ENDBRANCH  16  19
ENDBRANCH  15  16
ENDBRANCH   1  15
TORSDOF 11
ENDMDL
MODEL 8
REMARK VINA RESULT:      -5.2      1.392      2.449
REMARK  Name = 
REMARK  14 active torsions:
REMARK  status: ('A' for Active; 'I' for Inactive)
REMARK    1  A    between atoms: C_1  and  O_2
REMARK    2  A    between atoms: O_2  and  C_3
REMARK    3  A    between atoms: C_4  and  O_5
REMARK    4  A    between atoms: O_5  and  C_6
REMARK    5  A    between atoms: C_8  and  C_9
REMARK    6  A    between atoms: C_9  and  C_10
REMARK    7  A    between atoms: C_10  and  N_11
REMARK    8  A    between atoms: N_11  and  C_12
REMARK    9  A    between atoms: C_12  and  C_13
REMARK   10  A    between atoms: C_13  and  O_14
REMARK   11  A    between atoms: C_13  and  C_15
REMARK   12  A    between atoms: C_15  and  O_16
REMARK   13  A    between atoms: O_16  and  C_17
REMARK   14  A    between atoms: C_21  and  C_22
REMARK                            x       y       z     vdW  Elec       q    Type
REMARK                         _______ _______ _______ _____ _____    ______ ____
ROOT
ATOM      1  N   UNL     1      10.516  -0.922  22.399  0.00  0.00    -0.313 NA
ATOM      2  H   UNL     1      11.335  -1.204  21.862  0.00  0.00    +0.122 HD
ENDROOT
BRANCH   1   3
ATOM      3  C   UNL     1       9.790  -2.135  22.798  0.00  0.00    +0.085 C 
BRANCH   3   4
ATOM      4  C   UNL     1       8.341  -2.175  22.286  0.00  0.00    +0.050 C 
BRANCH   4   8
ATOM      5  C   UNL     1       6.033  -5.190  24.312  0.00  0.00    +0.161 A 
ATOM      6  C   UNL     1       5.484  -4.473  23.242  0.00  0.00    +0.049 A 
ATOM      7  C   UNL     1       6.238  -3.510  22.581  0.00  0.00    +0.007 A 
ATOM      8  C   UNL     1       7.551  -3.248  22.980  0.00  0.00    -0.042 A 
ATOM      9  C   UNL     1       8.099  -3.957  24.056  0.00  0.00    +0.053 A 
ATOM     10  C   UNL     1       7.349  -4.918  24.736  0.00  0.00    +0.162 A 
BRANCH   5  12
ATOM     11  C   UNL     1       4.252  -6.750  24.321  0.00  0.00    +0.277 C 
ATOM     12  O   UNL     1       5.329  -6.135  25.019  0.00  0.00    -0.491 OA
ENDBRANCH   5  12
BRANCH  10  13
ATOM     13  O   UNL     1       7.810  -5.632  25.816  0.00  0.00    -0.491 OA
ATOM     14  C   UNL     1       8.656  -4.952  26.735  0.00  0.00    +0.277 C 
ENDBRANCH  10  13
ENDBRANCH   4   8
ENDBRANCH   3   4
ENDBRANCH   1   3
BRANCH   1  15
ATOM     15  C   UNL     1       9.666  -0.008  21.613  0.00  0.00    +0.115 C 
BRANCH  15  16
ATOM     16  C   UNL     1       9.817   1.456  22.063  0.00  0.00    +0.166 C 
BRANCH  16  17
ATOM     17  O   UNL     1       8.762   2.234  21.483  0.00  0.00    -0.387 OA
ATOM     18  H   UNL     1       9.119   2.584  20.645  0.00  0.00    +0.210 HD
ENDBRANCH  16  17
BRANCH  16  19
ATOM     19  C   UNL     1       9.793   1.570  23.593  0.00  0.00    +0.261 C 
BRANCH  19  20
ATOM     20  O   UNL     1       8.446   1.482  24.049  0.00  0.00    -0.489 OA
BRANCH  20  21
ATOM     21  C   UNL     1       8.175   0.463  24.921  0.00  0.00    +0.121 A 
ATOM     22  C   UNL     1       6.865  -0.011  24.860  0.00  0.00    +0.049 A 
ATOM     23  C   UNL     1       6.435  -1.043  25.701  0.00  0.00    -0.047 A 
ATOM     24  C   UNL     1       5.019  -1.527  25.611  0.00  0.00    +0.044 C 
ATOM     25  C   UNL     1       7.337  -1.594  26.617  0.00  0.00    +0.003 A 
ATOM     26  C   UNL     1       8.647  -1.122  26.683  0.00  0.00    +0.004 A 
ATOM     27  C   UNL     1       9.068  -0.094  25.835  0.00  0.00    +0.045 A 
ENDBRANCH  20  21
ENDBRANCH  19  20
ENDBRANCH  16  19
ENDBRANCH  15  16
ENDBRANCH   1  15
TORSDOF 11
ENDMDL
MODEL 9
REMARK VINA RESULT:      -5.1      1.769      3.558
REMARK  Name = 
REMARK  14 active torsions:
REMARK  status: ('A' for Active; 'I' for Inactive)
REMARK    1  A    between atoms: C_1  and  O_2
REMARK    2  A    between atoms: O_2  and  C_3
REMARK    3  A    between atoms: C_4  and  O_5
REMARK    4  A    between atoms: O_5  and  C_6
REMARK    5  A    between atoms: C_8  and  C_9
REMARK    6  A    between atoms: C_9  and  C_10
REMARK    7  A    between atoms: C_10  and  N_11
REMARK    8  A    between atoms: N_11  and  C_12
REMARK    9  A    between atoms: C_12  and  C_13
REMARK   10  A    between atoms: C_13  and  O_14
REMARK   11  A    between atoms: C_13  and  C_15
REMARK   12  A    between atoms: C_15  and  O_16
REMARK   13  A    between atoms: O_16  and  C_17
REMARK   14  A    between atoms: C_21  and  C_22
REMARK                            x       y       z     vdW  Elec       q    Type
REMARK                         _______ _______ _______ _____ _____    ______ ____
ROOT
ATOM      1  N   UNL     1       7.201   2.816  24.452  0.00  0.00    -0.313 NA
ATOM      2  H   UNL     1       6.396   3.401  24.672  0.00  0.00    +0.122 HD
ENDROOT
BRANCH   1   3
ATOM      3  C   UNL     1       6.940   1.465  24.969  0.00  0.00    +0.085 C 
BRANCH   3   4
ATOM      4  C   UNL     1       6.355   0.512  23.915  0.00  0.00    +0.050 C 
BRANCH   4   8
ATOM      5  C   UNL     1       6.569  -3.567  25.268  0.00  0.00    +0.161 A 
ATOM      6  C   UNL     1       6.836  -2.511  26.147  0.00  0.00    +0.049 A 
ATOM      7  C   UNL     1       6.752  -1.195  25.710  0.00  0.00    +0.007 A 
ATOM      8  C   UNL     1       6.401  -0.914  24.388  0.00  0.00    -0.042 A 
ATOM      9  C   UNL     1       6.143  -1.968  23.504  0.00  0.00    +0.053 A 
ATOM     10  C   UNL     1       6.235  -3.295  23.927  0.00  0.00    +0.162 A 
BRANCH   5  12
ATOM     11  C   UNL     1       7.924  -5.300  26.146  0.00  0.00    +0.277 C 
ATOM     12  O   UNL     1       6.660  -4.888  25.637  0.00  0.00    -0.491 OA
ENDBRANCH   5  12
BRANCH  10  13
ATOM     13  O   UNL     1       6.023  -4.380  23.110  0.00  0.00    -0.491 OA
ATOM     14  C   UNL     1       7.123  -4.837  22.333  0.00  0.00    +0.277 C 
ENDBRANCH  10  13
ENDBRANCH   4   8
ENDBRANCH   3   4
ENDBRANCH   1   3
BRANCH   1  15
ATOM     15  C   UNL     1       8.435   3.391  25.021  0.00  0.00    +0.115 C 
BRANCH  15  16
ATOM     16  C   UNL     1       9.292   4.095  23.954  0.00  0.00    +0.166 C 
BRANCH  16  17
ATOM     17  O   UNL     1       9.779   5.332  24.489  0.00  0.00    -0.387 OA
ATOM     18  H   UNL     1      10.524   5.595  23.916  0.00  0.00    +0.210 HD
ENDBRANCH  16  17
BRANCH  16  19
ATOM     19  C   UNL     1      10.457   3.205  23.505  0.00  0.00    +0.261 C 
BRANCH  19  20
ATOM     20  O   UNL     1      10.363   1.943  24.159  0.00  0.00    -0.489 OA
BRANCH  20  21
ATOM     21  C   UNL     1      10.046   0.878  23.361  0.00  0.00    +0.121 A 
ATOM     22  C   UNL     1      10.131  -0.361  23.997  0.00  0.00    +0.049 A 
ATOM     23  C   UNL     1       9.849  -1.544  23.307  0.00  0.00    -0.047 A 
ATOM     24  C   UNL     1       9.952  -2.858  24.020  0.00  0.00    +0.044 C 
ATOM     25  C   UNL     1       9.488  -1.473  21.958  0.00  0.00    +0.003 A 
ATOM     26  C   UNL     1       9.403  -0.238  21.316  0.00  0.00    +0.004 A 
ATOM     27  C   UNL     1       9.682   0.939  22.017  0.00  0.00    +0.045 A 
ENDBRANCH  20  21
ENDBRANCH  19  20
ENDBRANCH  16  19
ENDBRANCH  15  16
ENDBRANCH   1  15
TORSDOF 11
ENDMDL
