MODEL 1
REMARK VINA RESULT:      -8.3      0.000      0.000
REMARK  Name = 
REMARK  10 active torsions:
REMARK  status: ('A' for Active; 'I' for Inactive)
REMARK    1  A    between atoms: C_1  and  C_2
REMARK    2  A    between atoms: C_2  and  C_3
REMARK    3  A    between atoms: C_3  and  C_4
REMARK    4  A    between atoms: C_4  and  N_5
REMARK    5  A    between atoms: C_9  and  C_10
REMARK    6  A    between atoms: C_10  and  C_11
REMARK    7  A    between atoms: C_14  and  N_15
REMARK    8  A    between atoms: C_16  and  C_17
REMARK    9  A    between atoms: N_24  and  C_25
REMARK   10  A    between atoms: C_25  and  C_26
REMARK                            x       y       z     vdW  Elec       q    Type
REMARK                         _______ _______ _______ _____ _____    ______ ____
ROOT
ATOM      1  N   UNL     1       7.205  -4.971  24.721  0.00  0.00    -0.276 N 
ATOM      2  C   UNL     1       5.979  -5.534  24.349  0.00  0.00    +0.334 A 
ATOM      3  O   UNL     1       5.493  -6.484  24.971  0.00  0.00    -0.246 OA
ATOM      4  N   UNL     1       5.325  -4.979  23.229  0.00  0.00    -0.255 N 
ATOM      5  C   UNL     1       5.845  -3.975  22.401  0.00  0.00    +0.283 A 
ATOM      6  O   UNL     1       5.302  -3.540  21.392  0.00  0.00    -0.265 OA
ATOM      7  C   UNL     1       7.118  -3.514  22.830  0.00  0.00    +0.149 A 
ATOM      8  N   UNL     1       7.967  -2.585  22.296  0.00  0.00    -0.336 N 
ATOM      9  H   UNL     1       7.804  -2.036  21.462  0.00  0.00    +0.167 HD
ATOM     10  C   UNL     1       9.105  -2.583  23.081  0.00  0.00    +0.114 A 
ATOM     11  N   UNL     1       8.976  -3.425  24.091  0.00  0.00    -0.214 NA
ATOM     12  C   UNL     1       7.755  -3.995  23.927  0.00  0.00    +0.168 A 
ENDROOT
BRANCH   1  13
ATOM     13  C   UNL     1       7.936  -5.480  25.883  0.00  0.00    +0.128 C 
BRANCH  13  14
ATOM     14  C   UNL     1       7.638  -4.741  27.194  0.00  0.00    +0.021 C 
BRANCH  14  16
ATOM     15  C   UNL     1       5.231  -4.530  27.898  0.00  0.00    +0.004 C 
ATOM     16  C   UNL     1       6.496  -5.370  27.993  0.00  0.00    -0.002 C 
ENDBRANCH  14  16
ENDBRANCH  13  14
ENDBRANCH   1  13
BRANCH   4  17
ATOM     17  C   UNL     1       4.027  -5.538  22.859  0.00  0.00    +0.168 C 
BRANCH  17  18
ATOM     18  C   UNL     1       2.879  -4.914  23.621  0.00  0.00    +0.008 A 
ATOM     19  C   UNL     1       1.557  -5.211  23.278  0.00  0.00    +0.128 A 
ATOM     20  F   UNL     1       1.297  -6.066  22.279  0.00  0.00    -0.205 F 
ATOM     21  C   UNL     1       0.483  -4.650  23.965  0.00  0.00    +0.039 A 
ATOM     22  C   UNL     1       0.721  -3.776  25.024  0.00  0.00    +0.003 A 
ATOM     23  C   UNL     1       2.032  -3.478  25.393  0.00  0.00    +0.000 A 
ATOM     24  C   UNL     1       3.105  -4.045  24.699  0.00  0.00    +0.008 A 
ENDBRANCH  17  18
ENDBRANCH   4  17
BRANCH  10  25
ATOM     25  C   UNL     1      10.329  -1.776  22.773  0.00  0.00    +0.109 C 
BRANCH  25  26
ATOM     26  C   UNL     1      10.177  -0.276  22.912  0.00  0.00    -0.040 A 
ATOM     27  C   UNL     1      10.337   0.318  24.171  0.00  0.00    +0.006 A 
ATOM     28  C   UNL     1      10.257   1.708  24.325  0.00  0.00    +0.023 A 
ATOM     29  C   UNL     1       9.997   2.532  23.225  0.00  0.00    +0.033 A 
ATOM     30  C   UNL     1       9.744   1.933  21.990  0.00  0.00    +0.023 A 
ATOM     31  C   UNL     1       9.821   0.544  21.836  0.00  0.00    +0.006 A 
BRANCH  29  32
ATOM     32  N   UNL     1      10.053   3.929  23.420  0.00  0.00    -0.286 N 
ATOM     33  H   UNL     1       9.165   4.405  23.504  0.00  0.00    +0.155 HD
ATOM     34  C   UNL     1      11.196   4.703  23.540  0.00  0.00    +0.214 C 
ATOM     35  O   UNL     1      12.351   4.346  23.327  0.00  0.00    -0.276 OA
ATOM     36  C   UNL     1      10.899   6.118  23.966  0.00  0.00    +0.109 C 
ENDBRANCH  29  32
ENDBRANCH  25  26
ENDBRANCH  10  25
TORSDOF 8
ENDMDL
MODEL 2
REMARK VINA RESULT:      -7.7      1.809      2.393
REMARK  Name = 
REMARK  10 active torsions:
REMARK  status: ('A' for Active; 'I' for Inactive)
REMARK    1  A    between atoms: C_1  and  C_2
REMARK    2  A    between atoms: C_2  and  C_3
REMARK    3  A    between atoms: C_3  and  C_4
REMARK    4  A    between atoms: C_4  and  N_5
REMARK    5  A    between atoms: C_9  and  C_10
REMARK    6  A    between atoms: C_10  and  C_11
REMARK    7  A    between atoms: C_14  and  N_15
REMARK    8  A    between atoms: C_16  and  C_17
REMARK    9  A    between atoms: N_24  and  C_25
REMARK   10  A    between atoms: C_25  and  C_26
REMARK                            x       y       z     vdW  Elec       q    Type
REMARK                         _______ _______ _______ _____ _____    ______ ____
ROOT
ATOM      1  N   UNL     1       7.610  -3.627  24.802  0.00  0.00    -0.276 N 
ATOM      2  C   UNL     1       6.829  -4.787  24.783  0.00  0.00    +0.334 A 
ATOM      3  O   UNL     1       6.677  -5.477  25.796  0.00  0.00    -0.246 OA
ATOM      4  N   UNL     1       6.226  -5.142  23.557  0.00  0.00    -0.255 N 
ATOM      5  C   UNL     1       6.424  -4.484  22.336  0.00  0.00    +0.283 A 
ATOM      6  O   UNL     1       5.951  -4.833  21.261  0.00  0.00    -0.265 OA
ATOM      7  C   UNL     1       7.280  -3.357  22.451  0.00  0.00    +0.149 A 
ATOM      8  N   UNL     1       7.746  -2.478  21.514  0.00  0.00    -0.336 N 
ATOM      9  H   UNL     1       7.529  -2.489  20.525  0.00  0.00    +0.167 HD
ATOM     10  C   UNL     1       8.607  -1.614  22.164  0.00  0.00    +0.114 A 
ATOM     11  N   UNL     1       8.654  -1.889  23.456  0.00  0.00    -0.214 NA
ATOM     12  C   UNL     1       7.840  -2.962  23.623  0.00  0.00    +0.168 A 
ENDROOT
BRANCH   1  13
ATOM     13  C   UNL     1       8.254  -3.182  26.040  0.00  0.00    +0.128 C 
BRANCH  13  14
ATOM     14  C   UNL     1       7.554  -2.004  26.731  0.00  0.00    +0.021 C 
BRANCH  14  16
ATOM     15  C   UNL     1       8.074   0.306  25.877  0.00  0.00    +0.004 C 
ATOM     16  C   UNL     1       8.452  -0.775  26.880  0.00  0.00    -0.002 C 
ENDBRANCH  14  16
ENDBRANCH  13  14
ENDBRANCH   1  13
BRANCH   4  17
ATOM     17  C   UNL     1       5.378  -6.331  23.540  0.00  0.00    +0.168 C 
BRANCH  17  18
ATOM     18  C   UNL     1       3.973  -6.058  24.029  0.00  0.00    +0.008 A 
ATOM     19  C   UNL     1       3.503  -6.654  25.202  0.00  0.00    +0.128 A 
ATOM     20  F   UNL     1       4.302  -7.462  25.913  0.00  0.00    -0.205 F 
ATOM     21  C   UNL     1       2.212  -6.418  25.672  0.00  0.00    +0.039 A 
ATOM     22  C   UNL     1       1.366  -5.564  24.968  0.00  0.00    +0.003 A 
ATOM     23  C   UNL     1       1.820  -4.946  23.804  0.00  0.00    +0.000 A 
ATOM     24  C   UNL     1       3.116  -5.187  23.338  0.00  0.00    +0.008 A 
ENDBRANCH  17  18
ENDBRANCH   4  17
BRANCH  10  25
ATOM     25  C   UNL     1       9.414  -0.561  21.469  0.00  0.00    +0.109 C 
BRANCH  25  26
ATOM     26  C   UNL     1       9.453   0.790  22.150  0.00  0.00    -0.040 A 
ATOM     27  C   UNL     1       8.470   1.743  21.847  0.00  0.00    +0.006 A 
ATOM     28  C   UNL     1       8.445   2.983  22.498  0.00  0.00    +0.023 A 
ATOM     29  C   UNL     1       9.414   3.303  23.455  0.00  0.00    +0.033 A 
ATOM     30  C   UNL     1      10.447   2.393  23.687  0.00  0.00    +0.023 A 
ATOM     31  C   UNL     1      10.474   1.155  23.034  0.00  0.00    +0.006 A 
BRANCH  29  32
ATOM     32  N   UNL     1       9.264   4.513  24.165  0.00  0.00    -0.286 N 
ATOM     33  H   UNL     1       8.466   4.574  24.783  0.00  0.00    +0.155 HD
ATOM     34  C   UNL     1      10.114   5.606  24.127  0.00  0.00    +0.214 C 
ATOM     35  O   UNL     1      11.045   5.788  23.346  0.00  0.00    -0.276 OA
ATOM     36  C   UNL     1       9.785   6.638  25.175  0.00  0.00    +0.109 C 
ENDBRANCH  29  32
ENDBRANCH  25  26
ENDBRANCH  10  25
TORSDOF 8
ENDMDL
MODEL 3
REMARK VINA RESULT:      -7.6      2.831      4.355
REMARK  Name = 
REMARK  10 active torsions:
REMARK  status: ('A' for Active; 'I' for Inactive)
REMARK    1  A    between atoms: C_1  and  C_2
REMARK    2  A    between atoms: C_2  and  C_3
REMARK    3  A    between atoms: C_3  and  C_4
REMARK    4  A    between atoms: C_4  and  N_5
REMARK    5  A    between atoms: C_9  and  C_10
REMARK    6  A    between atoms: C_10  and  C_11
REMARK    7  A    between atoms: C_14  and  N_15
REMARK    8  A    between atoms: C_16  and  C_17
REMARK    9  A    between atoms: N_24  and  C_25
REMARK   10  A    between atoms: C_25  and  C_26
REMARK                            x       y       z     vdW  Elec       q    Type
REMARK                         _______ _______ _______ _____ _____    ______ ____
ROOT
ATOM      1  N   UNL     1       6.145  -3.930  23.807  0.00  0.00    -0.276 N 
ATOM      2  C   UNL     1       5.503  -4.724  24.763  0.00  0.00    +0.334 A 
ATOM      3  O   UNL     1       4.314  -5.036  24.646  0.00  0.00    -0.246 OA
ATOM      4  N   UNL     1       6.267  -5.148  25.872  0.00  0.00    -0.255 N 
ATOM      5  C   UNL     1       7.585  -4.760  26.143  0.00  0.00    +0.283 A 
ATOM      6  O   UNL     1       8.224  -5.079  27.140  0.00  0.00    -0.265 OA
ATOM      7  C   UNL     1       8.124  -3.907  25.145  0.00  0.00    +0.149 A 
ATOM      8  N   UNL     1       9.341  -3.291  25.045  0.00  0.00    -0.336 N 
ATOM      9  H   UNL     1      10.102  -3.361  25.708  0.00  0.00    +0.167 HD
ATOM     10  C   UNL     1       9.307  -2.516  23.900  0.00  0.00    +0.114 A 
ATOM     11  N   UNL     1       8.154  -2.664  23.272  0.00  0.00    -0.214 NA
ATOM     12  C   UNL     1       7.432  -3.516  24.045  0.00  0.00    +0.168 A 
ENDROOT
BRANCH   1  13
ATOM     13  C   UNL     1       5.425  -3.465  22.620  0.00  0.00    +0.128 C 
BRANCH  13  14
ATOM     14  C   UNL     1       5.895  -4.100  21.304  0.00  0.00    +0.021 C 
BRANCH  14  16
ATOM     15  C   UNL     1       7.314  -6.159  21.593  0.00  0.00    +0.004 C 
ATOM     16  C   UNL     1       5.909  -5.629  21.345  0.00  0.00    -0.002 C 
ENDBRANCH  14  16
ENDBRANCH  13  14
ENDBRANCH   1  13
BRANCH   4  17
ATOM     17  C   UNL     1       5.612  -6.009  26.853  0.00  0.00    +0.168 C 
BRANCH  17  18
ATOM     18  C   UNL     1       5.093  -5.245  28.051  0.00  0.00    +0.008 A 
ATOM     19  C   UNL     1       5.399  -5.668  29.348  0.00  0.00    +0.128 A 
ATOM     20  F   UNL     1       6.171  -6.747  29.538  0.00  0.00    -0.205 F 
ATOM     21  C   UNL     1       4.933  -4.981  30.467  0.00  0.00    +0.039 A 
ATOM     22  C   UNL     1       4.149  -3.841  30.301  0.00  0.00    +0.003 A 
ATOM     23  C   UNL     1       3.844  -3.394  29.016  0.00  0.00    +0.000 A 
ATOM     24  C   UNL     1       4.315  -4.087  27.898  0.00  0.00    +0.008 A 
ENDBRANCH  17  18
ENDBRANCH   4  17
BRANCH  10  25
ATOM     25  C   UNL     1      10.412  -1.595  23.484  0.00  0.00    +0.109 C 
BRANCH  25  26
ATOM     26  C   UNL     1      10.035  -0.135  23.356  0.00  0.00    -0.040 A 
ATOM     27  C   UNL     1       9.858   0.420  22.081  0.00  0.00    +0.006 A 
ATOM     28  C   UNL     1       9.456   1.753  21.927  0.00  0.00    +0.023 A 
ATOM     29  C   UNL     1       9.241   2.565  23.045  0.00  0.00    +0.033 A 
ATOM     30  C   UNL     1       9.509   2.040  24.310  0.00  0.00    +0.023 A 
ATOM     31  C   UNL     1       9.913   0.709  24.464  0.00  0.00    +0.006 A 
BRANCH  29  32
ATOM     32  N   UNL     1       8.718   3.858  22.831  0.00  0.00    -0.286 N 
ATOM     33  H   UNL     1       9.346   4.631  23.008  0.00  0.00    +0.155 HD
ATOM     34  C   UNL     1       7.449   4.171  22.373  0.00  0.00    +0.214 C 
ATOM     35  O   UNL     1       6.503   3.399  22.238  0.00  0.00    -0.276 OA
ATOM     36  C   UNL     1       7.294   5.634  22.041  0.00  0.00    +0.109 C 
ENDBRANCH  29  32
ENDBRANCH  25  26
ENDBRANCH  10  25
TORSDOF 8
ENDMDL
MODEL 4
REMARK VINA RESULT:      -7.6      4.012      9.577
REMARK  Name = 
REMARK  10 active torsions:
REMARK  status: ('A' for Active; 'I' for Inactive)
REMARK    1  A    between atoms: C_1  and  C_2
REMARK    2  A    between atoms: C_2  and  C_3
REMARK    3  A    between atoms: C_3  and  C_4
REMARK    4  A    between atoms: C_4  and  N_5
REMARK    5  A    between atoms: C_9  and  C_10
REMARK    6  A    between atoms: C_10  and  C_11
REMARK    7  A    between atoms: C_14  and  N_15
REMARK    8  A    between atoms: C_16  and  C_17
REMARK    9  A    between atoms: N_24  and  C_25
REMARK   10  A    between atoms: C_25  and  C_26
REMARK                            x       y       z     vdW  Elec       q    Type
REMARK                         _______ _______ _______ _____ _____    ______ ____
ROOT
ATOM      1  N   UNL     1       8.110   1.631  25.398  0.00  0.00    -0.276 N 
ATOM      2  C   UNL     1       8.123   2.955  24.945  0.00  0.00    +0.334 A 
ATOM      3  O   UNL     1       7.386   3.812  25.443  0.00  0.00    -0.246 OA
ATOM      4  N   UNL     1       9.008   3.271  23.892  0.00  0.00    -0.255 N 
ATOM      5  C   UNL     1       9.802   2.349  23.197  0.00  0.00    +0.283 A 
ATOM      6  O   UNL     1      10.520   2.617  22.240  0.00  0.00    -0.265 OA
ATOM      7  C   UNL     1       9.671   1.026  23.693  0.00  0.00    +0.149 A 
ATOM      8  N   UNL     1      10.235  -0.151  23.285  0.00  0.00    -0.336 N 
ATOM      9  H   UNL     1      10.888  -0.267  22.521  0.00  0.00    +0.167 HD
ATOM     10  C   UNL     1       9.702  -1.149  24.079  0.00  0.00    +0.114 A 
ATOM     11  N   UNL     1       8.880  -0.640  24.979  0.00  0.00    -0.214 NA
ATOM     12  C   UNL     1       8.863   0.696  24.733  0.00  0.00    +0.168 A 
ENDROOT
BRANCH   1  13
ATOM     13  C   UNL     1       7.233   1.229  26.499  0.00  0.00    +0.128 C 
BRANCH  13  14
ATOM     14  C   UNL     1       5.779   0.960  26.087  0.00  0.00    +0.021 C 
BRANCH  14  16
ATOM     15  C   UNL     1       6.149  -1.365  26.978  0.00  0.00    +0.004 C 
ATOM     16  C   UNL     1       5.471  -0.526  25.905  0.00  0.00    -0.002 C 
ENDBRANCH  14  16
ENDBRANCH  13  14
ENDBRANCH   1  13
BRANCH   4  17
ATOM     17  C   UNL     1       9.053   4.659  23.441  0.00  0.00    +0.168 C 
BRANCH  17  18
ATOM     18  C   UNL     1       9.992   5.514  24.263  0.00  0.00    +0.008 A 
ATOM     19  C   UNL     1      11.336   5.640  23.900  0.00  0.00    +0.128 A 
ATOM     20  F   UNL     1      11.799   5.016  22.808  0.00  0.00    -0.205 F 
ATOM     21  C   UNL     1      12.220   6.422  24.641  0.00  0.00    +0.039 A 
ATOM     22  C   UNL     1      11.763   7.103  25.767  0.00  0.00    +0.003 A 
ATOM     23  C   UNL     1      10.424   7.003  26.139  0.00  0.00    +0.000 A 
ATOM     24  C   UNL     1       9.542   6.217  25.391  0.00  0.00    +0.008 A 
ENDBRANCH  17  18
ENDBRANCH   4  17
BRANCH  10  25
ATOM     25  C   UNL     1       9.983  -2.608  23.885  0.00  0.00    +0.109 C 
BRANCH  25  26
ATOM     26  C   UNL     1       8.983  -3.557  24.510  0.00  0.00    -0.040 A 
ATOM     27  C   UNL     1       9.363  -4.324  25.620  0.00  0.00    +0.006 A 
ATOM     28  C   UNL     1       8.447  -5.171  26.256  0.00  0.00    +0.023 A 
ATOM     29  C   UNL     1       7.135  -5.283  25.783  0.00  0.00    +0.033 A 
ATOM     30  C   UNL     1       6.785  -4.592  24.622  0.00  0.00    +0.023 A 
ATOM     31  C   UNL     1       7.701  -3.747  23.985  0.00  0.00    +0.006 A 
BRANCH  29  32
ATOM     32  N   UNL     1       6.226  -6.055  26.538  0.00  0.00    -0.286 N 
ATOM     33  H   UNL     1       5.801  -6.840  26.062  0.00  0.00    +0.155 HD
ATOM     34  C   UNL     1       5.885  -5.865  27.867  0.00  0.00    +0.214 C 
ATOM     35  O   UNL     1       6.174  -4.902  28.571  0.00  0.00    -0.276 OA
ATOM     36  C   UNL     1       5.063  -6.999  28.425  0.00  0.00    +0.109 C 
ENDBRANCH  29  32
ENDBRANCH  25  26
ENDBRANCH  10  25
TORSDOF 8
ENDMDL
MODEL 5
REMARK VINA RESULT:      -7.4      3.557      9.618
REMARK  Name = 
REMARK  10 active torsions:
REMARK  status: ('A' for Active; 'I' for Inactive)
REMARK    1  A    between atoms: C_1  and  C_2
REMARK    2  A    between atoms: C_2  and  C_3
REMARK    3  A    between atoms: C_3  and  C_4
REMARK    4  A    between atoms: C_4  and  N_5
REMARK    5  A    between atoms: C_9  and  C_10
REMARK    6  A    between atoms: C_10  and  C_11
REMARK    7  A    between atoms: C_14  and  N_15
REMARK    8  A    between atoms: C_16  and  C_17
REMARK    9  A    between atoms: N_24  and  C_25
REMARK   10  A    between atoms: C_25  and  C_26
REMARK                            x       y       z     vdW  Elec       q    Type
REMARK                         _______ _______ _______ _____ _____    ______ ____
ROOT
ATOM      1  N   UNL     1       8.104   1.863  25.466  0.00  0.00    -0.276 N 
ATOM      2  C   UNL     1       8.193   3.171  24.977  0.00  0.00    +0.334 A 
ATOM      3  O   UNL     1       7.518   4.085  25.461  0.00  0.00    -0.246 OA
ATOM      4  N   UNL     1       9.078   3.401  23.902  0.00  0.00    -0.255 N 
ATOM      5  C   UNL     1       9.803   2.413  23.223  0.00  0.00    +0.283 A 
ATOM      6  O   UNL     1      10.521   2.609  22.249  0.00  0.00    -0.265 OA
ATOM      7  C   UNL     1       9.597   1.115  23.758  0.00  0.00    +0.149 A 
ATOM      8  N   UNL     1      10.080  -0.106  23.375  0.00  0.00    -0.336 N 
ATOM      9  H   UNL     1      10.712  -0.283  22.605  0.00  0.00    +0.167 HD
ATOM     10  C   UNL     1       9.498  -1.047  24.204  0.00  0.00    +0.114 A 
ATOM     11  N   UNL     1       8.724  -0.462  25.101  0.00  0.00    -0.214 NA
ATOM     12  C   UNL     1       8.787   0.864  24.818  0.00  0.00    +0.168 A 
ENDROOT
BRANCH   1  13
ATOM     13  C   UNL     1       7.221   1.547  26.591  0.00  0.00    +0.128 C 
BRANCH  13  14
ATOM     14  C   UNL     1       5.830   1.043  26.184  0.00  0.00    +0.021 C 
BRANCH  14  16
ATOM     15  C   UNL     1       5.353  -1.314  25.440  0.00  0.00    +0.004 C 
ATOM     16  C   UNL     1       5.555  -0.392  26.634  0.00  0.00    -0.002 C 
ENDBRANCH  14  16
ENDBRANCH  13  14
ENDBRANCH   1  13
BRANCH   4  17
ATOM     17  C   UNL     1       9.203   4.772  23.412  0.00  0.00    +0.168 C 
BRANCH  17  18
ATOM     18  C   UNL     1      10.202   5.589  24.201  0.00  0.00    +0.008 A 
ATOM     19  C   UNL     1      11.548   5.618  23.826  0.00  0.00    +0.128 A 
ATOM     20  F   UNL     1      11.961   4.932  22.751  0.00  0.00    -0.205 F 
ATOM     21  C   UNL     1      12.486   6.364  24.536  0.00  0.00    +0.039 A 
ATOM     22  C   UNL     1      12.083   7.108  25.643  0.00  0.00    +0.003 A 
ATOM     23  C   UNL     1      10.743   7.106  26.026  0.00  0.00    +0.000 A 
ATOM     24  C   UNL     1       9.806   6.356  25.308  0.00  0.00    +0.008 A 
ENDBRANCH  17  18
ENDBRANCH   4  17
BRANCH  10  25
ATOM     25  C   UNL     1       9.685  -2.525  24.048  0.00  0.00    +0.109 C 
BRANCH  25  26
ATOM     26  C   UNL     1       8.464  -3.295  23.592  0.00  0.00    -0.040 A 
ATOM     27  C   UNL     1       8.154  -4.518  24.204  0.00  0.00    +0.006 A 
ATOM     28  C   UNL     1       7.003  -5.229  23.844  0.00  0.00    +0.023 A 
ATOM     29  C   UNL     1       6.146  -4.742  22.852  0.00  0.00    +0.033 A 
ATOM     30  C   UNL     1       6.504  -3.573  22.179  0.00  0.00    +0.023 A 
ATOM     31  C   UNL     1       7.656  -2.863  22.535  0.00  0.00    +0.006 A 
BRANCH  29  32
ATOM     32  N   UNL     1       4.940  -5.438  22.623  0.00  0.00    -0.286 N 
ATOM     33  H   UNL     1       4.962  -6.149  21.904  0.00  0.00    +0.155 HD
ATOM     34  C   UNL     1       3.744  -5.269  23.303  0.00  0.00    +0.214 C 
ATOM     35  O   UNL     1       3.471  -4.375  24.099  0.00  0.00    -0.276 OA
ATOM     36  C   UNL     1       2.725  -6.326  22.962  0.00  0.00    +0.109 C 
ENDBRANCH  29  32
ENDBRANCH  25  26
ENDBRANCH  10  25
TORSDOF 8
ENDMDL
MODEL 6
REMARK VINA RESULT:      -7.4      2.632      4.100
REMARK  Name = 
REMARK  10 active torsions:
REMARK  status: ('A' for Active; 'I' for Inactive)
REMARK    1  A    between atoms: C_1  and  C_2
REMARK    2  A    between atoms: C_2  and  C_3
REMARK    3  A    between atoms: C_3  and  C_4
REMARK    4  A    between atoms: C_4  and  N_5
REMARK    5  A    between atoms: C_9  and  C_10
REMARK    6  A    between atoms: C_10  and  C_11
REMARK    7  A    between atoms: C_14  and  N_15
REMARK    8  A    between atoms: C_16  and  C_17
REMARK    9  A    between atoms: N_24  and  C_25
REMARK   10  A    between atoms: C_25  and  C_26
REMARK                            x       y       z     vdW  Elec       q    Type
REMARK                         _______ _______ _______ _____ _____    ______ ____
ROOT
ATOM      1  N   UNL     1       7.764  -2.551  23.529  0.00  0.00    -0.276 N 
ATOM      2  C   UNL     1       7.551  -3.876  23.926  0.00  0.00    +0.334 A 
ATOM      3  O   UNL     1       8.162  -4.811  23.399  0.00  0.00    -0.246 OA
ATOM      4  N   UNL     1       6.605  -4.101  24.949  0.00  0.00    -0.255 N 
ATOM      5  C   UNL     1       5.792  -3.121  25.531  0.00  0.00    +0.283 A 
ATOM      6  O   UNL     1       4.926  -3.331  26.373  0.00  0.00    -0.265 OA
ATOM      7  C   UNL     1       6.043  -1.822  25.017  0.00  0.00    +0.149 A 
ATOM      8  N   UNL     1       5.458  -0.616  25.287  0.00  0.00    -0.336 N 
ATOM      9  H   UNL     1       4.711  -0.449  25.950  0.00  0.00    +0.167 HD
ATOM     10  C   UNL     1       6.043   0.313  24.447  0.00  0.00    +0.114 A 
ATOM     11  N   UNL     1       6.985  -0.253  23.713  0.00  0.00    -0.214 NA
ATOM     12  C   UNL     1       6.976  -1.563  24.066  0.00  0.00    +0.168 A 
ENDROOT
BRANCH   1  13
ATOM     13  C   UNL     1       8.742  -2.234  22.488  0.00  0.00    +0.128 C 
BRANCH  13  14
ATOM     14  C   UNL     1      10.108  -1.777  23.017  0.00  0.00    +0.021 C 
BRANCH  14  16
ATOM     15  C   UNL     1      10.553   0.366  24.261  0.00  0.00    +0.004 C 
ATOM     16  C   UNL     1      10.326  -0.268  22.897  0.00  0.00    -0.002 C 
ENDBRANCH  14  16
ENDBRANCH  13  14
ENDBRANCH   1  13
BRANCH   4  17
ATOM     17  C   UNL     1       6.407  -5.479  25.393  0.00  0.00    +0.168 C 
BRANCH  17  18
ATOM     18  C   UNL     1       5.110  -6.076  24.895  0.00  0.00    +0.008 A 
ATOM     19  C   UNL     1       4.378  -6.953  25.701  0.00  0.00    +0.128 A 
ATOM     20  F   UNL     1       4.814  -7.257  26.931  0.00  0.00    -0.205 F 
ATOM     21  C   UNL     1       3.180  -7.515  25.265  0.00  0.00    +0.039 A 
ATOM     22  C   UNL     1       2.688  -7.199  24.001  0.00  0.00    +0.003 A 
ATOM     23  C   UNL     1       3.394  -6.315  23.186  0.00  0.00    +0.000 A 
ATOM     24  C   UNL     1       4.595  -5.753  23.630  0.00  0.00    +0.008 A 
ENDBRANCH  17  18
ENDBRANCH   4  17
BRANCH  10  25
ATOM     25  C   UNL     1       5.608   1.743  24.352  0.00  0.00    +0.109 C 
BRANCH  25  26
ATOM     26  C   UNL     1       6.715   2.752  24.134  0.00  0.00    -0.040 A 
ATOM     27  C   UNL     1       7.571   3.075  25.196  0.00  0.00    +0.006 A 
ATOM     28  C   UNL     1       8.639   3.963  25.013  0.00  0.00    +0.023 A 
ATOM     29  C   UNL     1       8.862   4.561  23.769  0.00  0.00    +0.033 A 
ATOM     30  C   UNL     1       7.955   4.312  22.738  0.00  0.00    +0.023 A 
ATOM     31  C   UNL     1       6.886   3.427  22.921  0.00  0.00    +0.006 A 
BRANCH  29  32
ATOM     32  N   UNL     1      10.024   5.347  23.614  0.00  0.00    -0.286 N 
ATOM     33  H   UNL     1       9.888   6.349  23.594  0.00  0.00    +0.155 HD
ATOM     34  C   UNL     1      11.328   4.887  23.521  0.00  0.00    +0.214 C 
ATOM     35  O   UNL     1      11.689   3.721  23.383  0.00  0.00    -0.276 OA
ATOM     36  C   UNL     1      12.344   5.998  23.592  0.00  0.00    +0.109 C 
ENDBRANCH  29  32
ENDBRANCH  25  26
ENDBRANCH  10  25
TORSDOF 8
ENDMDL
MODEL 7
REMARK VINA RESULT:      -7.3      3.652      9.235
REMARK  Name = 
REMARK  10 active torsions:
REMARK  status: ('A' for Active; 'I' for Inactive)
REMARK    1  A    between atoms: C_1  and  C_2
REMARK    2  A    between atoms: C_2  and  C_3
REMARK    3  A    between atoms: C_3  and  C_4
REMARK    4  A    between atoms: C_4  and  N_5
REMARK    5  A    between atoms: C_9  and  C_10
REMARK    6  A    between atoms: C_10  and  C_11
REMARK    7  A    between atoms: C_14  and  N_15
REMARK    8  A    between atoms: C_16  and  C_17
REMARK    9  A    between atoms: N_24  and  C_25
REMARK   10  A    between atoms: C_25  and  C_26
REMARK                            x       y       z     vdW  Elec       q    Type
REMARK                         _______ _______ _______ _____ _____    ______ ____
ROOT
ATOM      1  N   UNL     1       8.080   0.449  25.808  0.00  0.00    -0.276 N 
ATOM      2  C   UNL     1       7.970   1.682  25.156  0.00  0.00    +0.334 A 
ATOM      3  O   UNL     1       7.512   2.674  25.732  0.00  0.00    -0.246 OA
ATOM      4  N   UNL     1       8.396   1.744  23.812  0.00  0.00    -0.255 N 
ATOM      5  C   UNL     1       8.829   0.653  23.048  0.00  0.00    +0.283 A 
ATOM      6  O   UNL     1       9.137   0.700  21.862  0.00  0.00    -0.265 OA
ATOM      7  C   UNL     1       8.847  -0.561  23.783  0.00  0.00    +0.149 A 
ATOM      8  N   UNL     1       9.167  -1.837  23.410  0.00  0.00    -0.336 N 
ATOM      9  H   UNL     1       9.474  -2.131  22.492  0.00  0.00    +0.167 HD
ATOM     10  C   UNL     1       8.940  -2.646  24.508  0.00  0.00    +0.114 A 
ATOM     11  N   UNL     1       8.544  -1.926  25.543  0.00  0.00    -0.214 NA
ATOM     12  C   UNL     1       8.486  -0.648  25.088  0.00  0.00    +0.168 A 
ENDROOT
BRANCH   1  13
ATOM     13  C   UNL     1       7.675   0.307  27.208  0.00  0.00    +0.128 C 
BRANCH  13  14
ATOM     14  C   UNL     1       6.190  -0.023  27.409  0.00  0.00    +0.021 C 
BRANCH  14  16
ATOM     15  C   UNL     1       6.304   1.782  29.160  0.00  0.00    +0.004 C 
ATOM     16  C   UNL     1       5.422   1.080  28.137  0.00  0.00    -0.002 C 
ENDBRANCH  14  16
ENDBRANCH  13  14
ENDBRANCH   1  13
BRANCH   4  17
ATOM     17  C   UNL     1       8.319   3.039  23.139  0.00  0.00    +0.168 C 
BRANCH  17  18
ATOM     18  C   UNL     1       9.553   3.887  23.354  0.00  0.00    +0.008 A 
ATOM     19  C   UNL     1       9.435   5.214  23.777  0.00  0.00    +0.128 A 
ATOM     20  F   UNL     1       8.225   5.739  24.013  0.00  0.00    -0.205 F 
ATOM     21  C   UNL     1      10.557   6.015  23.982  0.00  0.00    +0.039 A 
ATOM     22  C   UNL     1      11.830   5.490  23.769  0.00  0.00    +0.003 A 
ATOM     23  C   UNL     1      11.970   4.164  23.361  0.00  0.00    +0.000 A 
ATOM     24  C   UNL     1      10.841   3.366  23.159  0.00  0.00    +0.008 A 
ENDBRANCH  17  18
ENDBRANCH   4  17
BRANCH  10  25
ATOM     25  C   UNL     1       9.070  -4.138  24.485  0.00  0.00    +0.109 C 
BRANCH  25  26
ATOM     26  C   UNL     1       7.805  -4.901  24.156  0.00  0.00    -0.040 A 
ATOM     27  C   UNL     1       6.901  -5.209  25.182  0.00  0.00    +0.006 A 
ATOM     28  C   UNL     1       5.696  -5.866  24.903  0.00  0.00    +0.023 A 
ATOM     29  C   UNL     1       5.377  -6.245  23.595  0.00  0.00    +0.033 A 
ATOM     30  C   UNL     1       6.319  -6.022  22.590  0.00  0.00    +0.023 A 
ATOM     31  C   UNL     1       7.525  -5.369  22.868  0.00  0.00    +0.006 A 
BRANCH  29  32
ATOM     32  N   UNL     1       4.097  -6.790  23.359  0.00  0.00    -0.286 N 
ATOM     33  H   UNL     1       4.032  -7.799  23.360  0.00  0.00    +0.155 HD
ATOM     34  C   UNL     1       2.921  -6.084  23.162  0.00  0.00    +0.214 C 
ATOM     35  O   UNL     1       2.810  -4.874  22.985  0.00  0.00    -0.276 OA
ATOM     36  C   UNL     1       1.702  -6.971  23.166  0.00  0.00    +0.109 C 
ENDBRANCH  29  32
ENDBRANCH  25  26
ENDBRANCH  10  25
TORSDOF 8
ENDMDL
MODEL 8
REMARK VINA RESULT:      -7.3      2.406      3.326
REMARK  Name = 
REMARK  10 active torsions:
REMARK  status: ('A' for Active; 'I' for Inactive)
REMARK    1  A    between atoms: C_1  and  C_2
REMARK    2  A    between atoms: C_2  and  C_3
REMARK    3  A    between atoms: C_3  and  C_4
REMARK    4  A    between atoms: C_4  and  N_5
REMARK    5  A    between atoms: C_9  and  C_10
REMARK    6  A    between atoms: C_10  and  C_11
REMARK    7  A    between atoms: C_14  and  N_15
REMARK    8  A    between atoms: C_16  and  C_17
REMARK    9  A    between atoms: N_24  and  C_25
REMARK   10  A    between atoms: C_25  and  C_26
REMARK                            x       y       z     vdW  Elec       q    Type
REMARK                         _______ _______ _______ _____ _____    ______ ____
ROOT
ATOM      1  N   UNL     1       5.397  -2.138  24.963  0.00  0.00    -0.276 N 
ATOM      2  C   UNL     1       4.492  -3.154  25.289  0.00  0.00    +0.334 A 
ATOM      3  O   UNL     1       3.592  -2.972  26.115  0.00  0.00    -0.246 OA
ATOM      4  N   UNL     1       4.653  -4.397  24.641  0.00  0.00    -0.255 N 
ATOM      5  C   UNL     1       5.701  -4.729  23.773  0.00  0.00    +0.283 A 
ATOM      6  O   UNL     1       5.873  -5.831  23.263  0.00  0.00    -0.265 OA
ATOM      7  C   UNL     1       6.597  -3.650  23.555  0.00  0.00    +0.149 A 
ATOM      8  N   UNL     1       7.744  -3.566  22.817  0.00  0.00    -0.336 N 
ATOM      9  H   UNL     1       8.155  -4.307  22.264  0.00  0.00    +0.167 HD
ATOM     10  C   UNL     1       8.258  -2.298  23.015  0.00  0.00    +0.114 A 
ATOM     11  N   UNL     1       7.462  -1.590  23.797  0.00  0.00    -0.214 NA
ATOM     12  C   UNL     1       6.446  -2.429  24.127  0.00  0.00    +0.168 A 
ENDROOT
BRANCH   1  13
ATOM     13  C   UNL     1       5.285  -0.815  25.578  0.00  0.00    +0.128 C 
BRANCH  13  14
ATOM     14  C   UNL     1       5.983  -0.686  26.939  0.00  0.00    +0.021 C 
BRANCH  14  16
ATOM     15  C   UNL     1       8.499  -0.679  27.016  0.00  0.00    +0.004 C 
ATOM     16  C   UNL     1       7.246   0.175  26.888  0.00  0.00    -0.002 C 
ENDBRANCH  14  16
ENDBRANCH  13  14
ENDBRANCH   1  13
BRANCH   4  17
ATOM     17  C   UNL     1       3.687  -5.449  24.950  0.00  0.00    +0.168 C 
BRANCH  17  18
ATOM     18  C   UNL     1       3.836  -5.989  26.355  0.00  0.00    +0.008 A 
ATOM     19  C   UNL     1       2.708  -6.216  27.150  0.00  0.00    +0.128 A 
ATOM     20  F   UNL     1       1.483  -5.971  26.664  0.00  0.00    -0.205 F 
ATOM     21  C   UNL     1       2.819  -6.713  28.447  0.00  0.00    +0.039 A 
ATOM     22  C   UNL     1       4.077  -7.002  28.971  0.00  0.00    +0.003 A 
ATOM     23  C   UNL     1       5.214  -6.797  28.190  0.00  0.00    +0.000 A 
ATOM     24  C   UNL     1       5.096  -6.299  26.890  0.00  0.00    +0.008 A 
ENDBRANCH  17  18
ENDBRANCH   4  17
BRANCH  10  25
ATOM     25  C   UNL     1       9.571  -1.834  22.463  0.00  0.00    +0.109 C 
BRANCH  25  26
ATOM     26  C   UNL     1       9.917  -0.384  22.724  0.00  0.00    -0.040 A 
ATOM     27  C   UNL     1       9.670   0.572  21.728  0.00  0.00    +0.006 A 
ATOM     28  C   UNL     1       9.927   1.930  21.956  0.00  0.00    +0.023 A 
ATOM     29  C   UNL     1      10.454   2.358  23.179  0.00  0.00    +0.033 A 
ATOM     30  C   UNL     1      10.788   1.397  24.134  0.00  0.00    +0.023 A 
ATOM     31  C   UNL     1      10.534   0.040  23.906  0.00  0.00    +0.006 A 
BRANCH  29  32
ATOM     32  N   UNL     1      10.574   3.748  23.394  0.00  0.00    -0.286 N 
ATOM     33  H   UNL     1      11.478   4.156  23.198  0.00  0.00    +0.155 HD
ATOM     34  C   UNL     1       9.573   4.610  23.813  0.00  0.00    +0.214 C 
ATOM     35  O   UNL     1       8.463   4.298  24.235  0.00  0.00    -0.276 OA
ATOM     36  C   UNL     1       9.976   6.059  23.722  0.00  0.00    +0.109 C 
ENDBRANCH  29  32
ENDBRANCH  25  26
ENDBRANCH  10  25
TORSDOF 8
ENDMDL
MODEL 9
REMARK VINA RESULT:      -7.0      2.154      2.593
REMARK  Name = 
REMARK  10 active torsions:
REMARK  status: ('A' for Active; 'I' for Inactive)
REMARK    1  A    between atoms: C_1  and  C_2
REMARK    2  A    between atoms: C_2  and  C_3
REMARK    3  A    between atoms: C_3  and  C_4
REMARK    4  A    between atoms: C_4  and  N_5
REMARK    5  A    between atoms: C_9  and  C_10
REMARK    6  A    between atoms: C_10  and  C_11
REMARK    7  A    between atoms: C_14  and  N_15
REMARK    8  A    between atoms: C_16  and  C_17
REMARK    9  A    between atoms: N_24  and  C_25
REMARK   10  A    between atoms: C_25  and  C_26
REMARK                            x       y       z     vdW  Elec       q    Type
REMARK                         _______ _______ _______ _____ _____    ______ ____
ROOT
ATOM      1  N   UNL     1       6.396  -2.950  25.741  0.00  0.00    -0.276 N 
ATOM      2  C   UNL     1       5.542  -4.031  25.983  0.00  0.00    +0.334 A 
ATOM      3  O   UNL     1       4.905  -4.123  27.038  0.00  0.00    -0.246 OA
ATOM      4  N   UNL     1       5.443  -5.017  24.978  0.00  0.00    -0.255 N 
ATOM      5  C   UNL     1       6.201  -5.052  23.801  0.00  0.00    +0.283 A 
ATOM      6  O   UNL     1       6.158  -5.944  22.961  0.00  0.00    -0.265 OA
ATOM      7  C   UNL     1       7.079  -3.944  23.678  0.00  0.00    +0.149 A 
ATOM      8  N   UNL     1       7.996  -3.621  22.717  0.00  0.00    -0.336 N 
ATOM      9  H   UNL     1       8.196  -4.153  21.879  0.00  0.00    +0.167 HD
ATOM     10  C   UNL     1       8.628  -2.465  23.136  0.00  0.00    +0.114 A 
ATOM     11  N   UNL     1       8.115  -2.041  24.277  0.00  0.00    -0.214 NA
ATOM     12  C   UNL     1       7.167  -2.956  24.605  0.00  0.00    +0.168 A 
ENDROOT
BRANCH   1  13
ATOM     13  C   UNL     1       6.540  -1.878  26.727  0.00  0.00    +0.128 C 
BRANCH  13  14
ATOM     14  C   UNL     1       5.568  -0.706  26.537  0.00  0.00    +0.021 C 
BRANCH  14  16
ATOM     15  C   UNL     1       4.191  -1.022  28.619  0.00  0.00    +0.004 C 
ATOM     16  C   UNL     1       5.112  -0.081  27.856  0.00  0.00    -0.002 C 
ENDBRANCH  14  16
ENDBRANCH  13  14
ENDBRANCH   1  13
BRANCH   4  17
ATOM     17  C   UNL     1       4.523  -6.128  25.210  0.00  0.00    +0.168 C 
BRANCH  17  18
ATOM     18  C   UNL     1       3.100  -5.806  24.813  0.00  0.00    +0.008 A 
ATOM     19  C   UNL     1       2.100  -5.699  25.784  0.00  0.00    +0.128 A 
ATOM     20  F   UNL     1       2.401  -5.866  27.079  0.00  0.00    -0.205 F 
ATOM     21  C   UNL     1       0.782  -5.403  25.442  0.00  0.00    +0.039 A 
ATOM     22  C   UNL     1       0.443  -5.200  24.106  0.00  0.00    +0.003 A 
ATOM     23  C   UNL     1       1.428  -5.287  23.123  0.00  0.00    +0.000 A 
ATOM     24  C   UNL     1       2.749  -5.583  23.473  0.00  0.00    +0.008 A 
ENDBRANCH  17  18
ENDBRANCH   4  17
BRANCH  10  25
ATOM     25  C   UNL     1       9.779  -1.835  22.412  0.00  0.00    +0.109 C 
BRANCH  25  26
ATOM     26  C   UNL     1       9.988  -0.359  22.673  0.00  0.00    -0.040 A 
ATOM     27  C   UNL     1       9.583   0.574  21.709  0.00  0.00    +0.006 A 
ATOM     28  C   UNL     1       9.713   1.949  21.941  0.00  0.00    +0.023 A 
ATOM     29  C   UNL     1      10.267   2.420  23.136  0.00  0.00    +0.033 A 
ATOM     30  C   UNL     1      10.756   1.490  24.055  0.00  0.00    +0.023 A 
ATOM     31  C   UNL     1      10.629   0.116  23.822  0.00  0.00    +0.006 A 
BRANCH  29  32
ATOM     32  N   UNL     1      10.256   3.813  23.365  0.00  0.00    -0.286 N 
ATOM     33  H   UNL     1      10.958   4.352  22.877  0.00  0.00    +0.155 HD
ATOM     34  C   UNL     1       9.362   4.514  24.159  0.00  0.00    +0.214 C 
ATOM     35  O   UNL     1       8.538   4.039  24.935  0.00  0.00    -0.276 OA
ATOM     36  C   UNL     1       9.492   6.008  24.003  0.00  0.00    +0.109 C 
ENDBRANCH  29  32
ENDBRANCH  25  26
ENDBRANCH  10  25
TORSDOF 8
ENDMDL
