MODEL 1
REMARK VINA RESULT:      -5.0      0.000      0.000
REMARK  Name = 
REMARK  18 active torsions:
REMARK  status: ('A' for Active; 'I' for Inactive)
REMARK    1  A    between atoms: C_1  and  C_2
REMARK    2  A    between atoms: C_2  and  C_3
REMARK    3  A    between atoms: C_3  and  C_4
REMARK    4  A    between atoms: C_4  and  C_5
REMARK    5  A    between atoms: C_5  and  C_6
REMARK    6  A    between atoms: C_6  and  C_7
REMARK    7  A    between atoms: C_7  and  O_9
REMARK    8  A    between atoms: C_7  and  C_10
REMARK    9  A    between atoms: C_10  and  C_11
REMARK   10  A    between atoms: C_12  and  C_13
REMARK   11  A    between atoms: C_13  and  C_14
REMARK   12  A    between atoms: C_14  and  C_15
REMARK   13  A    between atoms: C_15  and  C_16
REMARK   14  A    between atoms: C_16  and  C_17
REMARK   15  A    between atoms: C_17  and  C_18
REMARK   16  A    between atoms: C_18  and  C_19
REMARK   17  A    between atoms: C_19  and  C_20
REMARK   18  A    between atoms: C_20  and  O_21
REMARK                            x       y       z     vdW  Elec       q    Type
REMARK                         _______ _______ _______ _____ _____    ______ ____
ROOT
ATOM      1  C   UNL     1       8.001  -2.037  23.204  0.00  0.00    -0.029 C 
ATOM      2  C   UNL     1       7.312  -3.002  22.579  0.00  0.00    -0.031 C 
ENDROOT
BRANCH   2   3
ATOM      3  C   UNL     1       5.843  -2.917  22.284  0.00  0.00    +0.027 C 
BRANCH   3   4
ATOM      4  C   UNL     1       5.058  -3.457  23.481  0.00  0.00    +0.004 C 
BRANCH   4   5
ATOM      5  C   UNL     1       4.769  -4.951  23.353  0.00  0.00    +0.000 C 
BRANCH   5   6
ATOM      6  C   UNL     1       5.435  -5.718  24.496  0.00  0.00    +0.000 C 
BRANCH   6   7
ATOM      7  C   UNL     1       5.917  -4.784  25.602  0.00  0.00    +0.001 C 
BRANCH   7   8
ATOM      8  C   UNL     1       7.041  -5.435  26.412  0.00  0.00    +0.011 C 
BRANCH   8   9
ATOM      9  C   UNL     1       8.357  -4.679  26.254  0.00  0.00    +0.120 C 
BRANCH   9  10
ATOM     10  C   UNL     1       9.267  -5.346  25.248  0.00  0.00    +0.305 C 
ATOM     11  O   UNL     1       8.962  -5.647  24.106  0.00  0.00    -0.251 OA
BRANCH  10  12
ATOM     12  O   UNL     1      10.501  -5.584  25.751  0.00  0.00    -0.481 OA
ATOM     13  H   UNL     1      10.726  -5.023  26.517  0.00  0.00    +0.295 HD
ENDBRANCH  10  12
ENDBRANCH   9  10
ENDBRANCH   8   9
ENDBRANCH   7   8
ENDBRANCH   6   7
ENDBRANCH   5   6
ENDBRANCH   4   5
ENDBRANCH   3   4
ENDBRANCH   2   3
BRANCH   1  14
ATOM     14  C   UNL     1       9.441  -2.179  23.624  0.00  0.00    +0.058 C 
BRANCH  14  15
ATOM     15  C   UNL     1      10.365  -1.285  22.771  0.00  0.00    +0.118 C 
BRANCH  15  16
ATOM     16  O   UNL     1      10.132  -1.522  21.377  0.00  0.00    -0.391 OA
ATOM     17  H   UNL     1      10.546  -2.373  21.153  0.00  0.00    +0.210 HD
ENDBRANCH  15  16
BRANCH  15  18
ATOM     18  C   UNL     1      10.153   0.218  23.005  0.00  0.00    +0.031 C 
BRANCH  18  19
ATOM     19  C   UNL     1       9.783   0.964  21.728  0.00  0.00    +0.003 C 
BRANCH  19  20
ATOM     20  C   UNL     1       8.748   2.069  21.939  0.00  0.00    +0.000 C 
BRANCH  20  21
ATOM     21  C   UNL     1       7.399   1.420  22.258  0.00  0.00    -0.000 C 
BRANCH  21  23
ATOM     22  C   UNL     1       6.788   3.844  22.296  0.00  0.00    +0.004 C 
ATOM     23  C   UNL     1       6.306   2.430  22.589  0.00  0.00    -0.003 C 
ENDBRANCH  21  23
ENDBRANCH  20  21
ENDBRANCH  19  20
ENDBRANCH  18  19
ENDBRANCH  15  18
ENDBRANCH  14  15
ENDBRANCH   1  14
TORSDOF 17
ENDMDL
MODEL 2
REMARK VINA RESULT:      -5.0      2.131      7.162
REMARK  Name = 
REMARK  18 active torsions:
REMARK  status: ('A' for Active; 'I' for Inactive)
REMARK    1  A    between atoms: C_1  and  C_2
REMARK    2  A    between atoms: C_2  and  C_3
REMARK    3  A    between atoms: C_3  and  C_4
REMARK    4  A    between atoms: C_4  and  C_5
REMARK    5  A    between atoms: C_5  and  C_6
REMARK    6  A    between atoms: C_6  and  C_7
REMARK    7  A    between atoms: C_7  and  O_9
REMARK    8  A    between atoms: C_7  and  C_10
REMARK    9  A    between atoms: C_10  and  C_11
REMARK   10  A    between atoms: C_12  and  C_13
REMARK   11  A    between atoms: C_13  and  C_14
REMARK   12  A    between atoms: C_14  and  C_15
REMARK   13  A    between atoms: C_15  and  C_16
REMARK   14  A    between atoms: C_16  and  C_17
REMARK   15  A    between atoms: C_17  and  C_18
REMARK   16  A    between atoms: C_18  and  C_19
REMARK   17  A    between atoms: C_19  and  C_20
REMARK   18  A    between atoms: C_20  and  O_21
REMARK                            x       y       z     vdW  Elec       q    Type
REMARK                         _______ _______ _______ _____ _____    ______ ____
ROOT
ATOM      1  C   UNL     1       8.977  -3.522  25.593  0.00  0.00    -0.029 C 
ATOM      2  C   UNL     1       9.511  -3.274  24.388  0.00  0.00    -0.031 C 
ENDROOT
BRANCH   2   3
ATOM      3  C   UNL     1       9.358  -1.969  23.663  0.00  0.00    +0.027 C 
BRANCH   3   4
ATOM      4  C   UNL     1       8.797  -0.922  24.626  0.00  0.00    +0.004 C 
BRANCH   4   5
ATOM      5  C   UNL     1       9.888  -0.012  25.187  0.00  0.00    +0.000 C 
BRANCH   5   6
ATOM      6  C   UNL     1      10.748   0.542  24.051  0.00  0.00    +0.000 C 
BRANCH   6   7
ATOM      7  C   UNL     1      10.229   1.886  23.548  0.00  0.00    +0.001 C 
BRANCH   7   8
ATOM      8  C   UNL     1      10.032   1.860  22.031  0.00  0.00    +0.011 C 
BRANCH   8   9
ATOM      9  C   UNL     1       8.765   1.104  21.642  0.00  0.00    +0.120 C 
BRANCH   9  10
ATOM     10  C   UNL     1       7.520   1.896  21.967  0.00  0.00    +0.305 C 
ATOM     11  O   UNL     1       7.411   3.108  21.894  0.00  0.00    -0.251 OA
BRANCH  10  12
ATOM     12  O   UNL     1       6.495   1.102  22.358  0.00  0.00    -0.481 OA
ATOM     13  H   UNL     1       6.493   0.225  21.929  0.00  0.00    +0.295 HD
ENDBRANCH  10  12
ENDBRANCH   9  10
ENDBRANCH   8   9
ENDBRANCH   7   8
ENDBRANCH   6   7
ENDBRANCH   5   6
ENDBRANCH   4   5
ENDBRANCH   3   4
ENDBRANCH   2   3
BRANCH   1  14
ATOM     14  C   UNL     1       9.010  -4.873  26.258  0.00  0.00    +0.058 C 
BRANCH  14  15
ATOM     15  C   UNL     1       7.586  -5.391  26.548  0.00  0.00    +0.118 C 
BRANCH  15  16
ATOM     16  O   UNL     1       7.549  -6.050  27.820  0.00  0.00    -0.391 OA
ATOM     17  H   UNL     1       7.642  -5.365  28.505  0.00  0.00    +0.210 HD
ENDBRANCH  15  16
BRANCH  15  18
ATOM     18  C   UNL     1       6.526  -4.280  26.595  0.00  0.00    +0.031 C 
BRANCH  18  19
ATOM     19  C   UNL     1       5.216  -4.691  25.933  0.00  0.00    +0.003 C 
BRANCH  19  20
ATOM     20  C   UNL     1       5.373  -5.124  24.476  0.00  0.00    +0.000 C 
BRANCH  20  21
ATOM     21  C   UNL     1       5.861  -3.925  23.659  0.00  0.00    -0.000 C 
BRANCH  21  23
ATOM     22  C   UNL     1       7.333  -5.565  22.477  0.00  0.00    +0.004 C 
ATOM     23  C   UNL     1       6.474  -4.317  22.320  0.00  0.00    -0.003 C 
ENDBRANCH  21  23
ENDBRANCH  20  21
ENDBRANCH  19  20
ENDBRANCH  18  19
ENDBRANCH  15  18
ENDBRANCH  14  15
ENDBRANCH   1  14
TORSDOF 17
ENDMDL
MODEL 3
REMARK VINA RESULT:      -4.9      1.956      3.165
REMARK  Name = 
REMARK  18 active torsions:
REMARK  status: ('A' for Active; 'I' for Inactive)
REMARK    1  A    between atoms: C_1  and  C_2
REMARK    2  A    between atoms: C_2  and  C_3
REMARK    3  A    between atoms: C_3  and  C_4
REMARK    4  A    between atoms: C_4  and  C_5
REMARK    5  A    between atoms: C_5  and  C_6
REMARK    6  A    between atoms: C_6  and  C_7
REMARK    7  A    between atoms: C_7  and  O_9
REMARK    8  A    between atoms: C_7  and  C_10
REMARK    9  A    between atoms: C_10  and  C_11
REMARK   10  A    between atoms: C_12  and  C_13
REMARK   11  A    between atoms: C_13  and  C_14
REMARK   12  A    between atoms: C_14  and  C_15
REMARK   13  A    between atoms: C_15  and  C_16
REMARK   14  A    between atoms: C_16  and  C_17
REMARK   15  A    between atoms: C_17  and  C_18
REMARK   16  A    between atoms: C_18  and  C_19
REMARK   17  A    between atoms: C_19  and  C_20
REMARK   18  A    between atoms: C_20  and  O_21
REMARK                            x       y       z     vdW  Elec       q    Type
REMARK                         _______ _______ _______ _____ _____    ______ ____
ROOT
ATOM      1  C   UNL     1      10.561   0.049  24.439  0.00  0.00    -0.029 C 
ATOM      2  C   UNL     1       9.415  -0.331  25.023  0.00  0.00    -0.031 C 
ENDROOT
BRANCH   2   3
ATOM      3  C   UNL     1       8.926  -1.749  25.049  0.00  0.00    +0.027 C 
BRANCH   3   4
ATOM      4  C   UNL     1       9.109  -2.370  23.664  0.00  0.00    +0.004 C 
BRANCH   4   5
ATOM      5  C   UNL     1       7.804  -2.408  22.873  0.00  0.00    +0.000 C 
BRANCH   5   6
ATOM      6  C   UNL     1       7.394  -3.856  22.600  0.00  0.00    +0.000 C 
BRANCH   6   7
ATOM      7  C   UNL     1       6.077  -4.213  23.283  0.00  0.00    +0.001 C 
BRANCH   7   8
ATOM      8  C   UNL     1       6.289  -5.301  24.338  0.00  0.00    +0.011 C 
BRANCH   8   9
ATOM      9  C   UNL     1       6.751  -4.712  25.668  0.00  0.00    +0.120 C 
BRANCH   9  10
ATOM     10  C   UNL     1       8.039  -5.346  26.142  0.00  0.00    +0.305 C 
ATOM     11  O   UNL     1       9.054  -5.469  25.479  0.00  0.00    -0.251 OA
BRANCH  10  12
ATOM     12  O   UNL     1       7.957  -5.777  27.423  0.00  0.00    -0.481 OA
ATOM     13  H   UNL     1       8.660  -6.406  27.669  0.00  0.00    +0.295 HD
ENDBRANCH  10  12
ENDBRANCH   9  10
ENDBRANCH   8   9
ENDBRANCH   7   8
ENDBRANCH   6   7
ENDBRANCH   5   6
ENDBRANCH   4   5
ENDBRANCH   3   4
ENDBRANCH   2   3
BRANCH   1  14
ATOM     14  C   UNL     1      10.984   1.487  24.290  0.00  0.00    +0.058 C 
BRANCH  14  15
ATOM     15  C   UNL     1      10.114   2.222  23.248  0.00  0.00    +0.118 C 
BRANCH  15  16
ATOM     16  O   UNL     1      10.626   3.542  23.021  0.00  0.00    -0.391 OA
ATOM     17  H   UNL     1       9.975   4.171  23.377  0.00  0.00    +0.210 HD
ENDBRANCH  15  16
BRANCH  15  18
ATOM     18  C   UNL     1      10.071   1.524  21.881  0.00  0.00    +0.031 C 
BRANCH  18  19
ATOM     19  C   UNL     1       8.663   1.088  21.489  0.00  0.00    +0.003 C 
BRANCH  19  20
ATOM     20  C   UNL     1       7.558   1.893  22.174  0.00  0.00    +0.000 C 
BRANCH  20  21
ATOM     21  C   UNL     1       6.566   0.916  22.811  0.00  0.00    -0.000 C 
BRANCH  21  23
ATOM     22  C   UNL     1       5.743   0.168  25.050  0.00  0.00    +0.004 C 
ATOM     23  C   UNL     1       6.060   1.372  24.174  0.00  0.00    -0.003 C 
ENDBRANCH  21  23
ENDBRANCH  20  21
ENDBRANCH  19  20
ENDBRANCH  18  19
ENDBRANCH  15  18
ENDBRANCH  14  15
ENDBRANCH   1  14
TORSDOF 17
ENDMDL
MODEL 4
REMARK VINA RESULT:      -4.9      2.098      6.707
REMARK  Name = 
REMARK  18 active torsions:
REMARK  status: ('A' for Active; 'I' for Inactive)
REMARK    1  A    between atoms: C_1  and  C_2
REMARK    2  A    between atoms: C_2  and  C_3
REMARK    3  A    between atoms: C_3  and  C_4
REMARK    4  A    between atoms: C_4  and  C_5
REMARK    5  A    between atoms: C_5  and  C_6
REMARK    6  A    between atoms: C_6  and  C_7
REMARK    7  A    between atoms: C_7  and  O_9
REMARK    8  A    between atoms: C_7  and  C_10
REMARK    9  A    between atoms: C_10  and  C_11
REMARK   10  A    between atoms: C_12  and  C_13
REMARK   11  A    between atoms: C_13  and  C_14
REMARK   12  A    between atoms: C_14  and  C_15
REMARK   13  A    between atoms: C_15  and  C_16
REMARK   14  A    between atoms: C_16  and  C_17
REMARK   15  A    between atoms: C_17  and  C_18
REMARK   16  A    between atoms: C_18  and  C_19
REMARK   17  A    between atoms: C_19  and  C_20
REMARK   18  A    between atoms: C_20  and  O_21
REMARK                            x       y       z     vdW  Elec       q    Type
REMARK                         _______ _______ _______ _____ _____    ______ ____
ROOT
ATOM      1  C   UNL     1       8.536  -2.892  25.624  0.00  0.00    -0.029 C 
ATOM      2  C   UNL     1       8.828  -3.276  24.373  0.00  0.00    -0.031 C 
ENDROOT
BRANCH   2   3
ATOM      3  C   UNL     1       9.681  -2.475  23.434  0.00  0.00    +0.027 C 
BRANCH   3   4
ATOM      4  C   UNL     1       8.783  -1.765  22.421  0.00  0.00    +0.004 C 
BRANCH   4   5
ATOM      5  C   UNL     1       9.569  -0.808  21.527  0.00  0.00    +0.000 C 
BRANCH   5   6
ATOM      6  C   UNL     1       8.977   0.599  21.610  0.00  0.00    +0.000 C 
BRANCH   6   7
ATOM      7  C   UNL     1      10.041   1.646  21.927  0.00  0.00    +0.001 C 
BRANCH   7   8
ATOM      8  C   UNL     1       9.738   2.347  23.252  0.00  0.00    +0.011 C 
BRANCH   8   9
ATOM      9  C   UNL     1       9.037   1.414  24.235  0.00  0.00    +0.120 C 
BRANCH   9  10
ATOM     10  C   UNL     1      10.027   0.668  25.101  0.00  0.00    +0.305 C 
ATOM     11  O   UNL     1      11.207   0.498  24.843  0.00  0.00    -0.251 OA
BRANCH  10  12
ATOM     12  O   UNL     1       9.460   0.192  26.234  0.00  0.00    -0.481 OA
ATOM     13  H   UNL     1      10.082  -0.292  26.810  0.00  0.00    +0.295 HD
ENDBRANCH  10  12
ENDBRANCH   9  10
ENDBRANCH   8   9
ENDBRANCH   7   8
ENDBRANCH   6   7
ENDBRANCH   5   6
ENDBRANCH   4   5
ENDBRANCH   3   4
ENDBRANCH   2   3
BRANCH   1  14
ATOM     14  C   UNL     1       7.568  -3.623  26.517  0.00  0.00    +0.058 C 
BRANCH  14  15
ATOM     15  C   UNL     1       7.568  -5.138  26.223  0.00  0.00    +0.118 C 
BRANCH  15  16
ATOM     16  O   UNL     1       7.977  -5.867  27.388  0.00  0.00    -0.391 OA
ATOM     17  H   UNL     1       7.643  -5.385  28.164  0.00  0.00    +0.210 HD
ENDBRANCH  15  16
BRANCH  15  18
ATOM     18  C   UNL     1       6.191  -5.686  25.820  0.00  0.00    +0.031 C 
BRANCH  18  19
ATOM     19  C   UNL     1       5.348  -4.659  25.072  0.00  0.00    +0.003 C 
BRANCH  19  20
ATOM     20  C   UNL     1       4.911  -5.118  23.681  0.00  0.00    +0.000 C 
BRANCH  20  21
ATOM     21  C   UNL     1       5.491  -4.153  22.644  0.00  0.00    -0.000 C 
BRANCH  21  23
ATOM     22  C   UNL     1       6.668  -6.254  21.974  0.00  0.00    +0.004 C 
ATOM     23  C   UNL     1       6.664  -4.736  21.865  0.00  0.00    -0.003 C 
ENDBRANCH  21  23
ENDBRANCH  20  21
ENDBRANCH  19  20
ENDBRANCH  18  19
ENDBRANCH  15  18
ENDBRANCH  14  15
ENDBRANCH   1  14
TORSDOF 17
ENDMDL
MODEL 5
REMARK VINA RESULT:      -4.9      2.093      3.336
REMARK  Name = 
REMARK  18 active torsions:
REMARK  status: ('A' for Active; 'I' for Inactive)
REMARK    1  A    between atoms: C_1  and  C_2
REMARK    2  A    between atoms: C_2  and  C_3
REMARK    3  A    between atoms: C_3  and  C_4
REMARK    4  A    between atoms: C_4  and  C_5
REMARK    5  A    between atoms: C_5  and  C_6
REMARK    6  A    between atoms: C_6  and  C_7
REMARK    7  A    between atoms: C_7  and  O_9
REMARK    8  A    between atoms: C_7  and  C_10
REMARK    9  A    between atoms: C_10  and  C_11
REMARK   10  A    between atoms: C_12  and  C_13
REMARK   11  A    between atoms: C_13  and  C_14
REMARK   12  A    between atoms: C_14  and  C_15
REMARK   13  A    between atoms: C_15  and  C_16
REMARK   14  A    between atoms: C_16  and  C_17
REMARK   15  A    between atoms: C_17  and  C_18
REMARK   16  A    between atoms: C_18  and  C_19
REMARK   17  A    between atoms: C_19  and  C_20
REMARK   18  A    between atoms: C_20  and  O_21
REMARK                            x       y       z     vdW  Elec       q    Type
REMARK                         _______ _______ _______ _____ _____    ______ ____
ROOT
ATOM      1  C   UNL     1       8.728   0.488  21.850  0.00  0.00    -0.029 C 
ATOM      2  C   UNL     1       9.452  -0.631  21.700  0.00  0.00    -0.031 C 
ENDROOT
BRANCH   2   3
ATOM      3  C   UNL     1       8.912  -2.009  21.943  0.00  0.00    +0.027 C 
BRANCH   3   4
ATOM      4  C   UNL     1       7.451  -1.907  22.383  0.00  0.00    +0.004 C 
BRANCH   4   5
ATOM      5  C   UNL     1       6.765  -3.269  22.424  0.00  0.00    +0.000 C 
BRANCH   5   6
ATOM      6  C   UNL     1       5.551  -3.222  23.352  0.00  0.00    +0.000 C 
BRANCH   6   7
ATOM      7  C   UNL     1       5.581  -4.346  24.385  0.00  0.00    +0.001 C 
BRANCH   7   8
ATOM      8  C   UNL     1       6.849  -5.188  24.238  0.00  0.00    +0.011 C 
BRANCH   8   9
ATOM      9  C   UNL     1       7.766  -5.038  25.448  0.00  0.00    +0.120 C 
BRANCH   9  10
ATOM     10  C   UNL     1       9.215  -4.900  25.038  0.00  0.00    +0.305 C 
ATOM     11  O   UNL     1       9.724  -3.901  24.560  0.00  0.00    -0.251 OA
BRANCH  10  12
ATOM     12  O   UNL     1       9.921  -6.033  25.263  0.00  0.00    -0.481 OA
ATOM     13  H   UNL     1      10.467  -6.311  24.504  0.00  0.00    +0.295 HD
ENDBRANCH  10  12
ENDBRANCH   9  10
ENDBRANCH   8   9
ENDBRANCH   7   8
ENDBRANCH   6   7
ENDBRANCH   5   6
ENDBRANCH   4   5
ENDBRANCH   3   4
ENDBRANCH   2   3
BRANCH   1  14
ATOM     14  C   UNL     1       9.305   1.876  21.743  0.00  0.00    +0.058 C 
BRANCH  14  15
ATOM     15  C   UNL     1      10.479   2.073  22.725  0.00  0.00    +0.118 C 
BRANCH  15  16
ATOM     16  O   UNL     1      11.012   3.397  22.598  0.00  0.00    -0.391 OA
ATOM     17  H   UNL     1      10.851   3.688  21.683  0.00  0.00    +0.210 HD
ENDBRANCH  15  16
BRANCH  15  18
ATOM     18  C   UNL     1      10.084   1.896  24.199  0.00  0.00    +0.031 C 
BRANCH  18  19
ATOM     19  C   UNL     1      10.643   0.614  24.806  0.00  0.00    +0.003 C 
BRANCH  19  20
ATOM     20  C   UNL     1       9.592  -0.241  25.513  0.00  0.00    +0.000 C 
BRANCH  20  21
ATOM     21  C   UNL     1       8.277   0.541  25.561  0.00  0.00    -0.000 C 
BRANCH  21  23
ATOM     22  C   UNL     1       7.244  -1.598  26.341  0.00  0.00    +0.004 C 
ATOM     23  C   UNL     1       7.042  -0.350  25.494  0.00  0.00    -0.003 C 
ENDBRANCH  21  23
ENDBRANCH  20  21
ENDBRANCH  19  20
ENDBRANCH  18  19
ENDBRANCH  15  18
ENDBRANCH  14  15
ENDBRANCH   1  14
TORSDOF 17
ENDMDL
MODEL 6
REMARK VINA RESULT:      -4.9      1.219      2.162
REMARK  Name = 
REMARK  18 active torsions:
REMARK  status: ('A' for Active; 'I' for Inactive)
REMARK    1  A    between atoms: C_1  and  C_2
REMARK    2  A    between atoms: C_2  and  C_3
REMARK    3  A    between atoms: C_3  and  C_4
REMARK    4  A    between atoms: C_4  and  C_5
REMARK    5  A    between atoms: C_5  and  C_6
REMARK    6  A    between atoms: C_6  and  C_7
REMARK    7  A    between atoms: C_7  and  O_9
REMARK    8  A    between atoms: C_7  and  C_10
REMARK    9  A    between atoms: C_10  and  C_11
REMARK   10  A    between atoms: C_12  and  C_13
REMARK   11  A    between atoms: C_13  and  C_14
REMARK   12  A    between atoms: C_14  and  C_15
REMARK   13  A    between atoms: C_15  and  C_16
REMARK   14  A    between atoms: C_16  and  C_17
REMARK   15  A    between atoms: C_17  and  C_18
REMARK   16  A    between atoms: C_18  and  C_19
REMARK   17  A    between atoms: C_19  and  C_20
REMARK   18  A    between atoms: C_20  and  O_21
REMARK                            x       y       z     vdW  Elec       q    Type
REMARK                         _______ _______ _______ _____ _____    ______ ____
ROOT
ATOM      1  C   UNL     1       6.906  -2.986  22.694  0.00  0.00    -0.029 C 
ATOM      2  C   UNL     1       5.595  -2.883  22.956  0.00  0.00    -0.031 C 
ENDROOT
BRANCH   2   3
ATOM      3  C   UNL     1       4.659  -4.055  22.988  0.00  0.00    +0.027 C 
BRANCH   3   4
ATOM      4  C   UNL     1       5.369  -5.249  23.628  0.00  0.00    +0.004 C 
BRANCH   4   5
ATOM      5  C   UNL     1       4.705  -5.682  24.933  0.00  0.00    +0.000 C 
BRANCH   5   6
ATOM      6  C   UNL     1       5.685  -5.537  26.097  0.00  0.00    +0.000 C 
BRANCH   6   7
ATOM      7  C   UNL     1       6.060  -4.080  26.349  0.00  0.00    +0.001 C 
BRANCH   7   8
ATOM      8  C   UNL     1       7.579  -3.902  26.359  0.00  0.00    +0.011 C 
BRANCH   8   9
ATOM      9  C   UNL     1       8.303  -5.243  26.269  0.00  0.00    +0.120 C 
BRANCH   9  10
ATOM     10  C   UNL     1       9.298  -5.266  25.131  0.00  0.00    +0.305 C 
ATOM     11  O   UNL     1      10.497  -5.072  25.234  0.00  0.00    -0.251 OA
BRANCH  10  12
ATOM     12  O   UNL     1       8.710  -5.536  23.942  0.00  0.00    -0.481 OA
ATOM     13  H   UNL     1       8.612  -4.754  23.367  0.00  0.00    +0.295 HD
ENDBRANCH  10  12
ENDBRANCH   9  10
ENDBRANCH   8   9
ENDBRANCH   7   8
ENDBRANCH   6   7
ENDBRANCH   5   6
ENDBRANCH   4   5
ENDBRANCH   3   4
ENDBRANCH   2   3
BRANCH   1  14
ATOM     14  C   UNL     1       7.818  -1.800  22.523  0.00  0.00    +0.058 C 
BRANCH  14  15
ATOM     15  C   UNL     1       9.302  -2.225  22.550  0.00  0.00    +0.118 C 
BRANCH  15  16
ATOM     16  O   UNL     1      10.017  -1.589  21.483  0.00  0.00    -0.391 OA
ATOM     17  H   UNL     1      10.591  -2.261  21.077  0.00  0.00    +0.210 HD
ENDBRANCH  15  16
BRANCH  15  18
ATOM     18  C   UNL     1      10.025  -1.849  23.852  0.00  0.00    +0.031 C 
BRANCH  18  19
ATOM     19  C   UNL     1       9.407  -0.634  24.536  0.00  0.00    +0.003 C 
BRANCH  19  20
ATOM     20  C   UNL     1      10.368   0.546  24.678  0.00  0.00    +0.000 C 
BRANCH  20  21
ATOM     21  C   UNL     1       9.771   1.753  23.949  0.00  0.00    -0.000 C 
BRANCH  21  23
ATOM     22  C   UNL     1       8.745   1.723  21.669  0.00  0.00    +0.004 C 
ATOM     23  C   UNL     1      10.051   1.752  22.451  0.00  0.00    -0.003 C 
ENDBRANCH  21  23
ENDBRANCH  20  21
ENDBRANCH  19  20
ENDBRANCH  18  19
ENDBRANCH  15  18
ENDBRANCH  14  15
ENDBRANCH   1  14
TORSDOF 17
ENDMDL
MODEL 7
REMARK VINA RESULT:      -4.8      2.310      3.754
REMARK  Name = 
REMARK  18 active torsions:
REMARK  status: ('A' for Active; 'I' for Inactive)
REMARK    1  A    between atoms: C_1  and  C_2
REMARK    2  A    between atoms: C_2  and  C_3
REMARK    3  A    between atoms: C_3  and  C_4
REMARK    4  A    between atoms: C_4  and  C_5
REMARK    5  A    between atoms: C_5  and  C_6
REMARK    6  A    between atoms: C_6  and  C_7
REMARK    7  A    between atoms: C_7  and  O_9
REMARK    8  A    between atoms: C_7  and  C_10
REMARK    9  A    between atoms: C_10  and  C_11
REMARK   10  A    between atoms: C_12  and  C_13
REMARK   11  A    between atoms: C_13  and  C_14
REMARK   12  A    between atoms: C_14  and  C_15
REMARK   13  A    between atoms: C_15  and  C_16
REMARK   14  A    between atoms: C_16  and  C_17
REMARK   15  A    between atoms: C_17  and  C_18
REMARK   16  A    between atoms: C_18  and  C_19
REMARK   17  A    between atoms: C_19  and  C_20
REMARK   18  A    between atoms: C_20  and  O_21
REMARK                            x       y       z     vdW  Elec       q    Type
REMARK                         _______ _______ _______ _____ _____    ______ ____
ROOT
ATOM      1  C   UNL     1       8.458  -3.320  23.912  0.00  0.00    -0.029 C 
ATOM      2  C   UNL     1       9.537  -3.911  24.445  0.00  0.00    -0.031 C 
ENDROOT
BRANCH   2   3
ATOM      3  C   UNL     1       9.469  -4.924  25.550  0.00  0.00    +0.027 C 
BRANCH   3   4
ATOM      4  C   UNL     1       8.572  -4.390  26.667  0.00  0.00    +0.004 C 
BRANCH   4   5
ATOM      5  C   UNL     1       7.462  -5.372  27.034  0.00  0.00    +0.000 C 
BRANCH   5   6
ATOM      6  C   UNL     1       6.137  -4.925  26.416  0.00  0.00    +0.000 C 
BRANCH   6   7
ATOM      7  C   UNL     1       5.740  -5.796  25.228  0.00  0.00    +0.001 C 
BRANCH   7   8
ATOM      8  C   UNL     1       5.572  -4.951  23.964  0.00  0.00    +0.011 C 
BRANCH   8   9
ATOM      9  C   UNL     1       5.144  -5.801  22.771  0.00  0.00    +0.120 C 
BRANCH   9  10
ATOM     10  C   UNL     1       6.182  -5.785  21.673  0.00  0.00    +0.305 C 
ATOM     11  O   UNL     1       5.978  -5.486  20.509  0.00  0.00    -0.251 OA
BRANCH  10  12
ATOM     12  O   UNL     1       7.409  -6.144  22.121  0.00  0.00    -0.481 OA
ATOM     13  H   UNL     1       7.850  -5.453  22.649  0.00  0.00    +0.295 HD
ENDBRANCH  10  12
ENDBRANCH   9  10
ENDBRANCH   8   9
ENDBRANCH   7   8
ENDBRANCH   6   7
ENDBRANCH   5   6
ENDBRANCH   4   5
ENDBRANCH   3   4
ENDBRANCH   2   3
BRANCH   1  14
ATOM     14  C   UNL     1       8.532  -2.203  22.903  0.00  0.00    +0.058 C 
BRANCH  14  15
ATOM     15  C   UNL     1       9.946  -1.588  22.849  0.00  0.00    +0.118 C 
BRANCH  15  16
ATOM     16  O   UNL     1      10.395  -1.500  21.491  0.00  0.00    -0.391 OA
ATOM     17  H   UNL     1      11.308  -1.835  21.464  0.00  0.00    +0.210 HD
ENDBRANCH  15  16
BRANCH  15  18
ATOM     18  C   UNL     1      10.022  -0.169  23.432  0.00  0.00    +0.031 C 
BRANCH  18  19
ATOM     19  C   UNL     1       9.965  -0.157  24.956  0.00  0.00    +0.003 C 
BRANCH  19  20
ATOM     20  C   UNL     1       8.642   0.365  25.517  0.00  0.00    +0.000 C 
BRANCH  20  21
ATOM     21  C   UNL     1       8.138  -0.619  26.576  0.00  0.00    -0.000 C 
BRANCH  21  23
ATOM     22  C   UNL     1       6.093  -0.419  25.152  0.00  0.00    +0.004 C 
ATOM     23  C   UNL     1       6.788  -1.237  26.232  0.00  0.00    -0.003 C 
ENDBRANCH  21  23
ENDBRANCH  20  21
ENDBRANCH  19  20
ENDBRANCH  18  19
ENDBRANCH  15  18
ENDBRANCH  14  15
ENDBRANCH   1  14
TORSDOF 17
ENDMDL
MODEL 8
REMARK VINA RESULT:      -4.8      2.230      3.734
REMARK  Name = 
REMARK  18 active torsions:
REMARK  status: ('A' for Active; 'I' for Inactive)
REMARK    1  A    between atoms: C_1  and  C_2
REMARK    2  A    between atoms: C_2  and  C_3
REMARK    3  A    between atoms: C_3  and  C_4
REMARK    4  A    between atoms: C_4  and  C_5
REMARK    5  A    between atoms: C_5  and  C_6
REMARK    6  A    between atoms: C_6  and  C_7
REMARK    7  A    between atoms: C_7  and  O_9
REMARK    8  A    between atoms: C_7  and  C_10
REMARK    9  A    between atoms: C_10  and  C_11
REMARK   10  A    between atoms: C_12  and  C_13
REMARK   11  A    between atoms: C_13  and  C_14
REMARK   12  A    between atoms: C_14  and  C_15
REMARK   13  A    between atoms: C_15  and  C_16
REMARK   14  A    between atoms: C_16  and  C_17
REMARK   15  A    between atoms: C_17  and  C_18
REMARK   16  A    between atoms: C_18  and  C_19
REMARK   17  A    between atoms: C_19  and  C_20
REMARK   18  A    between atoms: C_20  and  O_21
REMARK                            x       y       z     vdW  Elec       q    Type
REMARK                         _______ _______ _______ _____ _____    ______ ____
ROOT
ATOM      1  C   UNL     1       9.453  -1.122  22.085  0.00  0.00    -0.029 C 
ATOM      2  C   UNL     1       9.708  -1.274  23.392  0.00  0.00    -0.031 C 
ENDROOT
BRANCH   2   3
ATOM      3  C   UNL     1       9.780  -2.609  24.075  0.00  0.00    +0.027 C 
BRANCH   3   4
ATOM      4  C   UNL     1       8.546  -3.431  23.702  0.00  0.00    +0.004 C 
BRANCH   4   5
ATOM      5  C   UNL     1       8.455  -4.728  24.502  0.00  0.00    +0.000 C 
BRANCH   5   6
ATOM      6  C   UNL     1       7.285  -4.662  25.484  0.00  0.00    +0.000 C 
BRANCH   6   7
ATOM      7  C   UNL     1       5.949  -4.493  24.766  0.00  0.00    +0.001 C 
BRANCH   7   8
ATOM      8  C   UNL     1       5.546  -5.786  24.053  0.00  0.00    +0.011 C 
BRANCH   8   9
ATOM      9  C   UNL     1       4.965  -5.507  22.671  0.00  0.00    +0.120 C 
BRANCH   9  10
ATOM     10  C   UNL     1       5.982  -5.744  21.578  0.00  0.00    +0.305 C 
ATOM     11  O   UNL     1       5.935  -5.279  20.452  0.00  0.00    -0.251 OA
BRANCH  10  12
ATOM     12  O   UNL     1       6.992  -6.550  21.984  0.00  0.00    -0.481 OA
ATOM     13  H   UNL     1       7.750  -6.567  21.370  0.00  0.00    +0.295 HD
ENDBRANCH  10  12
ENDBRANCH   9  10
ENDBRANCH   8   9
ENDBRANCH   7   8
ENDBRANCH   6   7
ENDBRANCH   5   6
ENDBRANCH   4   5
ENDBRANCH   3   4
ENDBRANCH   2   3
BRANCH   1  14
ATOM     14  C   UNL     1       9.242   0.217  21.426  0.00  0.00    +0.058 C 
BRANCH  14  15
ATOM     15  C   UNL     1       9.725   1.370  22.332  0.00  0.00    +0.118 C 
BRANCH  15  16
ATOM     16  O   UNL     1      10.436   2.342  21.556  0.00  0.00    -0.391 OA
ATOM     17  H   UNL     1       9.798   2.749  20.944  0.00  0.00    +0.210 HD
ENDBRANCH  15  16
BRANCH  15  18
ATOM     18  C   UNL     1       8.583   2.116  23.038  0.00  0.00    +0.031 C 
BRANCH  18  19
ATOM     19  C   UNL     1       8.781   2.197  24.547  0.00  0.00    +0.003 C 
BRANCH  19  20
ATOM     20  C   UNL     1       7.825   1.308  25.341  0.00  0.00    +0.000 C 
BRANCH  20  21
ATOM     21  C   UNL     1       6.687   0.866  24.417  0.00  0.00    -0.000 C 
BRANCH  21  23
ATOM     22  C   UNL     1       6.677  -1.064  26.007  0.00  0.00    +0.004 C 
ATOM     23  C   UNL     1       6.277  -0.588  24.617  0.00  0.00    -0.003 C 
ENDBRANCH  21  23
ENDBRANCH  20  21
ENDBRANCH  19  20
ENDBRANCH  18  19
ENDBRANCH  15  18
ENDBRANCH  14  15
ENDBRANCH   1  14
TORSDOF 17
ENDMDL
MODEL 9
REMARK VINA RESULT:      -4.8      2.261      3.898
REMARK  Name = 
REMARK  18 active torsions:
REMARK  status: ('A' for Active; 'I' for Inactive)
REMARK    1  A    between atoms: C_1  and  C_2
REMARK    2  A    between atoms: C_2  and  C_3
REMARK    3  A    between atoms: C_3  and  C_4
REMARK    4  A    between atoms: C_4  and  C_5
REMARK    5  A    between atoms: C_5  and  C_6
REMARK    6  A    between atoms: C_6  and  C_7
REMARK    7  A    between atoms: C_7  and  O_9
REMARK    8  A    between atoms: C_7  and  C_10
REMARK    9  A    between atoms: C_10  and  C_11
REMARK   10  A    between atoms: C_12  and  C_13
REMARK   11  A    between atoms: C_13  and  C_14
REMARK   12  A    between atoms: C_14  and  C_15
REMARK   13  A    between atoms: C_15  and  C_16
REMARK   14  A    between atoms: C_16  and  C_17
REMARK   15  A    between atoms: C_17  and  C_18
REMARK   16  A    between atoms: C_18  and  C_19
REMARK   17  A    between atoms: C_19  and  C_20
REMARK   18  A    between atoms: C_20  and  O_21
REMARK                            x       y       z     vdW  Elec       q    Type
REMARK                         _______ _______ _______ _____ _____    ______ ____
ROOT
ATOM      1  C   UNL     1       7.100   1.924  23.544  0.00  0.00    -0.029 C 
ATOM      2  C   UNL     1       6.681   0.656  23.663  0.00  0.00    -0.031 C 
ENDROOT
BRANCH   2   3
ATOM      3  C   UNL     1       5.912   0.142  24.845  0.00  0.00    +0.027 C 
BRANCH   3   4
ATOM      4  C   UNL     1       6.820   0.149  26.076  0.00  0.00    +0.004 C 
BRANCH   4   5
ATOM      5  C   UNL     1       6.896  -1.222  26.743  0.00  0.00    +0.000 C 
BRANCH   5   6
ATOM      6  C   UNL     1       5.492  -1.797  26.930  0.00  0.00    +0.000 C 
BRANCH   6   7
ATOM      7  C   UNL     1       5.449  -3.297  26.656  0.00  0.00    +0.001 C 
BRANCH   7   8
ATOM      8  C   UNL     1       6.290  -3.650  25.428  0.00  0.00    +0.011 C 
BRANCH   8   9
ATOM      9  C   UNL     1       6.984  -5.000  25.591  0.00  0.00    +0.120 C 
BRANCH   9  10
ATOM     10  C   UNL     1       7.986  -4.980  26.722  0.00  0.00    +0.305 C 
ATOM     11  O   UNL     1       8.922  -4.205  26.827  0.00  0.00    -0.251 OA
BRANCH  10  12
ATOM     12  O   UNL     1       7.736  -5.938  27.645  0.00  0.00    -0.481 OA
ATOM     13  H   UNL     1       7.940  -6.841  27.337  0.00  0.00    +0.295 HD
ENDBRANCH  10  12
ENDBRANCH   9  10
ENDBRANCH   8   9
ENDBRANCH   7   8
ENDBRANCH   6   7
ENDBRANCH   5   6
ENDBRANCH   4   5
ENDBRANCH   3   4
ENDBRANCH   2   3
BRANCH   1  14
ATOM     14  C   UNL     1       7.990   2.407  22.428  0.00  0.00    +0.058 C 
BRANCH  14  15
ATOM     15  C   UNL     1       9.412   1.821  22.550  0.00  0.00    +0.118 C 
BRANCH  15  16
ATOM     16  O   UNL     1      10.273   2.407  21.566  0.00  0.00    -0.391 OA
ATOM     17  H   UNL     1      11.184   2.347  21.904  0.00  0.00    +0.210 HD
ENDBRANCH  15  16
BRANCH  15  18
ATOM     18  C   UNL     1      10.066   2.075  23.917  0.00  0.00    +0.031 C 
BRANCH  18  19
ATOM     19  C   UNL     1      10.582   0.795  24.566  0.00  0.00    +0.003 C 
BRANCH  19  20
ATOM     20  C   UNL     1      10.488  -0.434  23.662  0.00  0.00    +0.000 C 
BRANCH  20  21
ATOM     21  C   UNL     1       9.666  -1.507  24.380  0.00  0.00    -0.000 C 
BRANCH  21  23
ATOM     22  C   UNL     1       8.881  -1.832  22.029  0.00  0.00    +0.004 C 
ATOM     23  C   UNL     1       8.918  -2.432  23.428  0.00  0.00    -0.003 C 
ENDBRANCH  21  23
ENDBRANCH  20  21
ENDBRANCH  19  20
ENDBRANCH  18  19
ENDBRANCH  15  18
ENDBRANCH  14  15
ENDBRANCH   1  14
TORSDOF 17
ENDMDL
