MODEL 1
REMARK VINA RESULT:      -5.7      0.000      0.000
REMARK  Name = 
REMARK  3 active torsions:
REMARK  status: ('A' for Active; 'I' for Inactive)
REMARK    1  A    between atoms: N_1  and  C_2
REMARK    2  A    between atoms: C_7  and  S_12
REMARK    3  A    between atoms: S_12  and  O_13
REMARK                            x       y       z     vdW  Elec       q    Type
REMARK                         _______ _______ _______ _____ _____    ______ ____
ROOT
ATOM      1  C   UNL     1       4.896  -5.979  22.877  0.00  0.00    +0.032 A 
ATOM      2  C   UNL     1       5.600  -5.743  21.691  0.00  0.00    +0.023 A 
ATOM      3  C   UNL     1       6.878  -5.210  21.724  0.00  0.00    +0.002 A 
ATOM      4  C   UNL     1       7.489  -4.951  22.948  0.00  0.00    +0.010 A 
ATOM      5  C   UNL     1       6.863  -5.262  24.181  0.00  0.00    +0.011 A 
ATOM      6  C   UNL     1       7.466  -5.081  25.459  0.00  0.00    +0.125 A 
ATOM      7  C   UNL     1       6.815  -5.450  26.645  0.00  0.00    +0.030 A 
ATOM      8  C   UNL     1       5.549  -6.006  26.587  0.00  0.00    +0.003 A 
ATOM      9  C   UNL     1       4.930  -6.180  25.351  0.00  0.00    +0.010 A 
ATOM     10  C   UNL     1       5.549  -5.812  24.132  0.00  0.00    +0.005 A 
ENDROOT
BRANCH   1  11
ATOM     11  N   UNL     1       3.616  -6.571  22.768  0.00  0.00    -0.357 N 
ATOM     12  H   UNL     1       2.916  -6.108  23.341  0.00  0.00    +0.142 HD
ATOM     13  H   UNL     1       3.625  -7.570  22.944  0.00  0.00    +0.142 HD
ENDBRANCH   1  11
BRANCH   6  14
ATOM     14  S   UNL     1       9.086  -4.359  25.631  0.00  0.00    +0.110 S 
ATOM     15  O   UNL     1       8.966  -2.923  25.523  0.00  0.00    -0.142 OA
ATOM     16  O   UNL     1      10.011  -5.102  24.802  0.00  0.00    -0.142 OA
BRANCH  14  17
ATOM     17  O   UNL     1       9.523  -4.726  27.141  0.00  0.00    -0.250 OA
ATOM     18  H   UNL     1       9.308  -3.953  27.704  0.00  0.00    +0.245 HD
ENDBRANCH  14  17
ENDBRANCH   6  14
TORSDOF 3
ENDMDL
MODEL 2
REMARK VINA RESULT:      -5.6      0.877      2.886
REMARK  Name = 
REMARK  3 active torsions:
REMARK  status: ('A' for Active; 'I' for Inactive)
REMARK    1  A    between atoms: N_1  and  C_2
REMARK    2  A    between atoms: C_7  and  S_12
REMARK    3  A    between atoms: S_12  and  O_13
REMARK                            x       y       z     vdW  Elec       q    Type
REMARK                         _______ _______ _______ _____ _____    ______ ____
ROOT
ATOM      1  C   UNL     1       4.486  -6.671  24.406  0.00  0.00    +0.032 A 
ATOM      2  C   UNL     1       4.382  -6.782  25.797  0.00  0.00    +0.023 A 
ATOM      3  C   UNL     1       5.401  -6.326  26.619  0.00  0.00    +0.002 A 
ATOM      4  C   UNL     1       6.517  -5.709  26.060  0.00  0.00    +0.010 A 
ATOM      5  C   UNL     1       6.631  -5.480  24.666  0.00  0.00    +0.011 A 
ATOM      6  C   UNL     1       7.716  -4.795  24.048  0.00  0.00    +0.125 A 
ATOM      7  C   UNL     1       7.753  -4.558  22.667  0.00  0.00    +0.030 A 
ATOM      8  C   UNL     1       6.712  -4.997  21.868  0.00  0.00    +0.003 A 
ATOM      9  C   UNL     1       5.644  -5.683  22.445  0.00  0.00    +0.010 A 
ATOM     10  C   UNL     1       5.575  -5.952  23.833  0.00  0.00    +0.005 A 
ENDROOT
BRANCH   1  11
ATOM     11  N   UNL     1       3.387  -7.111  23.633  0.00  0.00    -0.357 N 
ATOM     12  H   UNL     1       3.185  -6.500  22.847  0.00  0.00    +0.142 HD
ATOM     13  H   UNL     1       2.552  -7.274  24.187  0.00  0.00    +0.142 HD
ENDBRANCH   1  11
BRANCH   6  14
ATOM     14  S   UNL     1       9.108  -4.207  24.995  0.00  0.00    +0.110 S 
ATOM     15  O   UNL     1       8.619  -3.646  26.233  0.00  0.00    -0.142 OA
ATOM     16  O   UNL     1       9.975  -3.451  24.115  0.00  0.00    -0.142 OA
BRANCH  14  17
ATOM     17  O   UNL     1       9.949  -5.542  25.331  0.00  0.00    -0.250 OA
ATOM     18  H   UNL     1      10.882  -5.275  25.461  0.00  0.00    +0.245 HD
ENDBRANCH  14  17
ENDBRANCH   6  14
TORSDOF 3
ENDMDL
MODEL 3
REMARK VINA RESULT:      -5.5      4.565      5.430
REMARK  Name = 
REMARK  3 active torsions:
REMARK  status: ('A' for Active; 'I' for Inactive)
REMARK    1  A    between atoms: N_1  and  C_2
REMARK    2  A    between atoms: C_7  and  S_12
REMARK    3  A    between atoms: S_12  and  O_13
REMARK                            x       y       z     vdW  Elec       q    Type
REMARK                         _______ _______ _______ _____ _____    ______ ____
ROOT
ATOM      1  C   UNL     1       9.794   0.384  23.848  0.00  0.00    +0.032 A 
ATOM      2  C   UNL     1      10.187   0.026  22.555  0.00  0.00    +0.023 A 
ATOM      3  C   UNL     1      10.217  -1.304  22.168  0.00  0.00    +0.002 A 
ATOM      4  C   UNL     1       9.805  -2.293  23.059  0.00  0.00    +0.010 A 
ATOM      5  C   UNL     1       9.303  -1.982  24.348  0.00  0.00    +0.011 A 
ATOM      6  C   UNL     1       8.808  -2.944  25.273  0.00  0.00    +0.125 A 
ATOM      7  C   UNL     1       8.280  -2.573  26.518  0.00  0.00    +0.030 A 
ATOM      8  C   UNL     1       8.235  -1.236  26.872  0.00  0.00    +0.003 A 
ATOM      9  C   UNL     1       8.728  -0.275  25.991  0.00  0.00    +0.010 A 
ATOM     10  C   UNL     1       9.277  -0.609  24.730  0.00  0.00    +0.005 A 
ENDROOT
BRANCH   1  11
ATOM     11  N   UNL     1       9.740   1.763  24.155  0.00  0.00    -0.357 N 
ATOM     12  H   UNL     1       9.949   2.355  23.356  0.00  0.00    +0.142 HD
ATOM     13  H   UNL     1      10.316   2.015  24.952  0.00  0.00    +0.142 HD
ENDBRANCH   1  11
BRANCH   6  14
ATOM     14  S   UNL     1       8.840  -4.690  24.910  0.00  0.00    +0.110 S 
ATOM     15  O   UNL     1       8.328  -4.892  23.574  0.00  0.00    -0.142 OA
ATOM     16  O   UNL     1       8.291  -5.405  26.043  0.00  0.00    -0.142 OA
BRANCH  14  17
ATOM     17  O   UNL     1      10.408  -5.067  24.923  0.00  0.00    -0.250 OA
ATOM     18  H   UNL     1      10.827  -4.604  24.167  0.00  0.00    +0.245 HD
ENDBRANCH  14  17
ENDBRANCH   6  14
TORSDOF 3
ENDMDL
MODEL 4
REMARK VINA RESULT:      -5.4      5.138      6.628
REMARK  Name = 
REMARK  3 active torsions:
REMARK  status: ('A' for Active; 'I' for Inactive)
REMARK    1  A    between atoms: N_1  and  C_2
REMARK    2  A    between atoms: C_7  and  S_12
REMARK    3  A    between atoms: S_12  and  O_13
REMARK                            x       y       z     vdW  Elec       q    Type
REMARK                         _______ _______ _______ _____ _____    ______ ____
ROOT
ATOM      1  C   UNL     1       8.529  -2.653  25.176  0.00  0.00    +0.032 A 
ATOM      2  C   UNL     1       8.406  -2.052  26.433  0.00  0.00    +0.023 A 
ATOM      3  C   UNL     1       8.706  -0.710  26.605  0.00  0.00    +0.002 A 
ATOM      4  C   UNL     1       9.087   0.060  25.510  0.00  0.00    +0.010 A 
ATOM      5  C   UNL     1       9.133  -0.472  24.196  0.00  0.00    +0.011 A 
ATOM      6  C   UNL     1       9.451   0.285  23.032  0.00  0.00    +0.125 A 
ATOM      7  C   UNL     1       9.436  -0.285  21.751  0.00  0.00    +0.030 A 
ATOM      8  C   UNL     1       9.107  -1.620  21.598  0.00  0.00    +0.003 A 
ATOM      9  C   UNL     1       8.807  -2.388  22.723  0.00  0.00    +0.010 A 
ATOM     10  C   UNL     1       8.820  -1.853  24.034  0.00  0.00    +0.005 A 
ENDROOT
BRANCH   1  11
ATOM     11  N   UNL     1       8.158  -4.014  25.065  0.00  0.00    -0.357 N 
ATOM     12  H   UNL     1       7.550  -4.195  24.271  0.00  0.00    +0.142 HD
ATOM     13  H   UNL     1       7.758  -4.387  25.919  0.00  0.00    +0.142 HD
ENDBRANCH   1  11
BRANCH   6  14
ATOM     14  S   UNL     1       9.901   2.007  23.133  0.00  0.00    +0.110 S 
ATOM     15  O   UNL     1      11.084   2.127  23.952  0.00  0.00    -0.142 OA
ATOM     16  O   UNL     1       8.708   2.778  23.413  0.00  0.00    -0.142 OA
BRANCH  14  17
ATOM     17  O   UNL     1      10.283   2.404  21.616  0.00  0.00    -0.250 OA
ATOM     18  H   UNL     1       9.503   2.849  21.225  0.00  0.00    +0.245 HD
ENDBRANCH  14  17
ENDBRANCH   6  14
TORSDOF 3
ENDMDL
MODEL 5
REMARK VINA RESULT:      -5.4      4.718      5.541
REMARK  Name = 
REMARK  3 active torsions:
REMARK  status: ('A' for Active; 'I' for Inactive)
REMARK    1  A    between atoms: N_1  and  C_2
REMARK    2  A    between atoms: C_7  and  S_12
REMARK    3  A    between atoms: S_12  and  O_13
REMARK                            x       y       z     vdW  Elec       q    Type
REMARK                         _______ _______ _______ _____ _____    ______ ____
ROOT
ATOM      1  C   UNL     1       9.737   0.630  23.767  0.00  0.00    +0.032 A 
ATOM      2  C   UNL     1      10.071   0.288  22.452  0.00  0.00    +0.023 A 
ATOM      3  C   UNL     1      10.081  -1.038  22.049  0.00  0.00    +0.002 A 
ATOM      4  C   UNL     1       9.709  -2.037  22.946  0.00  0.00    +0.010 A 
ATOM      5  C   UNL     1       9.266  -1.741  24.259  0.00  0.00    +0.011 A 
ATOM      6  C   UNL     1       8.811  -2.714  25.194  0.00  0.00    +0.125 A 
ATOM      7  C   UNL     1       8.341  -2.358  26.466  0.00  0.00    +0.030 A 
ATOM      8  C   UNL     1       8.313  -1.025  26.838  0.00  0.00    +0.003 A 
ATOM      9  C   UNL     1       8.768  -0.053  25.948  0.00  0.00    +0.010 A 
ATOM     10  C   UNL     1       9.259  -0.373  24.659  0.00  0.00    +0.005 A 
ENDROOT
BRANCH   1  11
ATOM     11  N   UNL     1       9.700   2.005  24.092  0.00  0.00    -0.357 N 
ATOM     12  H   UNL     1       8.765   2.333  24.322  0.00  0.00    +0.142 HD
ATOM     13  H   UNL     1      10.124   2.593  23.383  0.00  0.00    +0.142 HD
ENDBRANCH   1  11
BRANCH   6  14
ATOM     14  S   UNL     1       8.823  -4.455  24.809  0.00  0.00    +0.110 S 
ATOM     15  O   UNL     1      10.195  -4.902  24.738  0.00  0.00    -0.142 OA
ATOM     16  O   UNL     1       7.896  -4.691  23.722  0.00  0.00    -0.142 OA
BRANCH  14  17
ATOM     17  O   UNL     1       8.122  -5.147  26.087  0.00  0.00    -0.250 OA
ATOM     18  H   UNL     1       7.544  -4.474  26.503  0.00  0.00    +0.245 HD
ENDBRANCH  14  17
ENDBRANCH   6  14
TORSDOF 3
ENDMDL
MODEL 6
REMARK VINA RESULT:      -5.3      4.012      5.228
REMARK  Name = 
REMARK  3 active torsions:
REMARK  status: ('A' for Active; 'I' for Inactive)
REMARK    1  A    between atoms: N_1  and  C_2
REMARK    2  A    between atoms: C_7  and  S_12
REMARK    3  A    between atoms: S_12  and  O_13
REMARK                            x       y       z     vdW  Elec       q    Type
REMARK                         _______ _______ _______ _____ _____    ______ ____
ROOT
ATOM      1  C   UNL     1       8.270  -4.565  25.182  0.00  0.00    +0.032 A 
ATOM      2  C   UNL     1       8.063  -4.832  26.539  0.00  0.00    +0.023 A 
ATOM      3  C   UNL     1       6.866  -5.377  26.976  0.00  0.00    +0.002 A 
ATOM      4  C   UNL     1       5.877  -5.707  26.052  0.00  0.00    +0.010 A 
ATOM      5  C   UNL     1       6.071  -5.550  24.656  0.00  0.00    +0.011 A 
ATOM      6  C   UNL     1       5.122  -5.931  23.664  0.00  0.00    +0.125 A 
ATOM      7  C   UNL     1       5.387  -5.795  22.294  0.00  0.00    +0.030 A 
ATOM      8  C   UNL     1       6.600  -5.274  21.879  0.00  0.00    +0.003 A 
ATOM      9  C   UNL     1       7.540  -4.878  22.830  0.00  0.00    +0.010 A 
ATOM     10  C   UNL     1       7.307  -4.991  24.222  0.00  0.00    +0.005 A 
ENDROOT
BRANCH   1  11
ATOM     11  N   UNL     1       9.534  -4.056  24.803  0.00  0.00    -0.357 N 
ATOM     12  H   UNL     1      10.293  -4.416  25.375  0.00  0.00    +0.142 HD
ATOM     13  H   UNL     1       9.559  -3.042  24.766  0.00  0.00    +0.142 HD
ENDBRANCH   1  11
BRANCH   6  14
ATOM     14  S   UNL     1       3.528  -6.597  24.105  0.00  0.00    +0.110 S 
ATOM     15  O   UNL     1       2.768  -5.569  24.776  0.00  0.00    -0.142 OA
ATOM     16  O   UNL     1       3.725  -7.901  24.703  0.00  0.00    -0.142 OA
BRANCH  14  17
ATOM     17  O   UNL     1       2.827  -6.912  22.686  0.00  0.00    -0.250 OA
ATOM     18  H   UNL     1       1.867  -7.016  22.851  0.00  0.00    +0.245 HD
ENDBRANCH  14  17
ENDBRANCH   6  14
TORSDOF 3
ENDMDL
MODEL 7
REMARK VINA RESULT:      -5.2      2.704      3.550
REMARK  Name = 
REMARK  3 active torsions:
REMARK  status: ('A' for Active; 'I' for Inactive)
REMARK    1  A    between atoms: N_1  and  C_2
REMARK    2  A    between atoms: C_7  and  S_12
REMARK    3  A    between atoms: S_12  and  O_13
REMARK                            x       y       z     vdW  Elec       q    Type
REMARK                         _______ _______ _______ _____ _____    ______ ____
ROOT
ATOM      1  C   UNL     1       5.170  -6.637  26.579  0.00  0.00    +0.032 A 
ATOM      2  C   UNL     1       4.219  -7.124  25.676  0.00  0.00    +0.023 A 
ATOM      3  C   UNL     1       4.153  -6.625  24.385  0.00  0.00    +0.002 A 
ATOM      4  C   UNL     1       5.071  -5.666  23.966  0.00  0.00    +0.010 A 
ATOM      5  C   UNL     1       6.118  -5.209  24.806  0.00  0.00    +0.011 A 
ATOM      6  C   UNL     1       7.122  -4.280  24.409  0.00  0.00    +0.125 A 
ATOM      7  C   UNL     1       8.162  -3.899  25.269  0.00  0.00    +0.030 A 
ATOM      8  C   UNL     1       8.224  -4.431  26.545  0.00  0.00    +0.003 A 
ATOM      9  C   UNL     1       7.245  -5.329  26.965  0.00  0.00    +0.010 A 
ATOM     10  C   UNL     1       6.175  -5.732  26.130  0.00  0.00    +0.005 A 
ENDROOT
BRANCH   1  11
ATOM     11  N   UNL     1       5.212  -7.229  27.863  0.00  0.00    -0.357 N 
ATOM     12  H   UNL     1       5.633  -6.625  28.564  0.00  0.00    +0.142 HD
ATOM     13  H   UNL     1       5.649  -8.144  27.865  0.00  0.00    +0.142 HD
ENDBRANCH   1  11
BRANCH   6  14
ATOM     14  S   UNL     1       7.114  -3.533  22.790  0.00  0.00    +0.110 S 
ATOM     15  O   UNL     1       6.003  -2.613  22.712  0.00  0.00    -0.142 OA
ATOM     16  O   UNL     1       7.300  -4.575  21.802  0.00  0.00    -0.142 OA
BRANCH  14  17
ATOM     17  O   UNL     1       8.487  -2.687  22.739  0.00  0.00    -0.250 OA
ATOM     18  H   UNL     1       8.973  -2.869  23.570  0.00  0.00    +0.245 HD
ENDBRANCH  14  17
ENDBRANCH   6  14
TORSDOF 3
ENDMDL
MODEL 8
REMARK VINA RESULT:      -5.2      1.634      1.885
REMARK  Name = 
REMARK  3 active torsions:
REMARK  status: ('A' for Active; 'I' for Inactive)
REMARK    1  A    between atoms: N_1  and  C_2
REMARK    2  A    between atoms: C_7  and  S_12
REMARK    3  A    between atoms: S_12  and  O_13
REMARK                            x       y       z     vdW  Elec       q    Type
REMARK                         _______ _______ _______ _____ _____    ______ ____
ROOT
ATOM      1  C   UNL     1       5.415  -6.121  23.375  0.00  0.00    +0.032 A 
ATOM      2  C   UNL     1       5.739  -6.154  22.015  0.00  0.00    +0.023 A 
ATOM      3  C   UNL     1       6.666  -5.267  21.490  0.00  0.00    +0.002 A 
ATOM      4  C   UNL     1       7.316  -4.367  22.330  0.00  0.00    +0.010 A 
ATOM      5  C   UNL     1       7.101  -4.356  23.731  0.00  0.00    +0.011 A 
ATOM      6  C   UNL     1       7.786  -3.505  24.645  0.00  0.00    +0.125 A 
ATOM      7  C   UNL     1       7.564  -3.570  26.028  0.00  0.00    +0.030 A 
ATOM      8  C   UNL     1       6.654  -4.482  26.534  0.00  0.00    +0.003 A 
ATOM      9  C   UNL     1       5.958  -5.316  25.660  0.00  0.00    +0.010 A 
ATOM     10  C   UNL     1       6.147  -5.275  24.257  0.00  0.00    +0.005 A 
ENDROOT
BRANCH   1  11
ATOM     11  N   UNL     1       4.499  -7.088  23.850  0.00  0.00    -0.357 N 
ATOM     12  H   UNL     1       4.075  -7.633  23.103  0.00  0.00    +0.142 HD
ATOM     13  H   UNL     1       3.788  -6.697  24.459  0.00  0.00    +0.142 HD
ENDBRANCH   1  11
BRANCH   6  14
ATOM     14  S   UNL     1       8.963  -2.290  24.083  0.00  0.00    +0.110 S 
ATOM     15  O   UNL     1       8.304  -1.404  23.153  0.00  0.00    -0.142 OA
ATOM     16  O   UNL     1      10.193  -2.970  23.735  0.00  0.00    -0.142 OA
BRANCH  14  17
ATOM     17  O   UNL     1       9.334  -1.455  25.414  0.00  0.00    -0.250 OA
ATOM     18  H   UNL     1       9.422  -2.099  26.147  0.00  0.00    +0.245 HD
ENDBRANCH  14  17
ENDBRANCH   6  14
TORSDOF 3
ENDMDL
MODEL 9
REMARK VINA RESULT:      -5.2      2.615      4.137
REMARK  Name = 
REMARK  3 active torsions:
REMARK  status: ('A' for Active; 'I' for Inactive)
REMARK    1  A    between atoms: N_1  and  C_2
REMARK    2  A    between atoms: C_7  and  S_12
REMARK    3  A    between atoms: S_12  and  O_13
REMARK                            x       y       z     vdW  Elec       q    Type
REMARK                         _______ _______ _______ _____ _____    ______ ____
ROOT
ATOM      1  C   UNL     1       6.691  -5.332  25.673  0.00  0.00    +0.032 A 
ATOM      2  C   UNL     1       7.687  -5.327  26.656  0.00  0.00    +0.023 A 
ATOM      3  C   UNL     1       8.809  -4.526  26.519  0.00  0.00    +0.002 A 
ATOM      4  C   UNL     1       8.926  -3.681  25.418  0.00  0.00    +0.010 A 
ATOM      5  C   UNL     1       7.904  -3.572  24.442  0.00  0.00    +0.011 A 
ATOM      6  C   UNL     1       7.941  -2.679  23.333  0.00  0.00    +0.125 A 
ATOM      7  C   UNL     1       6.878  -2.581  22.424  0.00  0.00    +0.030 A 
ATOM      8  C   UNL     1       5.755  -3.371  22.595  0.00  0.00    +0.003 A 
ATOM      9  C   UNL     1       5.699  -4.265  23.663  0.00  0.00    +0.010 A 
ATOM     10  C   UNL     1       6.755  -4.401  24.597  0.00  0.00    +0.005 A 
ENDROOT
BRANCH   1  11
ATOM     11  N   UNL     1       5.552  -6.137  25.904  0.00  0.00    -0.357 N 
ATOM     12  H   UNL     1       4.997  -5.820  26.694  0.00  0.00    +0.142 HD
ATOM     13  H   UNL     1       5.772  -7.123  25.991  0.00  0.00    +0.142 HD
ENDBRANCH   1  11
BRANCH   6  14
ATOM     14  S   UNL     1       9.352  -1.634  23.024  0.00  0.00    +0.110 S 
ATOM     15  O   UNL     1      10.514  -2.471  22.837  0.00  0.00    -0.142 OA
ATOM     16  O   UNL     1       9.347  -0.557  23.993  0.00  0.00    -0.142 OA
BRANCH  14  17
ATOM     17  O   UNL     1       9.008  -0.910  21.624  0.00  0.00    -0.250 OA
ATOM     18  H   UNL     1       8.204  -0.368  21.764  0.00  0.00    +0.245 HD
ENDBRANCH  14  17
ENDBRANCH   6  14
TORSDOF 3
ENDMDL
