MODEL 1
REMARK VINA RESULT:      -6.7      0.000      0.000
REMARK  Name = 
REMARK  5 active torsions:
REMARK  status: ('A' for Active; 'I' for Inactive)
REMARK    1  A    between atoms: O_1  and  C_2
REMARK    2  A    between atoms: C_2  and  C_3
REMARK    3  A    between atoms: N_6  and  C_7
REMARK    4  A    between atoms: C_7  and  C_8
REMARK    5  A    between atoms: C_21  and  O_23
REMARK                            x       y       z     vdW  Elec       q    Type
REMARK                         _______ _______ _______ _____ _____    ______ ____
ROOT
ATOM      1  C   UNL     1       8.104  -3.525  23.472  0.00  0.00    -0.016 C 
ATOM      2  C   UNL     1       7.741  -3.466  24.959  0.00  0.00    +0.164 C 
ATOM      3  N   UNL     1       8.975  -3.696  25.722  0.00  0.00    -0.266 NA
ATOM      4  C   UNL     1       9.094  -4.737  26.459  0.00  0.00    +0.182 C 
ATOM      5  N   UNL     1       8.131  -5.661  26.690  0.00  0.00    -0.275 N 
ATOM      6  H   UNL     1       8.283  -6.412  27.355  0.00  0.00    +0.156 HD
ATOM      7  C   UNL     1       6.858  -5.540  26.220  0.00  0.00    +0.241 C 
ATOM      8  O   UNL     1       5.952  -6.241  26.674  0.00  0.00    -0.273 OA
ATOM      9  C   UNL     1       6.655  -4.560  25.078  0.00  0.00    +0.186 C 
ATOM     10  N   UNL     1       6.735  -5.310  23.792  0.00  0.00    -0.337 N 
ATOM     11  H   UNL     1       5.844  -5.198  23.299  0.00  0.00    +0.146 HD
ATOM     12  C   UNL     1       7.741  -4.735  22.990  0.00  0.00    +0.070 C 
ENDROOT
BRANCH   1  13
ATOM     13  C   UNL     1       7.855  -2.315  22.587  0.00  0.00    +0.118 C 
BRANCH  13  17
ATOM     14  C   UNL     1       9.196   0.449  22.948  0.00  0.00    +0.058 C 
ATOM     15  C   UNL     1      10.373  -0.343  23.504  0.00  0.00    +0.135 C 
ATOM     16  C   UNL     1      10.210  -1.760  22.922  0.00  0.00    +0.116 C 
ATOM     17  N   UNL     1       9.064  -1.738  21.989  0.00  0.00    -0.295 NA
ATOM     18  C   UNL     1       8.889  -0.303  21.660  0.00  0.00    +0.093 C 
BRANCH  15  19
ATOM     19  O   UNL     1      10.313  -0.332  24.928  0.00  0.00    -0.390 OA
ATOM     20  H   UNL     1       9.860  -1.151  25.195  0.00  0.00    +0.210 HD
ENDBRANCH  15  19
BRANCH  14  21
ATOM     21  C   UNL     1       9.496   1.934  22.761  0.00  0.00    +0.163 C 
BRANCH  21  22
ATOM     22  O   UNL     1      10.122   2.192  21.511  0.00  0.00    -0.395 OA
ATOM     23  H   UNL     1       9.610   2.897  21.077  0.00  0.00    +0.209 HD
ENDBRANCH  21  22
ENDBRANCH  14  21
ENDBRANCH  13  17
ENDBRANCH   1  13
TORSDOF 5
ENDMDL
MODEL 2
REMARK VINA RESULT:      -6.5      1.760      2.141
REMARK  Name = 
REMARK  5 active torsions:
REMARK  status: ('A' for Active; 'I' for Inactive)
REMARK    1  A    between atoms: O_1  and  C_2
REMARK    2  A    between atoms: C_2  and  C_3
REMARK    3  A    between atoms: N_6  and  C_7
REMARK    4  A    between atoms: C_7  and  C_8
REMARK    5  A    between atoms: C_21  and  O_23
REMARK                            x       y       z     vdW  Elec       q    Type
REMARK                         _______ _______ _______ _____ _____    ______ ____
ROOT
ATOM      1  C   UNL     1       8.374  -2.944  23.549  0.00  0.00    -0.016 C 
ATOM      2  C   UNL     1       9.011  -3.270  24.903  0.00  0.00    +0.164 C 
ATOM      3  N   UNL     1       9.806  -4.494  24.732  0.00  0.00    -0.266 NA
ATOM      4  C   UNL     1       9.485  -5.565  25.356  0.00  0.00    +0.182 C 
ATOM      5  N   UNL     1       8.489  -5.687  26.265  0.00  0.00    -0.275 N 
ATOM      6  H   UNL     1       8.357  -6.554  26.775  0.00  0.00    +0.156 HD
ATOM      7  C   UNL     1       7.746  -4.630  26.699  0.00  0.00    +0.241 C 
ATOM      8  O   UNL     1       7.052  -4.725  27.713  0.00  0.00    -0.273 OA
ATOM      9  C   UNL     1       7.777  -3.386  25.828  0.00  0.00    +0.186 C 
ATOM     10  N   UNL     1       6.613  -3.432  24.898  0.00  0.00    -0.337 N 
ATOM     11  H   UNL     1       6.029  -2.610  25.074  0.00  0.00    +0.146 HD
ATOM     12  C   UNL     1       7.084  -3.347  23.572  0.00  0.00    +0.070 C 
ENDROOT
BRANCH   1  13
ATOM     13  C   UNL     1       8.681  -1.618  22.872  0.00  0.00    +0.118 C 
BRANCH  13  17
ATOM     14  C   UNL     1       9.905   1.199  23.238  0.00  0.00    +0.058 C 
ATOM     15  C   UNL     1       8.670   1.687  22.491  0.00  0.00    +0.135 C 
ATOM     16  C   UNL     1       7.622   0.575  22.685  0.00  0.00    +0.116 C 
ATOM     17  N   UNL     1       8.197  -0.437  23.596  0.00  0.00    -0.295 NA
ATOM     18  C   UNL     1       9.297   0.278  24.287  0.00  0.00    +0.093 C 
BRANCH  15  19
ATOM     19  O   UNL     1       9.002   1.886  21.120  0.00  0.00    -0.390 OA
ATOM     20  H   UNL     1       8.318   1.430  20.598  0.00  0.00    +0.210 HD
ENDBRANCH  15  19
BRANCH  14  21
ATOM     21  C   UNL     1      10.761   2.330  23.804  0.00  0.00    +0.163 C 
BRANCH  21  22
ATOM     22  O   UNL     1      10.710   3.490  22.983  0.00  0.00    -0.395 OA
ATOM     23  H   UNL     1      10.780   3.189  22.061  0.00  0.00    +0.209 HD
ENDBRANCH  21  22
ENDBRANCH  14  21
ENDBRANCH  13  17
ENDBRANCH   1  13
TORSDOF 5
ENDMDL
MODEL 3
REMARK VINA RESULT:      -6.5      1.993      6.583
REMARK  Name = 
REMARK  5 active torsions:
REMARK  status: ('A' for Active; 'I' for Inactive)
REMARK    1  A    between atoms: O_1  and  C_2
REMARK    2  A    between atoms: C_2  and  C_3
REMARK    3  A    between atoms: N_6  and  C_7
REMARK    4  A    between atoms: C_7  and  C_8
REMARK    5  A    between atoms: C_21  and  O_23
REMARK                            x       y       z     vdW  Elec       q    Type
REMARK                         _______ _______ _______ _____ _____    ______ ____
ROOT
ATOM      1  C   UNL     1       8.135  -1.223  22.461  0.00  0.00    -0.016 C 
ATOM      2  C   UNL     1       8.082   0.149  23.138  0.00  0.00    +0.164 C 
ATOM      3  N   UNL     1       7.124   0.973  22.389  0.00  0.00    -0.266 NA
ATOM      4  C   UNL     1       7.521   2.018  21.765  0.00  0.00    +0.182 C 
ATOM      5  N   UNL     1       8.777   2.523  21.781  0.00  0.00    -0.275 N 
ATOM      6  H   UNL     1       8.987   3.405  21.324  0.00  0.00    +0.156 HD
ATOM      7  C   UNL     1       9.774   2.012  22.556  0.00  0.00    +0.241 C 
ATOM      8  O   UNL     1      10.807   2.654  22.756  0.00  0.00    -0.273 OA
ATOM      9  C   UNL     1       9.559   0.603  23.081  0.00  0.00    +0.186 C 
ATOM     10  N   UNL     1      10.210  -0.355  22.143  0.00  0.00    -0.337 N 
ATOM     11  H   UNL     1      10.924  -0.877  22.661  0.00  0.00    +0.146 HD
ATOM     12  C   UNL     1       9.247  -1.281  21.694  0.00  0.00    +0.070 C 
ENDROOT
BRANCH   1  13
ATOM     13  C   UNL     1       7.764  -2.468  23.250  0.00  0.00    +0.118 C 
BRANCH  13  17
ATOM     14  C   UNL     1       7.548  -4.606  25.475  0.00  0.00    +0.058 C 
ATOM     15  C   UNL     1       9.069  -4.644  25.402  0.00  0.00    +0.135 C 
ATOM     16  C   UNL     1       9.472  -3.288  24.791  0.00  0.00    +0.116 C 
ATOM     17  N   UNL     1       8.246  -2.478  24.636  0.00  0.00    -0.295 NA
ATOM     18  C   UNL     1       7.272  -3.111  25.557  0.00  0.00    +0.093 C 
BRANCH  15  19
ATOM     19  O   UNL     1       9.471  -5.745  24.591  0.00  0.00    -0.390 OA
ATOM     20  H   UNL     1       9.129  -5.572  23.696  0.00  0.00    +0.210 HD
ENDBRANCH  15  19
BRANCH  14  21
ATOM     21  C   UNL     1       6.974  -5.423  26.629  0.00  0.00    +0.163 C 
BRANCH  21  22
ATOM     22  O   UNL     1       7.999  -5.979  27.443  0.00  0.00    -0.395 OA
ATOM     23  H   UNL     1       7.785  -6.920  27.568  0.00  0.00    +0.209 HD
ENDBRANCH  21  22
ENDBRANCH  14  21
ENDBRANCH  13  17
ENDBRANCH   1  13
TORSDOF 5
ENDMDL
MODEL 4
REMARK VINA RESULT:      -6.3      2.107      3.113
REMARK  Name = 
REMARK  5 active torsions:
REMARK  status: ('A' for Active; 'I' for Inactive)
REMARK    1  A    between atoms: O_1  and  C_2
REMARK    2  A    between atoms: C_2  and  C_3
REMARK    3  A    between atoms: N_6  and  C_7
REMARK    4  A    between atoms: C_7  and  C_8
REMARK    5  A    between atoms: C_21  and  O_23
REMARK                            x       y       z     vdW  Elec       q    Type
REMARK                         _______ _______ _______ _____ _____    ______ ____
ROOT
ATOM      1  C   UNL     1       8.476  -2.975  23.911  0.00  0.00    -0.016 C 
ATOM      2  C   UNL     1       7.741  -3.252  22.596  0.00  0.00    +0.164 C 
ATOM      3  N   UNL     1       6.458  -2.540  22.649  0.00  0.00    -0.266 NA
ATOM      4  C   UNL     1       5.356  -3.192  22.649  0.00  0.00    +0.182 C 
ATOM      5  N   UNL     1       5.228  -4.534  22.520  0.00  0.00    -0.275 N 
ATOM      6  H   UNL     1       4.311  -4.962  22.446  0.00  0.00    +0.156 HD
ATOM      7  C   UNL     1       6.284  -5.362  22.280  0.00  0.00    +0.241 C 
ATOM      8  O   UNL     1       6.100  -6.518  21.896  0.00  0.00    -0.273 OA
ATOM      9  C   UNL     1       7.660  -4.797  22.583  0.00  0.00    +0.186 C 
ATOM     10  N   UNL     1       8.045  -5.205  23.964  0.00  0.00    -0.337 N 
ATOM     11  H   UNL     1       8.904  -5.759  23.908  0.00  0.00    +0.146 HD
ATOM     12  C   UNL     1       8.331  -4.049  24.719  0.00  0.00    +0.070 C 
ENDROOT
BRANCH   1  13
ATOM     13  C   UNL     1       9.834  -2.295  23.885  0.00  0.00    +0.118 C 
BRANCH  13  17
ATOM     14  C   UNL     1       9.624   0.544  22.675  0.00  0.00    +0.058 C 
ATOM     15  C   UNL     1       8.351   0.659  23.504  0.00  0.00    +0.135 C 
ATOM     16  C   UNL     1       8.515  -0.380  24.630  0.00  0.00    +0.116 C 
ATOM     17  N   UNL     1       9.865  -0.969  24.512  0.00  0.00    -0.295 NA
ATOM     18  C   UNL     1      10.620   0.012  23.696  0.00  0.00    +0.093 C 
BRANCH  15  19
ATOM     19  O   UNL     1       7.226   0.385  22.674  0.00  0.00    -0.390 OA
ATOM     20  H   UNL     1       7.407  -0.462  22.229  0.00  0.00    +0.210 HD
ENDBRANCH  15  19
BRANCH  14  21
ATOM     21  C   UNL     1      10.036   1.854  22.007  0.00  0.00    +0.163 C 
BRANCH  21  22
ATOM     22  O   UNL     1       8.906   2.609  21.589  0.00  0.00    -0.395 OA
ATOM     23  H   UNL     1       9.171   3.546  21.599  0.00  0.00    +0.209 HD
ENDBRANCH  21  22
ENDBRANCH  14  21
ENDBRANCH  13  17
ENDBRANCH   1  13
TORSDOF 5
ENDMDL
MODEL 5
REMARK VINA RESULT:      -6.2      3.081      7.178
REMARK  Name = 
REMARK  5 active torsions:
REMARK  status: ('A' for Active; 'I' for Inactive)
REMARK    1  A    between atoms: O_1  and  C_2
REMARK    2  A    between atoms: C_2  and  C_3
REMARK    3  A    between atoms: N_6  and  C_7
REMARK    4  A    between atoms: C_7  and  C_8
REMARK    5  A    between atoms: C_21  and  O_23
REMARK                            x       y       z     vdW  Elec       q    Type
REMARK                         _______ _______ _______ _____ _____    ______ ____
ROOT
ATOM      1  C   UNL     1       8.514   1.455  23.244  0.00  0.00    -0.016 C 
ATOM      2  C   UNL     1       9.419   2.234  24.203  0.00  0.00    +0.164 C 
ATOM      3  N   UNL     1       8.654   3.388  24.692  0.00  0.00    -0.266 NA
ATOM      4  C   UNL     1       9.027   4.579  24.406  0.00  0.00    +0.182 C 
ATOM      5  N   UNL     1      10.151   4.918  23.733  0.00  0.00    -0.275 N 
ATOM      6  H   UNL     1      10.415   5.892  23.622  0.00  0.00    +0.156 HD
ATOM      7  C   UNL     1      11.089   4.009  23.346  0.00  0.00    +0.241 C 
ATOM      8  O   UNL     1      12.211   4.375  22.992  0.00  0.00    -0.273 OA
ATOM      9  C   UNL     1      10.642   2.558  23.313  0.00  0.00    +0.186 C 
ATOM     10  N   UNL     1      10.195   2.233  21.928  0.00  0.00    -0.337 N 
ATOM     11  H   UNL     1      10.781   1.472  21.572  0.00  0.00    +0.146 HD
ATOM     12  C   UNL     1       8.867   1.762  21.976  0.00  0.00    +0.070 C 
ENDROOT
BRANCH   1  13
ATOM     13  C   UNL     1       8.168   0.006  23.544  0.00  0.00    +0.118 C 
BRANCH  13  17
ATOM     14  C   UNL     1       8.790  -2.934  24.277  0.00  0.00    +0.058 C 
ATOM     15  C   UNL     1       8.211  -3.259  22.906  0.00  0.00    +0.135 C 
ATOM     16  C   UNL     1       8.344  -1.954  22.098  0.00  0.00    +0.116 C 
ATOM     17  N   UNL     1       9.072  -0.975  22.933  0.00  0.00    -0.295 NA
ATOM     18  C   UNL     1       9.759  -1.805  23.952  0.00  0.00    +0.093 C 
BRANCH  15  19
ATOM     19  O   UNL     1       6.853  -3.666  23.056  0.00  0.00    -0.390 OA
ATOM     20  H   UNL     1       6.760  -4.510  22.580  0.00  0.00    +0.210 HD
ENDBRANCH  15  19
BRANCH  14  21
ATOM     21  C   UNL     1       9.425  -4.137  24.969  0.00  0.00    +0.163 C 
BRANCH  21  22
ATOM     22  O   UNL     1       9.061  -5.360  24.340  0.00  0.00    -0.395 OA
ATOM     23  H   UNL     1       8.092  -5.428  24.390  0.00  0.00    +0.209 HD
ENDBRANCH  21  22
ENDBRANCH  14  21
ENDBRANCH  13  17
ENDBRANCH   1  13
TORSDOF 5
ENDMDL
MODEL 6
REMARK VINA RESULT:      -6.1      2.278      6.451
REMARK  Name = 
REMARK  5 active torsions:
REMARK  status: ('A' for Active; 'I' for Inactive)
REMARK    1  A    between atoms: O_1  and  C_2
REMARK    2  A    between atoms: C_2  and  C_3
REMARK    3  A    between atoms: N_6  and  C_7
REMARK    4  A    between atoms: C_7  and  C_8
REMARK    5  A    between atoms: C_21  and  O_23
REMARK                            x       y       z     vdW  Elec       q    Type
REMARK                         _______ _______ _______ _____ _____    ______ ____
ROOT
ATOM      1  C   UNL     1       7.674  -1.519  22.596  0.00  0.00    -0.016 C 
ATOM      2  C   UNL     1       7.936  -0.731  23.883  0.00  0.00    +0.164 C 
ATOM      3  N   UNL     1       7.472   0.644  23.659  0.00  0.00    -0.266 NA
ATOM      4  C   UNL     1       8.305   1.616  23.664  0.00  0.00    +0.182 C 
ATOM      5  N   UNL     1       9.626   1.528  23.945  0.00  0.00    -0.275 N 
ATOM      6  H   UNL     1      10.199   2.363  24.009  0.00  0.00    +0.156 HD
ATOM      7  C   UNL     1      10.224   0.373  24.352  0.00  0.00    +0.241 C 
ATOM      8  O   UNL     1      11.346   0.392  24.860  0.00  0.00    -0.273 OA
ATOM      9  C   UNL     1       9.460  -0.910  24.076  0.00  0.00    +0.186 C 
ATOM     10  N   UNL     1       9.938  -1.476  22.782  0.00  0.00    -0.337 N 
ATOM     11  H   UNL     1      10.323  -2.408  22.962  0.00  0.00    +0.146 HD
ATOM     12  C   UNL     1       8.837  -1.628  21.915  0.00  0.00    +0.070 C 
ENDROOT
BRANCH   1  13
ATOM     13  C   UNL     1       6.767  -2.737  22.630  0.00  0.00    +0.118 C 
BRANCH  13  17
ATOM     14  C   UNL     1       5.559  -5.372  23.712  0.00  0.00    +0.058 C 
ATOM     15  C   UNL     1       6.258  -6.024  22.526  0.00  0.00    +0.135 C 
ATOM     16  C   UNL     1       7.388  -5.049  22.145  0.00  0.00    +0.116 C 
ATOM     17  N   UNL     1       7.402  -3.958  23.142  0.00  0.00    -0.295 NA
ATOM     18  C   UNL     1       6.671  -4.517  24.304  0.00  0.00    +0.093 C 
BRANCH  15  19
ATOM     19  O   UNL     1       5.318  -6.202  21.470  0.00  0.00    -0.390 OA
ATOM     20  H   UNL     1       5.673  -5.729  20.697  0.00  0.00    +0.210 HD
ENDBRANCH  15  19
BRANCH  14  21
ATOM     21  C   UNL     1       4.944  -6.376  24.683  0.00  0.00    +0.163 C 
BRANCH  21  22
ATOM     22  O   UNL     1       4.431  -7.517  24.006  0.00  0.00    -0.395 OA
ATOM     23  H   UNL     1       4.470  -7.324  23.053  0.00  0.00    +0.209 HD
ENDBRANCH  21  22
ENDBRANCH  14  21
ENDBRANCH  13  17
ENDBRANCH   1  13
TORSDOF 5
ENDMDL
MODEL 7
REMARK VINA RESULT:      -6.1      1.945      6.859
REMARK  Name = 
REMARK  5 active torsions:
REMARK  status: ('A' for Active; 'I' for Inactive)
REMARK    1  A    between atoms: O_1  and  C_2
REMARK    2  A    between atoms: C_2  and  C_3
REMARK    3  A    between atoms: N_6  and  C_7
REMARK    4  A    between atoms: C_7  and  C_8
REMARK    5  A    between atoms: C_21  and  O_23
REMARK                            x       y       z     vdW  Elec       q    Type
REMARK                         _______ _______ _______ _____ _____    ______ ____
ROOT
ATOM      1  C   UNL     1       8.640  -0.987  23.581  0.00  0.00    -0.016 C 
ATOM      2  C   UNL     1       8.350   0.515  23.527  0.00  0.00    +0.164 C 
ATOM      3  N   UNL     1       7.907   0.830  22.162  0.00  0.00    -0.266 NA
ATOM      4  C   UNL     1       8.608   1.598  21.416  0.00  0.00    +0.182 C 
ATOM      5  N   UNL     1       9.734   2.252  21.786  0.00  0.00    -0.275 N 
ATOM      6  H   UNL     1      10.183   2.909  21.155  0.00  0.00    +0.156 HD
ATOM      7  C   UNL     1      10.218   2.238  23.060  0.00  0.00    +0.241 C 
ATOM      8  O   UNL     1      11.067   3.055  23.418  0.00  0.00    -0.273 OA
ATOM      9  C   UNL     1       9.702   1.128  23.960  0.00  0.00    +0.186 C 
ATOM     10  N   UNL     1      10.665  -0.009  23.906  0.00  0.00    -0.337 N 
ATOM     11  H   UNL     1      11.019  -0.174  24.852  0.00  0.00    +0.146 HD
ATOM     12  C   UNL     1       9.977  -1.170  23.498  0.00  0.00    +0.070 C 
ENDROOT
BRANCH   1  13
ATOM     13  C   UNL     1       7.872  -1.868  24.552  0.00  0.00    +0.118 C 
BRANCH  13  17
ATOM     14  C   UNL     1       6.979  -4.274  26.279  0.00  0.00    +0.058 C 
ATOM     15  C   UNL     1       7.223  -5.098  25.021  0.00  0.00    +0.135 C 
ATOM     16  C   UNL     1       8.205  -4.259  24.181  0.00  0.00    +0.116 C 
ATOM     17  N   UNL     1       8.589  -3.076  24.978  0.00  0.00    -0.295 NA
ATOM     18  C   UNL     1       8.258  -3.453  26.373  0.00  0.00    +0.093 C 
BRANCH  15  19
ATOM     19  O   UNL     1       5.983  -5.310  24.352  0.00  0.00    -0.390 OA
ATOM     20  H   UNL     1       5.337  -4.708  24.764  0.00  0.00    +0.210 HD
ENDBRANCH  15  19
BRANCH  14  21
ATOM     21  C   UNL     1       6.675  -5.122  27.512  0.00  0.00    +0.163 C 
BRANCH  21  22
ATOM     22  O   UNL     1       7.685  -6.096  27.743  0.00  0.00    -0.395 OA
ATOM     23  H   UNL     1       7.351  -6.941  27.395  0.00  0.00    +0.209 HD
ENDBRANCH  21  22
ENDBRANCH  14  21
ENDBRANCH  13  17
ENDBRANCH   1  13
TORSDOF 5
ENDMDL
MODEL 8
REMARK VINA RESULT:      -6.1      2.520      6.445
REMARK  Name = 
REMARK  5 active torsions:
REMARK  status: ('A' for Active; 'I' for Inactive)
REMARK    1  A    between atoms: O_1  and  C_2
REMARK    2  A    between atoms: C_2  and  C_3
REMARK    3  A    between atoms: N_6  and  C_7
REMARK    4  A    between atoms: C_7  and  C_8
REMARK    5  A    between atoms: C_21  and  O_23
REMARK                            x       y       z     vdW  Elec       q    Type
REMARK                         _______ _______ _______ _____ _____    ______ ____
ROOT
ATOM      1  C   UNL     1       8.974  -0.653  24.543  0.00  0.00    -0.016 C 
ATOM      2  C   UNL     1       8.384   0.488  23.709  0.00  0.00    +0.164 C 
ATOM      3  N   UNL     1       8.520   0.115  22.294  0.00  0.00    -0.266 NA
ATOM      4  C   UNL     1       9.269   0.800  21.514  0.00  0.00    +0.182 C 
ATOM      5  N   UNL     1       9.926   1.937  21.841  0.00  0.00    -0.275 N 
ATOM      6  H   UNL     1      10.433   2.464  21.136  0.00  0.00    +0.156 HD
ATOM      7  C   UNL     1       9.793   2.551  23.050  0.00  0.00    +0.241 C 
ATOM      8  O   UNL     1      10.177   3.711  23.212  0.00  0.00    -0.273 OA
ATOM      9  C   UNL     1       9.221   1.703  24.173  0.00  0.00    +0.186 C 
ATOM     10  N   UNL     1      10.353   1.109  24.940  0.00  0.00    -0.337 N 
ATOM     11  H   UNL     1      10.287   1.432  25.910  0.00  0.00    +0.146 HD
ATOM     12  C   UNL     1      10.213  -0.293  24.946  0.00  0.00    +0.070 C 
ENDROOT
BRANCH   1  13
ATOM     13  C   UNL     1       8.097  -1.385  25.544  0.00  0.00    +0.118 C 
BRANCH  13  17
ATOM     14  C   UNL     1       6.059  -3.065  23.934  0.00  0.00    +0.058 C 
ATOM     15  C   UNL     1       7.257  -3.457  23.079  0.00  0.00    +0.135 C 
ATOM     16  C   UNL     1       8.483  -3.223  23.983  0.00  0.00    +0.116 C 
ATOM     17  N   UNL     1       7.993  -2.832  25.321  0.00  0.00    -0.295 NA
ATOM     18  C   UNL     1       6.586  -3.296  25.344  0.00  0.00    +0.093 C 
BRANCH  15  19
ATOM     19  O   UNL     1       7.283  -2.643  21.910  0.00  0.00    -0.390 OA
ATOM     20  H   UNL     1       8.036  -2.035  22.010  0.00  0.00    +0.210 HD
ENDBRANCH  15  19
BRANCH  14  21
ATOM     21  C   UNL     1       4.789  -3.842  23.594  0.00  0.00    +0.163 C 
BRANCH  21  22
ATOM     22  O   UNL     1       4.774  -4.257  22.234  0.00  0.00    -0.395 OA
ATOM     23  H   UNL     1       4.885  -3.457  21.692  0.00  0.00    +0.209 HD
ENDBRANCH  21  22
ENDBRANCH  14  21
ENDBRANCH  13  17
ENDBRANCH   1  13
TORSDOF 5
ENDMDL
MODEL 9
REMARK VINA RESULT:      -6.1      2.417      6.639
REMARK  Name = 
REMARK  5 active torsions:
REMARK  status: ('A' for Active; 'I' for Inactive)
REMARK    1  A    between atoms: O_1  and  C_2
REMARK    2  A    between atoms: C_2  and  C_3
REMARK    3  A    between atoms: N_6  and  C_7
REMARK    4  A    between atoms: C_7  and  C_8
REMARK    5  A    between atoms: C_21  and  O_23
REMARK                            x       y       z     vdW  Elec       q    Type
REMARK                         _______ _______ _______ _____ _____    ______ ____
ROOT
ATOM      1  C   UNL     1       8.637  -1.038  23.454  0.00  0.00    -0.016 C 
ATOM      2  C   UNL     1       8.359   0.464  23.340  0.00  0.00    +0.164 C 
ATOM      3  N   UNL     1       8.122   0.762  21.921  0.00  0.00    -0.266 NA
ATOM      4  C   UNL     1       8.927   1.522  21.277  0.00  0.00    +0.182 C 
ATOM      5  N   UNL     1       9.987   2.181  21.801  0.00  0.00    -0.275 N 
ATOM      6  H   UNL     1      10.524   2.831  21.236  0.00  0.00    +0.156 HD
ATOM      7  C   UNL     1      10.277   2.183  23.133  0.00  0.00    +0.241 C 
ATOM      8  O   UNL     1      11.065   3.005  23.603  0.00  0.00    -0.273 OA
ATOM      9  C   UNL     1       9.634   1.083  23.960  0.00  0.00    +0.186 C 
ATOM     10  N   UNL     1      10.592  -0.054  24.062  0.00  0.00    -0.337 N 
ATOM     11  H   UNL     1      10.803  -0.208  25.052  0.00  0.00    +0.146 HD
ATOM     12  C   UNL     1       9.971  -1.220  23.571  0.00  0.00    +0.070 C 
ENDROOT
BRANCH   1  13
ATOM     13  C   UNL     1       7.733  -1.908  24.311  0.00  0.00    +0.118 C 
BRANCH  13  17
ATOM     14  C   UNL     1       7.097  -4.555  22.842  0.00  0.00    +0.058 C 
ATOM     15  C   UNL     1       6.049  -4.752  23.929  0.00  0.00    +0.135 C 
ATOM     16  C   UNL     1       5.758  -3.336  24.463  0.00  0.00    +0.116 C 
ATOM     17  N   UNL     1       6.516  -2.375  23.636  0.00  0.00    -0.295 NA
ATOM     18  C   UNL     1       6.824  -3.125  22.395  0.00  0.00    +0.093 C 
BRANCH  15  19
ATOM     19  O   UNL     1       6.577  -5.612  24.936  0.00  0.00    -0.390 OA
ATOM     20  H   UNL     1       6.982  -5.039  25.609  0.00  0.00    +0.210 HD
ENDBRANCH  15  19
BRANCH  14  21
ATOM     21  C   UNL     1       7.020  -5.595  21.727  0.00  0.00    +0.163 C 
BRANCH  21  22
ATOM     22  O   UNL     1       6.221  -6.710  22.101  0.00  0.00    -0.395 OA
ATOM     23  H   UNL     1       6.759  -7.258  22.698  0.00  0.00    +0.209 HD
ENDBRANCH  21  22
ENDBRANCH  14  21
ENDBRANCH  13  17
ENDBRANCH   1  13
TORSDOF 5
ENDMDL
