MODEL 1
REMARK VINA RESULT:      -7.0      0.000      0.000
REMARK  Name = 
REMARK  10 active torsions:
REMARK  status: ('A' for Active; 'I' for Inactive)
REMARK    1  A    between atoms: C_2  and  N_18
REMARK    2  A    between atoms: C_4  and  C_6
REMARK    3  A    between atoms: C_7  and  O_8
REMARK    4  A    between atoms: O_8  and  C_9
REMARK    5  A    between atoms: C_12  and  C_13
REMARK    6  A    between atoms: C_13  and  C_14
REMARK    7  A    between atoms: C_16  and  O_17
REMARK    8  A    between atoms: N_18  and  C_19
REMARK    9  A    between atoms: C_19  and  N_21
REMARK   10  A    between atoms: C_25  and  C_28
REMARK                            x       y       z     vdW  Elec       q    Type
REMARK                         _______ _______ _______ _____ _____    ______ ____
ROOT
ATOM      1  C   UNL     1       8.957  -3.220  25.761  0.00  0.00    +0.080 C 
ATOM      2  C   UNL     1       8.726  -4.679  25.375  0.00  0.00    +0.048 C 
ATOM      3  C   UNL     1       9.413  -3.740  24.425  0.00  0.00    +0.033 C 
ENDROOT
BRANCH   2   4
ATOM      4  C   UNL     1       7.276  -5.163  25.401  0.00  0.00    +0.041 A 
ATOM      5  C   UNL     1       6.653  -5.582  26.615  0.00  0.00    +0.134 A 
ATOM      6  C   UNL     1       5.421  -6.279  26.658  0.00  0.00    +0.059 A 
ATOM      7  C   UNL     1       4.720  -6.455  25.473  0.00  0.00    +0.018 A 
ATOM      8  C   UNL     1       5.243  -5.957  24.284  0.00  0.00    +0.047 A 
ATOM      9  C   UNL     1       6.501  -5.330  24.224  0.00  0.00    +0.127 A 
BRANCH   6  10
ATOM     10  C   UNL     1       4.934  -6.847  27.958  0.00  0.00    +0.164 C 
ATOM     11  O   UNL     1       5.714  -7.515  28.644  0.00  0.00    -0.292 OA
ATOM     12  C   UNL     1       3.514  -6.666  28.428  0.00  0.00    +0.092 C 
ENDBRANCH   6  10
BRANCH   5  13
ATOM     13  O   UNL     1       7.307  -5.282  27.791  0.00  0.00    -0.506 OA
ATOM     14  H   UNL     1       8.177  -4.879  27.580  0.00  0.00    +0.292 HD
ENDBRANCH   5  13
BRANCH   9  15
ATOM     15  O   UNL     1       6.769  -5.003  22.920  0.00  0.00    -0.495 OA
ATOM     16  C   UNL     1       6.805  -5.960  21.884  0.00  0.00    +0.277 C 
ENDBRANCH   9  15
ENDBRANCH   2   4
BRANCH   1  17
ATOM     17  N   UNL     1       7.977  -2.174  25.714  0.00  0.00    -0.323 N 
ATOM     18  H   UNL     1       7.706  -1.778  26.616  0.00  0.00    +0.148 HD
BRANCH  17  19
ATOM     19  C   UNL     1       7.211  -1.742  24.670  0.00  0.00    +0.136 C 
ATOM     20  S   UNL     1       5.541  -1.741  24.617  0.00  0.00    -0.019 S 
BRANCH  19  21
ATOM     21  N   UNL     1       7.885  -1.250  23.577  0.00  0.00    -0.282 N 
ATOM     22  H   UNL     1       7.685  -1.737  22.715  0.00  0.00    +0.155 HD
ATOM     23  C   UNL     1       8.708  -0.114  23.510  0.00  0.00    +0.124 A 
ATOM     24  C   UNL     1       9.243   0.249  22.279  0.00  0.00    +0.045 A 
ATOM     25  C   UNL     1      10.043   1.393  22.202  0.00  0.00    +0.024 A 
ATOM     26  C   UNL     1      10.282   2.145  23.351  0.00  0.00    +0.070 A 
ATOM     27  C   UNL     1       9.711   1.714  24.532  0.00  0.00    +0.131 A 
ATOM     28  N   UNL     1       8.940   0.604  24.630  0.00  0.00    -0.239 NA
BRANCH  26  29
ATOM     29  C   UNL     1      11.084   3.327  23.328  0.00  0.00    +0.101 C 
ATOM     30  N   UNL     1      11.729   4.288  23.316  0.00  0.00    -0.191 NA
ENDBRANCH  26  29
ENDBRANCH  19  21
ENDBRANCH  17  19
ENDBRANCH   1  17
TORSDOF 8
ENDMDL
MODEL 2
REMARK VINA RESULT:      -6.9      2.807      5.057
REMARK  Name = 
REMARK  10 active torsions:
REMARK  status: ('A' for Active; 'I' for Inactive)
REMARK    1  A    between atoms: C_2  and  N_18
REMARK    2  A    between atoms: C_4  and  C_6
REMARK    3  A    between atoms: C_7  and  O_8
REMARK    4  A    between atoms: O_8  and  C_9
REMARK    5  A    between atoms: C_12  and  C_13
REMARK    6  A    between atoms: C_13  and  C_14
REMARK    7  A    between atoms: C_16  and  O_17
REMARK    8  A    between atoms: N_18  and  C_19
REMARK    9  A    between atoms: C_19  and  N_21
REMARK   10  A    between atoms: C_25  and  C_28
REMARK                            x       y       z     vdW  Elec       q    Type
REMARK                         _______ _______ _______ _____ _____    ______ ____
ROOT
ATOM      1  C   UNL     1       8.126  -5.267  25.912  0.00  0.00    +0.080 C 
ATOM      2  C   UNL     1       8.673  -5.144  24.492  0.00  0.00    +0.048 C 
ATOM      3  C   UNL     1       9.610  -5.245  25.662  0.00  0.00    +0.033 C 
ENDROOT
BRANCH   2   4
ATOM      4  C   UNL     1       8.221  -3.919  23.699  0.00  0.00    +0.041 A 
ATOM      5  C   UNL     1       9.100  -2.820  23.462  0.00  0.00    +0.134 A 
ATOM      6  C   UNL     1       8.664  -1.564  22.972  0.00  0.00    +0.059 A 
ATOM      7  C   UNL     1       7.338  -1.432  22.583  0.00  0.00    +0.018 A 
ATOM      8  C   UNL     1       6.478  -2.519  22.692  0.00  0.00    +0.047 A 
ATOM      9  C   UNL     1       6.887  -3.745  23.248  0.00  0.00    +0.127 A 
BRANCH   6  10
ATOM     10  C   UNL     1       9.620  -0.409  22.933  0.00  0.00    +0.164 C 
ATOM     11  O   UNL     1      10.458  -0.300  23.834  0.00  0.00    -0.292 OA
ATOM     12  C   UNL     1       9.560   0.644  21.856  0.00  0.00    +0.092 C 
ENDBRANCH   6  10
BRANCH   5  13
ATOM     13  O   UNL     1      10.438  -3.016  23.735  0.00  0.00    -0.506 OA
ATOM     14  H   UNL     1      10.656  -3.963  23.600  0.00  0.00    +0.292 HD
ENDBRANCH   5  13
BRANCH   9  15
ATOM     15  O   UNL     1       5.814  -4.597  23.275  0.00  0.00    -0.495 OA
ATOM     16  C   UNL     1       5.621  -5.613  22.314  0.00  0.00    +0.277 C 
ENDBRANCH   9  15
ENDBRANCH   2   4
BRANCH   1  17
ATOM     17  N   UNL     1       7.619  -4.191  26.713  0.00  0.00    -0.323 N 
ATOM     18  H   UNL     1       8.322  -3.610  27.173  0.00  0.00    +0.148 HD
BRANCH  17  19
ATOM     19  C   UNL     1       6.341  -3.927  27.110  0.00  0.00    +0.136 C 
ATOM     20  S   UNL     1       5.487  -4.761  28.280  0.00  0.00    -0.019 S 
BRANCH  19  21
ATOM     21  N   UNL     1       5.716  -2.866  26.499  0.00  0.00    -0.282 N 
ATOM     22  H   UNL     1       4.733  -3.013  26.319  0.00  0.00    +0.155 HD
ATOM     23  C   UNL     1       6.251  -1.600  26.207  0.00  0.00    +0.124 A 
ATOM     24  C   UNL     1       5.419  -0.639  25.642  0.00  0.00    +0.045 A 
ATOM     25  C   UNL     1       5.941   0.630  25.372  0.00  0.00    +0.024 A 
ATOM     26  C   UNL     1       7.272   0.906  25.678  0.00  0.00    +0.070 A 
ATOM     27  C   UNL     1       8.027  -0.104  26.238  0.00  0.00    +0.131 A 
ATOM     28  N   UNL     1       7.544  -1.343  26.501  0.00  0.00    -0.239 NA
BRANCH  26  29
ATOM     29  C   UNL     1       7.854   2.187  25.432  0.00  0.00    +0.101 C 
ATOM     30  N   UNL     1       8.318   3.229  25.235  0.00  0.00    -0.191 NA
ENDBRANCH  26  29
ENDBRANCH  19  21
ENDBRANCH  17  19
ENDBRANCH   1  17
TORSDOF 8
ENDMDL
MODEL 3
REMARK VINA RESULT:      -6.9      1.739      2.788
REMARK  Name = 
REMARK  10 active torsions:
REMARK  status: ('A' for Active; 'I' for Inactive)
REMARK    1  A    between atoms: C_2  and  N_18
REMARK    2  A    between atoms: C_4  and  C_6
REMARK    3  A    between atoms: C_7  and  O_8
REMARK    4  A    between atoms: O_8  and  C_9
REMARK    5  A    between atoms: C_12  and  C_13
REMARK    6  A    between atoms: C_13  and  C_14
REMARK    7  A    between atoms: C_16  and  O_17
REMARK    8  A    between atoms: N_18  and  C_19
REMARK    9  A    between atoms: C_19  and  N_21
REMARK   10  A    between atoms: C_25  and  C_28
REMARK                            x       y       z     vdW  Elec       q    Type
REMARK                         _______ _______ _______ _____ _____    ______ ____
ROOT
ATOM      1  C   UNL     1       6.854  -3.061  22.615  0.00  0.00    +0.080 C 
ATOM      2  C   UNL     1       6.893  -4.588  22.595  0.00  0.00    +0.048 C 
ATOM      3  C   UNL     1       6.102  -3.833  21.564  0.00  0.00    +0.033 C 
ENDROOT
BRANCH   2   4
ATOM      4  C   UNL     1       6.427  -5.291  23.870  0.00  0.00    +0.041 A 
ATOM      5  C   UNL     1       5.242  -6.085  23.891  0.00  0.00    +0.134 A 
ATOM      6  C   UNL     1       4.626  -6.535  25.084  0.00  0.00    +0.059 A 
ATOM      7  C   UNL     1       5.273  -6.300  26.290  0.00  0.00    +0.018 A 
ATOM      8  C   UNL     1       6.491  -5.628  26.297  0.00  0.00    +0.047 A 
ATOM      9  C   UNL     1       7.069  -5.114  25.123  0.00  0.00    +0.127 A 
BRANCH   6  10
ATOM     10  C   UNL     1       3.283  -7.201  25.023  0.00  0.00    +0.164 C 
ATOM     11  O   UNL     1       3.196  -8.314  24.494  0.00  0.00    -0.292 OA
ATOM     12  C   UNL     1       2.036  -6.536  25.545  0.00  0.00    +0.092 C 
ENDBRANCH   6  10
BRANCH   5  13
ATOM     13  O   UNL     1       4.686  -6.415  22.673  0.00  0.00    -0.506 OA
ATOM     14  H   UNL     1       4.009  -7.113  22.809  0.00  0.00    +0.292 HD
ENDBRANCH   5  13
BRANCH   9  15
ATOM     15  O   UNL     1       8.227  -4.458  25.452  0.00  0.00    -0.495 OA
ATOM     16  C   UNL     1       9.506  -5.024  25.262  0.00  0.00    +0.277 C 
ENDBRANCH   9  15
ENDBRANCH   2   4
BRANCH   1  17
ATOM     17  N   UNL     1       6.047  -2.253  23.482  0.00  0.00    -0.323 N 
ATOM     18  H   UNL     1       5.143  -1.963  23.105  0.00  0.00    +0.148 HD
BRANCH  17  19
ATOM     19  C   UNL     1       6.370  -1.652  24.664  0.00  0.00    +0.136 C 
ATOM     20  S   UNL     1       5.288  -1.145  25.831  0.00  0.00    -0.019 S 
BRANCH  19  21
ATOM     21  N   UNL     1       7.710  -1.470  24.913  0.00  0.00    -0.282 N 
ATOM     22  H   UNL     1       8.172  -2.281  25.298  0.00  0.00    +0.155 HD
ATOM     23  C   UNL     1       8.503  -0.354  24.599  0.00  0.00    +0.124 A 
ATOM     24  C   UNL     1       9.864  -0.403  24.881  0.00  0.00    +0.045 A 
ATOM     25  C   UNL     1      10.662   0.696  24.548  0.00  0.00    +0.024 A 
ATOM     26  C   UNL     1      10.083   1.808  23.940  0.00  0.00    +0.070 A 
ATOM     27  C   UNL     1       8.725   1.774  23.696  0.00  0.00    +0.131 A 
ATOM     28  N   UNL     1       7.932   0.723  24.017  0.00  0.00    -0.239 NA
BRANCH  26  29
ATOM     29  C   UNL     1      10.852   2.954  23.571  0.00  0.00    +0.101 C 
ATOM     30  N   UNL     1      11.482   3.878  23.275  0.00  0.00    -0.191 NA
ENDBRANCH  26  29
ENDBRANCH  19  21
ENDBRANCH  17  19
ENDBRANCH   1  17
TORSDOF 8
ENDMDL
MODEL 4
REMARK VINA RESULT:      -6.7      3.583      5.987
REMARK  Name = 
REMARK  10 active torsions:
REMARK  status: ('A' for Active; 'I' for Inactive)
REMARK    1  A    between atoms: C_2  and  N_18
REMARK    2  A    between atoms: C_4  and  C_6
REMARK    3  A    between atoms: C_7  and  O_8
REMARK    4  A    between atoms: O_8  and  C_9
REMARK    5  A    between atoms: C_12  and  C_13
REMARK    6  A    between atoms: C_13  and  C_14
REMARK    7  A    between atoms: C_16  and  O_17
REMARK    8  A    between atoms: N_18  and  C_19
REMARK    9  A    between atoms: C_19  and  N_21
REMARK   10  A    between atoms: C_25  and  C_28
REMARK                            x       y       z     vdW  Elec       q    Type
REMARK                         _______ _______ _______ _____ _____    ______ ____
ROOT
ATOM      1  C   UNL     1       1.847  -5.352  25.606  0.00  0.00    +0.080 C 
ATOM      2  C   UNL     1       2.520  -4.596  26.749  0.00  0.00    +0.048 C 
ATOM      3  C   UNL     1       1.170  -4.170  26.245  0.00  0.00    +0.033 C 
ENDROOT
BRANCH   2   4
ATOM      4  C   UNL     1       3.905  -4.021  26.454  0.00  0.00    +0.041 A 
ATOM      5  C   UNL     1       5.073  -4.840  26.481  0.00  0.00    +0.134 A 
ATOM      6  C   UNL     1       6.390  -4.320  26.478  0.00  0.00    +0.059 A 
ATOM      7  C   UNL     1       6.559  -2.952  26.314  0.00  0.00    +0.018 A 
ATOM      8  C   UNL     1       5.444  -2.134  26.170  0.00  0.00    +0.047 A 
ATOM      9  C   UNL     1       4.132  -2.636  26.247  0.00  0.00    +0.127 A 
BRANCH   6  10
ATOM     10  C   UNL     1       7.553  -5.241  26.699  0.00  0.00    +0.164 C 
ATOM     11  O   UNL     1       7.572  -5.940  27.718  0.00  0.00    -0.292 OA
ATOM     12  C   UNL     1       8.715  -5.306  25.742  0.00  0.00    +0.092 C 
ENDBRANCH   6  10
BRANCH   5  13
ATOM     13  O   UNL     1       4.880  -6.206  26.513  0.00  0.00    -0.506 OA
ATOM     14  H   UNL     1       4.206  -6.450  25.843  0.00  0.00    +0.292 HD
ENDBRANCH   5  13
BRANCH   9  15
ATOM     15  O   UNL     1       3.253  -1.591  26.127  0.00  0.00    -0.495 OA
ATOM     16  C   UNL     1       2.938  -0.730  27.200  0.00  0.00    +0.277 C 
ENDBRANCH   9  15
ENDBRANCH   2   4
BRANCH   1  17
ATOM     17  N   UNL     1       2.149  -5.210  24.211  0.00  0.00    -0.323 N 
ATOM     18  H   UNL     1       1.982  -4.285  23.813  0.00  0.00    +0.148 HD
BRANCH  17  19
ATOM     19  C   UNL     1       2.454  -6.164  23.284  0.00  0.00    +0.136 C 
ATOM     20  S   UNL     1       1.353  -7.025  22.368  0.00  0.00    -0.019 S 
BRANCH  19  21
ATOM     21  N   UNL     1       3.790  -6.417  23.081  0.00  0.00    -0.282 N 
ATOM     22  H   UNL     1       4.015  -7.397  22.989  0.00  0.00    +0.155 HD
ATOM     23  C   UNL     1       4.824  -5.488  22.883  0.00  0.00    +0.124 A 
ATOM     24  C   UNL     1       6.106  -5.962  22.625  0.00  0.00    +0.045 A 
ATOM     25  C   UNL     1       7.135  -5.041  22.404  0.00  0.00    +0.024 A 
ATOM     26  C   UNL     1       6.856  -3.676  22.440  0.00  0.00    +0.070 A 
ATOM     27  C   UNL     1       5.557  -3.291  22.702  0.00  0.00    +0.131 A 
ATOM     28  N   UNL     1       4.547  -4.167  22.927  0.00  0.00    -0.239 NA
BRANCH  26  29
ATOM     29  C   UNL     1       7.866  -2.692  22.212  0.00  0.00    +0.101 C 
ATOM     30  N   UNL     1       8.681  -1.890  22.034  0.00  0.00    -0.191 NA
ENDBRANCH  26  29
ENDBRANCH  19  21
ENDBRANCH  17  19
ENDBRANCH   1  17
TORSDOF 8
ENDMDL
MODEL 5
REMARK VINA RESULT:      -6.7      2.993      5.654
REMARK  Name = 
REMARK  10 active torsions:
REMARK  status: ('A' for Active; 'I' for Inactive)
REMARK    1  A    between atoms: C_2  and  N_18
REMARK    2  A    between atoms: C_4  and  C_6
REMARK    3  A    between atoms: C_7  and  O_8
REMARK    4  A    between atoms: O_8  and  C_9
REMARK    5  A    between atoms: C_12  and  C_13
REMARK    6  A    between atoms: C_13  and  C_14
REMARK    7  A    between atoms: C_16  and  O_17
REMARK    8  A    between atoms: N_18  and  C_19
REMARK    9  A    between atoms: C_19  and  N_21
REMARK   10  A    between atoms: C_25  and  C_28
REMARK                            x       y       z     vdW  Elec       q    Type
REMARK                         _______ _______ _______ _____ _____    ______ ____
ROOT
ATOM      1  C   UNL     1       8.015  -0.568  25.202  0.00  0.00    +0.080 C 
ATOM      2  C   UNL     1       8.116  -1.423  26.463  0.00  0.00    +0.048 C 
ATOM      3  C   UNL     1       9.353  -1.045  25.699  0.00  0.00    +0.033 C 
ENDROOT
BRANCH   2   4
ATOM      4  C   UNL     1       7.319  -2.728  26.459  0.00  0.00    +0.041 A 
ATOM      5  C   UNL     1       5.893  -2.729  26.496  0.00  0.00    +0.134 A 
ATOM      6  C   UNL     1       5.121  -3.887  26.758  0.00  0.00    +0.059 A 
ATOM      7  C   UNL     1       5.774  -5.107  26.861  0.00  0.00    +0.018 A 
ATOM      8  C   UNL     1       7.157  -5.160  26.716  0.00  0.00    +0.047 A 
ATOM      9  C   UNL     1       7.935  -4.004  26.530  0.00  0.00    +0.127 A 
BRANCH   6  10
ATOM     10  C   UNL     1       3.640  -3.762  26.966  0.00  0.00    +0.164 C 
ATOM     11  O   UNL     1       3.217  -2.856  27.691  0.00  0.00    -0.292 OA
ATOM     12  C   UNL     1       2.662  -4.732  26.355  0.00  0.00    +0.092 C 
ENDBRANCH   6  10
BRANCH   5  13
ATOM     13  O   UNL     1       5.258  -1.527  26.263  0.00  0.00    -0.506 OA
ATOM     14  H   UNL     1       4.715  -1.294  27.047  0.00  0.00    +0.292 HD
ENDBRANCH   5  13
BRANCH   9  15
ATOM     15  O   UNL     1       9.257  -4.365  26.480  0.00  0.00    -0.495 OA
ATOM     16  C   UNL     1       9.780  -5.210  25.478  0.00  0.00    +0.277 C 
ENDBRANCH   9  15
ENDBRANCH   2   4
BRANCH   1  17
ATOM     17  N   UNL     1       7.638  -1.034  23.899  0.00  0.00    -0.323 N 
ATOM     18  H   UNL     1       6.639  -1.012  23.691  0.00  0.00    +0.148 HD
BRANCH  17  19
ATOM     19  C   UNL     1       8.385  -1.675  22.954  0.00  0.00    +0.136 C 
ATOM     20  S   UNL     1       9.455  -0.951  21.895  0.00  0.00    -0.019 S 
BRANCH  19  21
ATOM     21  N   UNL     1       8.248  -3.042  22.888  0.00  0.00    -0.282 N 
ATOM     22  H   UNL     1       9.123  -3.546  22.900  0.00  0.00    +0.155 HD
ATOM     23  C   UNL     1       7.062  -3.794  22.917  0.00  0.00    +0.124 A 
ATOM     24  C   UNL     1       7.152  -5.182  22.907  0.00  0.00    +0.045 A 
ATOM     25  C   UNL     1       5.975  -5.934  22.960  0.00  0.00    +0.024 A 
ATOM     26  C   UNL     1       4.744  -5.284  23.027  0.00  0.00    +0.070 A 
ATOM     27  C   UNL     1       4.745  -3.904  23.032  0.00  0.00    +0.131 A 
ATOM     28  N   UNL     1       5.873  -3.155  22.973  0.00  0.00    -0.239 NA
BRANCH  26  29
ATOM     29  C   UNL     1       3.512  -6.003  23.091  0.00  0.00    +0.101 C 
ATOM     30  N   UNL     1       2.508  -6.578  23.143  0.00  0.00    -0.191 NA
ENDBRANCH  26  29
ENDBRANCH  19  21
ENDBRANCH  17  19
ENDBRANCH   1  17
TORSDOF 8
ENDMDL
MODEL 6
REMARK VINA RESULT:      -6.6      2.888      5.799
REMARK  Name = 
REMARK  10 active torsions:
REMARK  status: ('A' for Active; 'I' for Inactive)
REMARK    1  A    between atoms: C_2  and  N_18
REMARK    2  A    between atoms: C_4  and  C_6
REMARK    3  A    between atoms: C_7  and  O_8
REMARK    4  A    between atoms: O_8  and  C_9
REMARK    5  A    between atoms: C_12  and  C_13
REMARK    6  A    between atoms: C_13  and  C_14
REMARK    7  A    between atoms: C_16  and  O_17
REMARK    8  A    between atoms: N_18  and  C_19
REMARK    9  A    between atoms: C_19  and  N_21
REMARK   10  A    between atoms: C_25  and  C_28
REMARK                            x       y       z     vdW  Elec       q    Type
REMARK                         _______ _______ _______ _____ _____    ______ ____
ROOT
ATOM      1  C   UNL     1       5.636  -4.920  24.057  0.00  0.00    +0.080 C 
ATOM      2  C   UNL     1       6.346  -4.217  22.903  0.00  0.00    +0.048 C 
ATOM      3  C   UNL     1       6.290  -5.717  22.962  0.00  0.00    +0.033 C 
ENDROOT
BRANCH   2   4
ATOM      4  C   UNL     1       7.475  -3.260  23.287  0.00  0.00    +0.041 A 
ATOM      5  C   UNL     1       7.407  -1.868  22.980  0.00  0.00    +0.134 A 
ATOM      6  C   UNL     1       8.519  -0.995  23.072  0.00  0.00    +0.059 A 
ATOM      7  C   UNL     1       9.703  -1.487  23.605  0.00  0.00    +0.018 A 
ATOM      8  C   UNL     1       9.770  -2.812  24.022  0.00  0.00    +0.047 A 
ATOM      9  C   UNL     1       8.693  -3.702  23.864  0.00  0.00    +0.127 A 
BRANCH   6  10
ATOM     10  C   UNL     1       8.408   0.407  22.551  0.00  0.00    +0.164 C 
ATOM     11  O   UNL     1       7.359   1.031  22.744  0.00  0.00    -0.292 OA
ATOM     12  C   UNL     1       9.515   1.058  21.763  0.00  0.00    +0.092 C 
ENDBRANCH   6  10
BRANCH   5  13
ATOM     13  O   UNL     1       6.186  -1.373  22.574  0.00  0.00    -0.506 OA
ATOM     14  H   UNL     1       6.238  -0.394  22.523  0.00  0.00    +0.292 HD
ENDBRANCH   5  13
BRANCH   9  15
ATOM     15  O   UNL     1       9.075  -4.941  24.311  0.00  0.00    -0.495 OA
ATOM     16  C   UNL     1       9.786  -5.132  25.516  0.00  0.00    +0.277 C 
ENDBRANCH   9  15
ENDBRANCH   2   4
BRANCH   1  17
ATOM     17  N   UNL     1       6.170  -5.124  25.372  0.00  0.00    -0.323 N 
ATOM     18  H   UNL     1       6.670  -6.003  25.517  0.00  0.00    +0.148 HD
BRANCH  17  19
ATOM     19  C   UNL     1       5.962  -4.413  26.518  0.00  0.00    +0.136 C 
ATOM     20  S   UNL     1       4.754  -4.694  27.638  0.00  0.00    -0.019 S 
BRANCH  19  21
ATOM     21  N   UNL     1       6.842  -3.388  26.772  0.00  0.00    -0.282 N 
ATOM     22  H   UNL     1       7.752  -3.692  27.088  0.00  0.00    +0.155 HD
ATOM     23  C   UNL     1       6.657  -2.014  26.543  0.00  0.00    +0.124 A 
ATOM     24  C   UNL     1       7.710  -1.145  26.810  0.00  0.00    +0.045 A 
ATOM     25  C   UNL     1       7.539   0.219  26.561  0.00  0.00    +0.024 A 
ATOM     26  C   UNL     1       6.327   0.679  26.048  0.00  0.00    +0.070 A 
ATOM     27  C   UNL     1       5.335  -0.251  25.811  0.00  0.00    +0.131 A 
ATOM     28  N   UNL     1       5.477  -1.577  26.053  0.00  0.00    -0.239 NA
BRANCH  26  29
ATOM     29  C   UNL     1       6.101   2.061  25.767  0.00  0.00    +0.101 C 
ATOM     30  N   UNL     1       5.910   3.180  25.542  0.00  0.00    -0.191 NA
ENDBRANCH  26  29
ENDBRANCH  19  21
ENDBRANCH  17  19
ENDBRANCH   1  17
TORSDOF 8
ENDMDL
MODEL 7
REMARK VINA RESULT:      -6.5      2.808      4.767
REMARK  Name = 
REMARK  10 active torsions:
REMARK  status: ('A' for Active; 'I' for Inactive)
REMARK    1  A    between atoms: C_2  and  N_18
REMARK    2  A    between atoms: C_4  and  C_6
REMARK    3  A    between atoms: C_7  and  O_8
REMARK    4  A    between atoms: O_8  and  C_9
REMARK    5  A    between atoms: C_12  and  C_13
REMARK    6  A    between atoms: C_13  and  C_14
REMARK    7  A    between atoms: C_16  and  O_17
REMARK    8  A    between atoms: N_18  and  C_19
REMARK    9  A    between atoms: C_19  and  N_21
REMARK   10  A    between atoms: C_25  and  C_28
REMARK                            x       y       z     vdW  Elec       q    Type
REMARK                         _______ _______ _______ _____ _____    ______ ____
ROOT
ATOM      1  C   UNL     1       5.429  -5.738  24.670  0.00  0.00    +0.080 C 
ATOM      2  C   UNL     1       4.709  -4.828  25.662  0.00  0.00    +0.048 C 
ATOM      3  C   UNL     1       4.077  -5.164  24.341  0.00  0.00    +0.033 C 
ENDROOT
BRANCH   2   4
ATOM      4  C   UNL     1       5.464  -3.573  26.099  0.00  0.00    +0.041 A 
ATOM      5  C   UNL     1       4.875  -2.277  26.000  0.00  0.00    +0.134 A 
ATOM      6  C   UNL     1       5.610  -1.075  26.137  0.00  0.00    +0.059 A 
ATOM      7  C   UNL     1       6.945  -1.155  26.510  0.00  0.00    +0.018 A 
ATOM      8  C   UNL     1       7.524  -2.401  26.727  0.00  0.00    +0.047 A 
ATOM      9  C   UNL     1       6.819  -3.601  26.520  0.00  0.00    +0.127 A 
BRANCH   6  10
ATOM     10  C   UNL     1       4.952   0.238  25.831  0.00  0.00    +0.164 C 
ATOM     11  O   UNL     1       3.814   0.447  26.264  0.00  0.00    -0.292 OA
ATOM     12  C   UNL     1       5.616   1.287  24.978  0.00  0.00    +0.092 C 
ENDBRANCH   6  10
BRANCH   5  13
ATOM     13  O   UNL     1       3.519  -2.222  25.756  0.00  0.00    -0.506 OA
ATOM     14  H   UNL     1       3.195  -3.123  25.542  0.00  0.00    +0.292 HD
ENDBRANCH   5  13
BRANCH   9  15
ATOM     15  O   UNL     1       7.663  -4.655  26.757  0.00  0.00    -0.495 OA
ATOM     16  C   UNL     1       9.051  -4.592  26.508  0.00  0.00    +0.277 C 
ENDBRANCH   9  15
ENDBRANCH   2   4
BRANCH   1  17
ATOM     17  N   UNL     1       6.495  -5.348  23.793  0.00  0.00    -0.323 N 
ATOM     18  H   UNL     1       7.430  -5.344  24.205  0.00  0.00    +0.148 HD
BRANCH  17  19
ATOM     19  C   UNL     1       6.440  -4.802  22.544  0.00  0.00    +0.136 C 
ATOM     20  S   UNL     1       6.356  -5.652  21.108  0.00  0.00    -0.019 S 
BRANCH  19  21
ATOM     21  N   UNL     1       6.436  -3.429  22.473  0.00  0.00    -0.282 N 
ATOM     22  H   UNL     1       5.556  -3.033  22.176  0.00  0.00    +0.155 HD
ATOM     23  C   UNL     1       7.453  -2.541  22.862  0.00  0.00    +0.124 A 
ATOM     24  C   UNL     1       7.216  -1.174  22.770  0.00  0.00    +0.045 A 
ATOM     25  C   UNL     1       8.216  -0.287  23.178  0.00  0.00    +0.024 A 
ATOM     26  C   UNL     1       9.419  -0.786  23.673  0.00  0.00    +0.070 A 
ATOM     27  C   UNL     1       9.572  -2.156  23.731  0.00  0.00    +0.131 A 
ATOM     28  N   UNL     1       8.619  -3.034  23.333  0.00  0.00    -0.239 NA
BRANCH  26  29
ATOM     29  C   UNL     1      10.471   0.075  24.112  0.00  0.00    +0.101 C 
ATOM     30  N   UNL     1      11.318   0.779  24.469  0.00  0.00    -0.191 NA
ENDBRANCH  26  29
ENDBRANCH  19  21
ENDBRANCH  17  19
ENDBRANCH   1  17
TORSDOF 8
ENDMDL
MODEL 8
REMARK VINA RESULT:      -6.5      1.644      2.279
REMARK  Name = 
REMARK  10 active torsions:
REMARK  status: ('A' for Active; 'I' for Inactive)
REMARK    1  A    between atoms: C_2  and  N_18
REMARK    2  A    between atoms: C_4  and  C_6
REMARK    3  A    between atoms: C_7  and  O_8
REMARK    4  A    between atoms: O_8  and  C_9
REMARK    5  A    between atoms: C_12  and  C_13
REMARK    6  A    between atoms: C_13  and  C_14
REMARK    7  A    between atoms: C_16  and  O_17
REMARK    8  A    between atoms: N_18  and  C_19
REMARK    9  A    between atoms: C_19  and  N_21
REMARK   10  A    between atoms: C_25  and  C_28
REMARK                            x       y       z     vdW  Elec       q    Type
REMARK                         _______ _______ _______ _____ _____    ______ ____
ROOT
ATOM      1  C   UNL     1       6.994  -3.320  22.654  0.00  0.00    +0.080 C 
ATOM      2  C   UNL     1       6.609  -4.788  22.817  0.00  0.00    +0.048 C 
ATOM      3  C   UNL     1       6.260  -4.044  21.559  0.00  0.00    +0.033 C 
ENDROOT
BRANCH   2   4
ATOM      4  C   UNL     1       5.741  -5.127  24.029  0.00  0.00    +0.041 A 
ATOM      5  C   UNL     1       6.256  -5.048  25.358  0.00  0.00    +0.134 A 
ATOM      6  C   UNL     1       5.594  -5.596  26.484  0.00  0.00    +0.059 A 
ATOM      7  C   UNL     1       4.322  -6.125  26.310  0.00  0.00    +0.018 A 
ATOM      8  C   UNL     1       3.741  -6.114  25.046  0.00  0.00    +0.047 A 
ATOM      9  C   UNL     1       4.424  -5.640  23.912  0.00  0.00    +0.127 A 
BRANCH   6  10
ATOM     10  C   UNL     1       6.293  -5.636  27.811  0.00  0.00    +0.164 C 
ATOM     11  O   UNL     1       7.474  -5.996  27.849  0.00  0.00    -0.292 OA
ATOM     12  C   UNL     1       5.587  -5.296  29.098  0.00  0.00    +0.092 C 
ENDBRANCH   6  10
BRANCH   5  13
ATOM     13  O   UNL     1       7.463  -4.403  25.526  0.00  0.00    -0.506 OA
ATOM     14  H   UNL     1       7.656  -3.871  24.724  0.00  0.00    +0.292 HD
ENDBRANCH   5  13
BRANCH   9  15
ATOM     15  O   UNL     1       3.623  -5.810  22.812  0.00  0.00    -0.495 OA
ATOM     16  C   UNL     1       2.313  -6.329  22.894  0.00  0.00    +0.277 C 
ENDBRANCH   9  15
ENDBRANCH   2   4
BRANCH   1  17
ATOM     17  N   UNL     1       6.303  -2.200  23.225  0.00  0.00    -0.323 N 
ATOM     18  H   UNL     1       5.558  -1.799  22.652  0.00  0.00    +0.148 HD
BRANCH  17  19
ATOM     19  C   UNL     1       6.599  -1.467  24.336  0.00  0.00    +0.136 C 
ATOM     20  S   UNL     1       5.491  -0.790  25.387  0.00  0.00    -0.019 S 
BRANCH  19  21
ATOM     21  N   UNL     1       7.934  -1.291  24.617  0.00  0.00    -0.282 N 
ATOM     22  H   UNL     1       8.393  -2.115  24.976  0.00  0.00    +0.155 HD
ATOM     23  C   UNL     1       8.728  -0.160  24.363  0.00  0.00    +0.124 A 
ATOM     24  C   UNL     1      10.084  -0.216  24.666  0.00  0.00    +0.045 A 
ATOM     25  C   UNL     1      10.883   0.898  24.393  0.00  0.00    +0.024 A 
ATOM     26  C   UNL     1      10.310   2.033  23.821  0.00  0.00    +0.070 A 
ATOM     27  C   UNL     1       8.957   2.004  23.551  0.00  0.00    +0.131 A 
ATOM     28  N   UNL     1       8.163   0.938  23.815  0.00  0.00    -0.239 NA
BRANCH  26  29
ATOM     29  C   UNL     1      11.081   3.195  23.513  0.00  0.00    +0.101 C 
ATOM     30  N   UNL     1      11.698   4.142  23.263  0.00  0.00    -0.191 NA
ENDBRANCH  26  29
ENDBRANCH  19  21
ENDBRANCH  17  19
ENDBRANCH   1  17
TORSDOF 8
ENDMDL
MODEL 9
REMARK VINA RESULT:      -6.5      1.629      2.051
REMARK  Name = 
REMARK  10 active torsions:
REMARK  status: ('A' for Active; 'I' for Inactive)
REMARK    1  A    between atoms: C_2  and  N_18
REMARK    2  A    between atoms: C_4  and  C_6
REMARK    3  A    between atoms: C_7  and  O_8
REMARK    4  A    between atoms: O_8  and  C_9
REMARK    5  A    between atoms: C_12  and  C_13
REMARK    6  A    between atoms: C_13  and  C_14
REMARK    7  A    between atoms: C_16  and  O_17
REMARK    8  A    between atoms: N_18  and  C_19
REMARK    9  A    between atoms: C_19  and  N_21
REMARK   10  A    between atoms: C_25  and  C_28
REMARK                            x       y       z     vdW  Elec       q    Type
REMARK                         _______ _______ _______ _____ _____    ______ ____
ROOT
ATOM      1  C   UNL     1       9.006  -1.820  24.303  0.00  0.00    +0.080 C 
ATOM      2  C   UNL     1       8.923  -3.343  24.245  0.00  0.00    +0.048 C 
ATOM      3  C   UNL     1       9.207  -2.548  23.002  0.00  0.00    +0.033 C 
ENDROOT
BRANCH   2   4
ATOM      4  C   UNL     1       7.617  -3.967  24.735  0.00  0.00    +0.041 A 
ATOM      5  C   UNL     1       7.433  -4.330  26.103  0.00  0.00    +0.134 A 
ATOM      6  C   UNL     1       6.365  -5.141  26.557  0.00  0.00    +0.059 A 
ATOM      7  C   UNL     1       5.376  -5.499  25.651  0.00  0.00    +0.018 A 
ATOM      8  C   UNL     1       5.463  -5.066  24.332  0.00  0.00    +0.047 A 
ATOM      9  C   UNL     1       6.560  -4.324  23.858  0.00  0.00    +0.127 A 
BRANCH   6  10
ATOM     10  C   UNL     1       6.353  -5.629  27.975  0.00  0.00    +0.164 C 
ATOM     11  O   UNL     1       7.251  -6.390  28.349  0.00  0.00    -0.292 OA
ATOM     12  C   UNL     1       5.257  -5.257  28.941  0.00  0.00    +0.092 C 
ENDBRANCH   6  10
BRANCH   5  13
ATOM     13  O   UNL     1       8.358  -3.854  27.008  0.00  0.00    -0.506 OA
ATOM     14  H   UNL     1       8.854  -3.113  26.599  0.00  0.00    +0.292 HD
ENDBRANCH   5  13
BRANCH   9  15
ATOM     15  O   UNL     1       6.393  -4.096  22.517  0.00  0.00    -0.495 OA
ATOM     16  C   UNL     1       5.633  -3.018  22.014  0.00  0.00    +0.277 C 
ENDBRANCH   9  15
ENDBRANCH   2   4
BRANCH   1  17
ATOM     17  N   UNL     1       7.891  -0.918  24.340  0.00  0.00    -0.323 N 
ATOM     18  H   UNL     1       7.382  -0.805  23.462  0.00  0.00    +0.148 HD
BRANCH  17  19
ATOM     19  C   UNL     1       7.509  -0.044  25.317  0.00  0.00    +0.136 C 
ATOM     20  S   UNL     1       7.066  -0.451  26.875  0.00  0.00    -0.019 S 
BRANCH  19  21
ATOM     21  N   UNL     1       7.510   1.289  24.981  0.00  0.00    -0.282 N 
ATOM     22  H   UNL     1       6.639   1.763  25.169  0.00  0.00    +0.155 HD
ATOM     23  C   UNL     1       8.589   2.063  24.523  0.00  0.00    +0.124 A 
ATOM     24  C   UNL     1       8.390   3.422  24.304  0.00  0.00    +0.045 A 
ATOM     25  C   UNL     1       9.467   4.201  23.872  0.00  0.00    +0.024 A 
ATOM     26  C   UNL     1      10.712   3.606  23.676  0.00  0.00    +0.070 A 
ATOM     27  C   UNL     1      10.823   2.252  23.917  0.00  0.00    +0.131 A 
ATOM     28  N   UNL     1       9.791   1.477  24.329  0.00  0.00    -0.239 NA
BRANCH  26  29
ATOM     29  C   UNL     1      11.848   4.356  23.244  0.00  0.00    +0.101 C 
ATOM     30  N   UNL     1      12.774   4.957  22.895  0.00  0.00    -0.191 NA
ENDBRANCH  26  29
ENDBRANCH  19  21
ENDBRANCH  17  19
ENDBRANCH   1  17
TORSDOF 8
ENDMDL
