MODEL 1
REMARK VINA RESULT:      -7.2      0.000      0.000
REMARK  Name = 
REMARK  12 active torsions:
REMARK  status: ('A' for Active; 'I' for Inactive)
REMARK    1  A    between atoms: C_1  and  N_2
REMARK    2  A    between atoms: N_4  and  C_5
REMARK    3  A    between atoms: C_8  and  C_10
REMARK    4  A    between atoms: C_10  and  O_11
REMARK    5  A    between atoms: O_11  and  P_12
REMARK    6  A    between atoms: P_12  and  O_13
REMARK    7  A    between atoms: P_12  and  O_15
REMARK    8  A    between atoms: O_15  and  P_16
REMARK    9  A    between atoms: P_16  and  O_17
REMARK   10  A    between atoms: P_16  and  O_18
REMARK   11  A    between atoms: C_20  and  O_22
REMARK   12  A    between atoms: C_23  and  O_25
REMARK                            x       y       z     vdW  Elec       q    Type
REMARK                         _______ _______ _______ _____ _____    ______ ____
ROOT
ATOM      1  C   UNL     1       7.961  -5.378  26.191  0.00  0.00    +0.240 C 
ATOM      2  C   UNL     1       9.116  -5.237  25.163  0.00  0.00    +0.193 C 
ATOM      3  C   UNL     1       9.175  -3.742  24.851  0.00  0.00    +0.178 C 
ATOM      4  C   UNL     1       8.082  -3.140  25.722  0.00  0.00    +0.178 C 
ATOM      5  O   UNL     1       7.851  -4.067  26.791  0.00  0.00    -0.348 OA
ENDROOT
BRANCH   1  19
ATOM      6  C   UNL     1       4.134  -5.728  23.010  0.00  0.00    +0.131 C 
ATOM      7  N   UNL     1       4.921  -5.779  24.209  0.00  0.00    -0.310 N 
ATOM      8  C   UNL     1       4.564  -6.290  25.449  0.00  0.00    +0.136 A 
ATOM      9  C   UNL     1       3.275  -6.815  25.919  0.00  0.00    +0.276 A 
ATOM     10  N   UNL     1       3.287  -7.174  27.244  0.00  0.00    -0.294 N 
ATOM     11  H   UNL     1       2.415  -7.500  27.625  0.00  0.00    +0.172 HD
ATOM     12  C   UNL     1       4.382  -7.031  28.048  0.00  0.00    +0.195 A 
ATOM     13  N   UNL     1       5.528  -6.589  27.627  0.00  0.00    -0.199 NA
ATOM     14  N   UNL     1       4.246  -7.378  29.352  0.00  0.00    -0.329 N 
ATOM     15  H   UNL     1       5.150  -7.446  29.813  0.00  0.00    +0.145 HD
ATOM     16  H   UNL     1       3.648  -8.168  29.549  0.00  0.00    +0.145 HD
ATOM     17  O   UNL     1       2.277  -6.928  25.212  0.00  0.00    -0.266 OA
ATOM     18  C   UNL     1       5.598  -6.245  26.309  0.00  0.00    +0.155 A 
ATOM     19  N   UNL     1       6.710  -5.774  25.597  0.00  0.00    -0.270 N 
ATOM     20  C   UNL     1       6.298  -5.305  24.268  0.00  0.00    +0.217 C 
ENDBRANCH   1  19
BRANCH   2  21
ATOM     21  O   UNL     1      10.379  -5.631  25.750  0.00  0.00    -0.385 OA
ATOM     22  H   UNL     1      10.377  -6.599  25.845  0.00  0.00    +0.210 HD
ENDBRANCH   2  21
BRANCH   3  23
ATOM     23  O   UNL     1       8.943  -3.462  23.473  0.00  0.00    -0.386 OA
ATOM     24  H   UNL     1       9.805  -3.243  23.068  0.00  0.00    +0.210 HD
ENDBRANCH   3  23
BRANCH   4  25
ATOM     25  C   UNL     1       8.450  -1.761  26.250  0.00  0.00    +0.206 C 
BRANCH  25  26
ATOM     26  O   UNL     1       8.087  -0.780  25.283  0.00  0.00    -0.284 OA
BRANCH  26  27
ATOM     27  P   UNL     1       9.203   0.369  24.916  0.00  0.00    +0.483 P 
ATOM     28  O   UNL     1       8.618   1.250  23.820  0.00  0.00    -0.227 OA
BRANCH  27  29
ATOM     29  O   UNL     1       8.445   1.428  26.055  0.00  0.00    -0.302 OA
ATOM     30  H   UNL     1       9.095   2.162  26.120  0.00  0.00    +0.222 HD
ENDBRANCH  27  29
BRANCH  27  31
ATOM     31  O   UNL     1       9.960  -0.690  23.777  0.00  0.00    -0.186 OA
BRANCH  31  32
ATOM     32  P   UNL     1       9.535  -0.207  22.171  0.00  0.00    +0.481 P 
ATOM     33  O   UNL     1       9.155   0.224  20.733  0.00  0.00    -0.227 OA
BRANCH  32  34
ATOM     34  O   UNL     1       8.151  -1.040  22.420  0.00  0.00    -0.302 OA
ATOM     35  H   UNL     1       7.412  -0.461  22.158  0.00  0.00    +0.222 HD
ENDBRANCH  32  34
BRANCH  32  36
ATOM     36  O   UNL     1      10.358  -1.546  21.696  0.00  0.00    -0.302 OA
ATOM     37  H   UNL     1      10.177  -2.330  22.240  0.00  0.00    +0.222 HD
ENDBRANCH  32  36
ENDBRANCH  31  32
ENDBRANCH  27  31
ENDBRANCH  26  27
ENDBRANCH  25  26
ENDBRANCH   4  25
TORSDOF 11
ENDMDL
MODEL 2
REMARK VINA RESULT:      -7.1      4.287      7.603
REMARK  Name = 
REMARK  12 active torsions:
REMARK  status: ('A' for Active; 'I' for Inactive)
REMARK    1  A    between atoms: C_1  and  N_2
REMARK    2  A    between atoms: N_4  and  C_5
REMARK    3  A    between atoms: C_8  and  C_10
REMARK    4  A    between atoms: C_10  and  O_11
REMARK    5  A    between atoms: O_11  and  P_12
REMARK    6  A    between atoms: P_12  and  O_13
REMARK    7  A    between atoms: P_12  and  O_15
REMARK    8  A    between atoms: O_15  and  P_16
REMARK    9  A    between atoms: P_16  and  O_17
REMARK   10  A    between atoms: P_16  and  O_18
REMARK   11  A    between atoms: C_20  and  O_22
REMARK   12  A    between atoms: C_23  and  O_25
REMARK                            x       y       z     vdW  Elec       q    Type
REMARK                         _______ _______ _______ _____ _____    ______ ____
ROOT
ATOM      1  C   UNL     1       9.818  -3.040  24.496  0.00  0.00    +0.240 C 
ATOM      2  C   UNL     1       9.536  -4.287  25.377  0.00  0.00    +0.193 C 
ATOM      3  C   UNL     1       8.248  -4.880  24.807  0.00  0.00    +0.178 C 
ATOM      4  C   UNL     1       7.899  -3.958  23.647  0.00  0.00    +0.178 C 
ATOM      5  O   UNL     1       9.116  -3.306  23.261  0.00  0.00    -0.348 OA
ENDROOT
BRANCH   1  19
ATOM      6  C   UNL     1       7.531   0.194  27.530  0.00  0.00    +0.131 C 
ATOM      7  N   UNL     1       8.177  -0.380  26.384  0.00  0.00    -0.310 N 
ATOM      8  C   UNL     1       8.567   0.254  25.211  0.00  0.00    +0.136 A 
ATOM      9  C   UNL     1       8.343   1.635  24.764  0.00  0.00    +0.276 A 
ATOM     10  N   UNL     1       8.826   1.881  23.502  0.00  0.00    -0.294 N 
ATOM     11  H   UNL     1       8.658   2.801  23.134  0.00  0.00    +0.172 HD
ATOM     12  C   UNL     1       9.431   0.927  22.734  0.00  0.00    +0.195 A 
ATOM     13  N   UNL     1       9.650  -0.287  23.139  0.00  0.00    -0.199 NA
ATOM     14  N   UNL     1       9.818   1.288  21.485  0.00  0.00    -0.329 N 
ATOM     15  H   UNL     1      10.441   0.596  21.077  0.00  0.00    +0.145 HD
ATOM     16  H   UNL     1      10.158   2.232  21.374  0.00  0.00    +0.145 HD
ATOM     17  O   UNL     1       7.781   2.495  25.436  0.00  0.00    -0.266 OA
ATOM     18  C   UNL     1       9.225  -0.593  24.398  0.00  0.00    +0.155 A 
ATOM     19  N   UNL     1       9.362  -1.807  25.085  0.00  0.00    -0.270 N 
ATOM     20  C   UNL     1       8.566  -1.783  26.318  0.00  0.00    +0.217 C 
ENDBRANCH   1  19
BRANCH   2  21
ATOM     21  O   UNL     1      10.592  -5.267  25.235  0.00  0.00    -0.385 OA
ATOM     22  H   UNL     1      10.297  -6.089  25.662  0.00  0.00    +0.210 HD
ENDBRANCH   2  21
BRANCH   3  23
ATOM     23  O   UNL     1       7.193  -4.918  25.765  0.00  0.00    -0.386 OA
ATOM     24  H   UNL     1       6.971  -5.857  25.919  0.00  0.00    +0.210 HD
ENDBRANCH   3  23
BRANCH   4  25
ATOM     25  C   UNL     1       7.270  -4.703  22.478  0.00  0.00    +0.206 C 
BRANCH  25  26
ATOM     26  O   UNL     1       6.568  -5.839  22.974  0.00  0.00    -0.284 OA
BRANCH  26  27
ATOM     27  P   UNL     1       4.934  -5.851  22.805  0.00  0.00    +0.483 P 
ATOM     28  O   UNL     1       4.517  -4.502  22.235  0.00  0.00    -0.227 OA
BRANCH  27  29
ATOM     29  O   UNL     1       5.137  -6.384  21.171  0.00  0.00    -0.302 OA
ATOM     30  H   UNL     1       5.153  -5.534  20.677  0.00  0.00    +0.222 HD
ENDBRANCH  27  29
BRANCH  27  31
ATOM     31  O   UNL     1       4.733  -5.318  24.438  0.00  0.00    -0.186 OA
BRANCH  31  32
ATOM     32  P   UNL     1       3.789  -6.477  25.310  0.00  0.00    +0.481 P 
ATOM     33  O   UNL     1       2.945  -7.515  26.090  0.00  0.00    -0.227 OA
BRANCH  32  34
ATOM     34  O   UNL     1       5.156  -6.768  26.157  0.00  0.00    -0.302 OA
ATOM     35  H   UNL     1       4.898  -7.222  26.979  0.00  0.00    +0.222 HD
ENDBRANCH  32  34
BRANCH  32  36
ATOM     36  O   UNL     1       4.206  -7.517  24.110  0.00  0.00    -0.302 OA
ATOM     37  H   UNL     1       4.326  -7.089  23.246  0.00  0.00    +0.222 HD
ENDBRANCH  32  36
ENDBRANCH  31  32
ENDBRANCH  27  31
ENDBRANCH  26  27
ENDBRANCH  25  26
ENDBRANCH   4  25
TORSDOF 11
ENDMDL
MODEL 3
REMARK VINA RESULT:      -7.0      5.049      8.136
REMARK  Name = 
REMARK  12 active torsions:
REMARK  status: ('A' for Active; 'I' for Inactive)
REMARK    1  A    between atoms: C_1  and  N_2
REMARK    2  A    between atoms: N_4  and  C_5
REMARK    3  A    between atoms: C_8  and  C_10
REMARK    4  A    between atoms: C_10  and  O_11
REMARK    5  A    between atoms: O_11  and  P_12
REMARK    6  A    between atoms: P_12  and  O_13
REMARK    7  A    between atoms: P_12  and  O_15
REMARK    8  A    between atoms: O_15  and  P_16
REMARK    9  A    between atoms: P_16  and  O_17
REMARK   10  A    between atoms: P_16  and  O_18
REMARK   11  A    between atoms: C_20  and  O_22
REMARK   12  A    between atoms: C_23  and  O_25
REMARK                            x       y       z     vdW  Elec       q    Type
REMARK                         _______ _______ _______ _____ _____    ______ ____
ROOT
ATOM      1  C   UNL     1       8.780  -0.755  22.367  0.00  0.00    +0.240 C 
ATOM      2  C   UNL     1       9.870  -1.587  23.095  0.00  0.00    +0.193 C 
ATOM      3  C   UNL     1       9.162  -2.876  23.508  0.00  0.00    +0.178 C 
ATOM      4  C   UNL     1       7.745  -2.704  22.979  0.00  0.00    +0.178 C 
ATOM      5  O   UNL     1       7.815  -1.735  21.924  0.00  0.00    -0.348 OA
ENDROOT
BRANCH   1  19
ATOM      6  C   UNL     1       5.316   1.818  24.871  0.00  0.00    +0.131 C 
ATOM      7  N   UNL     1       6.533   1.467  24.196  0.00  0.00    -0.310 N 
ATOM      8  C   UNL     1       7.701   2.209  24.092  0.00  0.00    +0.136 A 
ATOM      9  C   UNL     1       7.993   3.579  24.535  0.00  0.00    +0.276 A 
ATOM     10  N   UNL     1       9.256   4.001  24.196  0.00  0.00    -0.294 N 
ATOM     11  H   UNL     1       9.488   4.947  24.439  0.00  0.00    +0.172 HD
ATOM     12  C   UNL     1      10.138   3.229  23.494  0.00  0.00    +0.195 A 
ATOM     13  N   UNL     1       9.889   2.010  23.124  0.00  0.00    -0.199 NA
ATOM     14  N   UNL     1      11.336   3.784  23.180  0.00  0.00    -0.329 N 
ATOM     15  H   UNL     1      11.996   3.080  22.859  0.00  0.00    +0.145 HD
ATOM     16  H   UNL     1      11.736   4.410  23.864  0.00  0.00    +0.145 HD
ATOM     17  O   UNL     1       7.201   4.290  25.147  0.00  0.00    -0.266 OA
ATOM     18  C   UNL     1       8.663   1.514  23.457  0.00  0.00    +0.155 A 
ATOM     19  N   UNL     1       8.153   0.232  23.210  0.00  0.00    -0.270 N 
ATOM     20  C   UNL     1       6.721   0.187  23.526  0.00  0.00    +0.217 C 
ENDBRANCH   1  19
BRANCH   2  21
ATOM     21  O   UNL     1      10.948  -1.928  22.191  0.00  0.00    -0.385 OA
ATOM     22  H   UNL     1      10.565  -2.074  21.309  0.00  0.00    +0.210 HD
ENDBRANCH   2  21
BRANCH   3  23
ATOM     23  O   UNL     1       9.160  -3.071  24.920  0.00  0.00    -0.386 OA
ATOM     24  H   UNL     1       9.360  -2.210  25.336  0.00  0.00    +0.210 HD
ENDBRANCH   3  23
BRANCH   4  25
ATOM     25  C   UNL     1       7.139  -4.013  22.495  0.00  0.00    +0.206 C 
BRANCH  25  26
ATOM     26  O   UNL     1       7.310  -5.005  23.503  0.00  0.00    -0.284 OA
BRANCH  26  27
ATOM     27  P   UNL     1       5.999  -5.388  24.417  0.00  0.00    +0.483 P 
ATOM     28  O   UNL     1       4.874  -4.435  24.037  0.00  0.00    -0.227 OA
BRANCH  27  29
ATOM     29  O   UNL     1       5.446  -6.417  23.141  0.00  0.00    -0.302 OA
ATOM     30  H   UNL     1       6.289  -6.778  22.786  0.00  0.00    +0.222 HD
ENDBRANCH  27  29
BRANCH  27  31
ATOM     31  O   UNL     1       6.554  -4.359  25.692  0.00  0.00    -0.186 OA
BRANCH  31  32
ATOM     32  P   UNL     1       6.818  -5.301  27.119  0.00  0.00    +0.481 P 
ATOM     33  O   UNL     1       7.054  -6.145  28.396  0.00  0.00    -0.227 OA
BRANCH  32  34
ATOM     34  O   UNL     1       8.201  -5.784  26.394  0.00  0.00    -0.302 OA
ATOM     35  H   UNL     1       8.873  -5.100  26.566  0.00  0.00    +0.222 HD
ENDBRANCH  32  34
BRANCH  32  36
ATOM     36  O   UNL     1       5.917  -6.448  26.365  0.00  0.00    -0.302 OA
ATOM     37  H   UNL     1       6.288  -6.738  25.515  0.00  0.00    +0.222 HD
ENDBRANCH  32  36
ENDBRANCH  31  32
ENDBRANCH  27  31
ENDBRANCH  26  27
ENDBRANCH  25  26
ENDBRANCH   4  25
TORSDOF 11
ENDMDL
MODEL 4
REMARK VINA RESULT:      -7.0      2.150      3.618
REMARK  Name = 
REMARK  12 active torsions:
REMARK  status: ('A' for Active; 'I' for Inactive)
REMARK    1  A    between atoms: C_1  and  N_2
REMARK    2  A    between atoms: N_4  and  C_5
REMARK    3  A    between atoms: C_8  and  C_10
REMARK    4  A    between atoms: C_10  and  O_11
REMARK    5  A    between atoms: O_11  and  P_12
REMARK    6  A    between atoms: P_12  and  O_13
REMARK    7  A    between atoms: P_12  and  O_15
REMARK    8  A    between atoms: O_15  and  P_16
REMARK    9  A    between atoms: P_16  and  O_17
REMARK   10  A    between atoms: P_16  and  O_18
REMARK   11  A    between atoms: C_20  and  O_22
REMARK   12  A    between atoms: C_23  and  O_25
REMARK                            x       y       z     vdW  Elec       q    Type
REMARK                         _______ _______ _______ _____ _____    ______ ____
ROOT
ATOM      1  C   UNL     1       6.675  -5.489  23.323  0.00  0.00    +0.240 C 
ATOM      2  C   UNL     1       5.840  -4.721  22.264  0.00  0.00    +0.193 C 
ATOM      3  C   UNL     1       6.446  -3.318  22.236  0.00  0.00    +0.178 C 
ATOM      4  C   UNL     1       7.579  -3.386  23.249  0.00  0.00    +0.178 C 
ATOM      5  O   UNL     1       7.928  -4.771  23.384  0.00  0.00    -0.348 OA
ENDROOT
BRANCH   1  19
ATOM      6  C   UNL     1       5.997  -5.242  28.260  0.00  0.00    +0.131 C 
ATOM      7  N   UNL     1       5.827  -5.573  26.874  0.00  0.00    -0.310 N 
ATOM      8  C   UNL     1       4.781  -6.265  26.278  0.00  0.00    +0.136 A 
ATOM      9  C   UNL     1       3.627  -6.940  26.888  0.00  0.00    +0.276 A 
ATOM     10  N   UNL     1       2.828  -7.581  25.972  0.00  0.00    -0.294 N 
ATOM     11  H   UNL     1       2.049  -8.094  26.344  0.00  0.00    +0.172 HD
ATOM     12  C   UNL     1       3.099  -7.606  24.633  0.00  0.00    +0.195 A 
ATOM     13  N   UNL     1       4.106  -6.991  24.092  0.00  0.00    -0.199 NA
ATOM     14  N   UNL     1       2.256  -8.318  23.843  0.00  0.00    -0.329 N 
ATOM     15  H   UNL     1       2.404  -8.104  22.859  0.00  0.00    +0.145 HD
ATOM     16  H   UNL     1       1.280  -8.308  24.101  0.00  0.00    +0.145 HD
ATOM     17  O   UNL     1       3.385  -6.942  28.091  0.00  0.00    -0.266 OA
ATOM     18  C   UNL     1       4.923  -6.304  24.941  0.00  0.00    +0.155 A 
ATOM     19  N   UNL     1       6.051  -5.535  24.621  0.00  0.00    -0.270 N 
ATOM     20  C   UNL     1       6.772  -5.162  25.843  0.00  0.00    +0.217 C 
ENDBRANCH   1  19
BRANCH   2  21
ATOM     21  O   UNL     1       5.999  -5.313  20.953  0.00  0.00    -0.385 OA
ATOM     22  H   UNL     1       6.775  -5.899  20.981  0.00  0.00    +0.210 HD
ENDBRANCH   2  21
BRANCH   3  23
ATOM     23  O   UNL     1       5.504  -2.308  22.589  0.00  0.00    -0.386 OA
ATOM     24  H   UNL     1       4.798  -2.735  23.113  0.00  0.00    +0.210 HD
ENDBRANCH   3  23
BRANCH   4  25
ATOM     25  C   UNL     1       8.780  -2.546  22.839  0.00  0.00    +0.206 C 
BRANCH  25  26
ATOM     26  O   UNL     1       8.324  -1.283  22.365  0.00  0.00    -0.284 OA
BRANCH  26  27
ATOM     27  P   UNL     1       9.464  -0.178  21.942  0.00  0.00    +0.483 P 
ATOM     28  O   UNL     1      10.361   0.050  23.151  0.00  0.00    -0.227 OA
BRANCH  27  29
ATOM     29  O   UNL     1      10.521  -1.477  21.508  0.00  0.00    -0.302 OA
ATOM     30  H   UNL     1      11.200  -1.437  22.218  0.00  0.00    +0.222 HD
ENDBRANCH  27  29
BRANCH  27  31
ATOM     31  O   UNL     1       8.407   1.121  22.376  0.00  0.00    -0.186 OA
BRANCH  31  32
ATOM     32  P   UNL     1       9.342   2.457  22.951  0.00  0.00    +0.481 P 
ATOM     33  O   UNL     1      10.180   3.654  23.466  0.00  0.00    -0.227 OA
BRANCH  32  34
ATOM     34  O   UNL     1       8.236   3.395  22.198  0.00  0.00    -0.302 OA
ATOM     35  H   UNL     1       8.523   4.321  22.298  0.00  0.00    +0.222 HD
ENDBRANCH  32  34
BRANCH  32  36
ATOM     36  O   UNL     1      10.228   2.251  21.585  0.00  0.00    -0.302 OA
ATOM     37  H   UNL     1      10.440   1.322  21.394  0.00  0.00    +0.222 HD
ENDBRANCH  32  36
ENDBRANCH  31  32
ENDBRANCH  27  31
ENDBRANCH  26  27
ENDBRANCH  25  26
ENDBRANCH   4  25
TORSDOF 11
ENDMDL
MODEL 5
REMARK VINA RESULT:      -6.9      2.099      3.629
REMARK  Name = 
REMARK  12 active torsions:
REMARK  status: ('A' for Active; 'I' for Inactive)
REMARK    1  A    between atoms: C_1  and  N_2
REMARK    2  A    between atoms: N_4  and  C_5
REMARK    3  A    between atoms: C_8  and  C_10
REMARK    4  A    between atoms: C_10  and  O_11
REMARK    5  A    between atoms: O_11  and  P_12
REMARK    6  A    between atoms: P_12  and  O_13
REMARK    7  A    between atoms: P_12  and  O_15
REMARK    8  A    between atoms: O_15  and  P_16
REMARK    9  A    between atoms: P_16  and  O_17
REMARK   10  A    between atoms: P_16  and  O_18
REMARK   11  A    between atoms: C_20  and  O_22
REMARK   12  A    between atoms: C_23  and  O_25
REMARK                            x       y       z     vdW  Elec       q    Type
REMARK                         _______ _______ _______ _____ _____    ______ ____
ROOT
ATOM      1  C   UNL     1       8.276  -3.382  25.376  0.00  0.00    +0.240 C 
ATOM      2  C   UNL     1       8.764  -3.253  23.908  0.00  0.00    +0.193 C 
ATOM      3  C   UNL     1       8.125  -1.961  23.401  0.00  0.00    +0.178 C 
ATOM      4  C   UNL     1       7.346  -1.439  24.599  0.00  0.00    +0.178 C 
ATOM      5  O   UNL     1       7.938  -2.031  25.763  0.00  0.00    -0.348 OA
ENDROOT
BRANCH   1  19
ATOM      6  C   UNL     1       4.879  -6.417  27.410  0.00  0.00    +0.131 C 
ATOM      7  N   UNL     1       5.719  -5.755  26.453  0.00  0.00    -0.310 N 
ATOM      8  C   UNL     1       5.697  -5.867  25.069  0.00  0.00    +0.136 A 
ATOM      9  C   UNL     1       4.904  -6.752  24.205  0.00  0.00    +0.276 A 
ATOM     10  N   UNL     1       5.206  -6.620  22.872  0.00  0.00    -0.294 N 
ATOM     11  H   UNL     1       4.720  -7.235  22.243  0.00  0.00    +0.172 HD
ATOM     12  C   UNL     1       6.165  -5.768  22.403  0.00  0.00    +0.195 A 
ATOM     13  N   UNL     1       6.848  -4.969  23.165  0.00  0.00    -0.199 NA
ATOM     14  N   UNL     1       6.399  -5.770  21.067  0.00  0.00    -0.329 N 
ATOM     15  H   UNL     1       6.959  -4.967  20.789  0.00  0.00    +0.145 HD
ATOM     16  H   UNL     1       5.598  -5.912  20.469  0.00  0.00    +0.145 HD
ATOM     17  O   UNL     1       4.055  -7.538  24.616  0.00  0.00    -0.266 OA
ATOM     18  C   UNL     1       6.577  -5.023  24.500  0.00  0.00    +0.155 A 
ATOM     19  N   UNL     1       7.141  -4.255  25.529  0.00  0.00    -0.270 N 
ATOM     20  C   UNL     1       6.740  -4.789  26.836  0.00  0.00    +0.217 C 
ENDBRANCH   1  19
BRANCH   2  21
ATOM     21  O   UNL     1      10.202  -3.103  23.854  0.00  0.00    -0.385 OA
ATOM     22  H   UNL     1      10.485  -2.625  24.652  0.00  0.00    +0.210 HD
ENDBRANCH   2  21
BRANCH   3  23
ATOM     23  O   UNL     1       7.263  -2.178  22.286  0.00  0.00    -0.386 OA
ATOM     24  H   UNL     1       7.725  -2.781  21.670  0.00  0.00    +0.210 HD
ENDBRANCH   3  23
BRANCH   4  25
ATOM     25  C   UNL     1       7.351   0.080  24.682  0.00  0.00    +0.206 C 
BRANCH  25  26
ATOM     26  O   UNL     1       6.816   0.614  23.475  0.00  0.00    -0.284 OA
BRANCH  26  27
ATOM     27  P   UNL     1       7.539   1.953  22.854  0.00  0.00    +0.483 P 
ATOM     28  O   UNL     1       7.718   1.731  21.358  0.00  0.00    -0.227 OA
BRANCH  27  29
ATOM     29  O   UNL     1       5.973   2.592  22.487  0.00  0.00    -0.302 OA
ATOM     30  H   UNL     1       5.495   2.470  23.337  0.00  0.00    +0.222 HD
ENDBRANCH  27  29
BRANCH  27  31
ATOM     31  O   UNL     1       9.103   1.313  23.222  0.00  0.00    -0.186 OA
BRANCH  31  32
ATOM     32  P   UNL     1      10.252   2.605  23.290  0.00  0.00    +0.481 P 
ATOM     33  O   UNL     1      11.280   3.761  23.350  0.00  0.00    -0.227 OA
BRANCH  32  34
ATOM     34  O   UNL     1       8.968   3.592  23.069  0.00  0.00    -0.302 OA
ATOM     35  H   UNL     1       9.280   4.506  23.194  0.00  0.00    +0.222 HD
ENDBRANCH  32  34
BRANCH  32  36
ATOM     36  O   UNL     1      10.440   2.342  21.681  0.00  0.00    -0.302 OA
ATOM     37  H   UNL     1      10.010   1.529  21.365  0.00  0.00    +0.222 HD
ENDBRANCH  32  36
ENDBRANCH  31  32
ENDBRANCH  27  31
ENDBRANCH  26  27
ENDBRANCH  25  26
ENDBRANCH   4  25
TORSDOF 11
ENDMDL
MODEL 6
REMARK VINA RESULT:      -6.9      1.344      2.915
REMARK  Name = 
REMARK  12 active torsions:
REMARK  status: ('A' for Active; 'I' for Inactive)
REMARK    1  A    between atoms: C_1  and  N_2
REMARK    2  A    between atoms: N_4  and  C_5
REMARK    3  A    between atoms: C_8  and  C_10
REMARK    4  A    between atoms: C_10  and  O_11
REMARK    5  A    between atoms: O_11  and  P_12
REMARK    6  A    between atoms: P_12  and  O_13
REMARK    7  A    between atoms: P_12  and  O_15
REMARK    8  A    between atoms: O_15  and  P_16
REMARK    9  A    between atoms: P_16  and  O_17
REMARK   10  A    between atoms: P_16  and  O_18
REMARK   11  A    between atoms: C_20  and  O_22
REMARK   12  A    between atoms: C_23  and  O_25
REMARK                            x       y       z     vdW  Elec       q    Type
REMARK                         _______ _______ _______ _____ _____    ______ ____
ROOT
ATOM      1  C   UNL     1       8.080  -5.082  26.196  0.00  0.00    +0.240 C 
ATOM      2  C   UNL     1       8.909  -4.784  24.917  0.00  0.00    +0.193 C 
ATOM      3  C   UNL     1       8.933  -3.260  24.818  0.00  0.00    +0.178 C 
ATOM      4  C   UNL     1       8.146  -2.798  26.036  0.00  0.00    +0.178 C 
ATOM      5  O   UNL     1       8.187  -3.874  26.983  0.00  0.00    -0.348 OA
ENDROOT
BRANCH   1  19
ATOM      6  C   UNL     1       3.380  -6.650  26.776  0.00  0.00    +0.131 C 
ATOM      7  N   UNL     1       4.626  -6.265  26.177  0.00  0.00    -0.310 N 
ATOM      8  C   UNL     1       4.924  -6.127  24.828  0.00  0.00    +0.136 A 
ATOM      9  C   UNL     1       4.108  -6.428  23.645  0.00  0.00    +0.276 A 
ATOM     10  N   UNL     1       4.773  -6.221  22.461  0.00  0.00    -0.294 N 
ATOM     11  H   UNL     1       4.271  -6.454  21.622  0.00  0.00    +0.172 HD
ATOM     12  C   UNL     1       6.071  -5.800  22.397  0.00  0.00    +0.195 A 
ATOM     13  N   UNL     1       6.784  -5.510  23.442  0.00  0.00    -0.199 NA
ATOM     14  N   UNL     1       6.625  -5.682  21.164  0.00  0.00    -0.329 N 
ATOM     15  H   UNL     1       7.500  -5.164  21.201  0.00  0.00    +0.145 HD
ATOM     16  H   UNL     1       6.016  -5.365  20.424  0.00  0.00    +0.145 HD
ATOM     17  O   UNL     1       2.948  -6.828  23.690  0.00  0.00    -0.266 OA
ATOM     18  C   UNL     1       6.175  -5.662  24.652  0.00  0.00    +0.155 A 
ATOM     19  N   UNL     1       6.700  -5.393  25.924  0.00  0.00    -0.270 N 
ATOM     20  C   UNL     1       5.801  -5.910  26.963  0.00  0.00    +0.217 C 
ENDBRANCH   1  19
BRANCH   2  21
ATOM     21  O   UNL     1      10.271  -5.253  25.065  0.00  0.00    -0.385 OA
ATOM     22  H   UNL     1      10.843  -4.477  25.196  0.00  0.00    +0.210 HD
ENDBRANCH   2  21
BRANCH   3  23
ATOM     23  O   UNL     1       8.338  -2.781  23.614  0.00  0.00    -0.386 OA
ATOM     24  H   UNL     1       7.376  -2.711  23.769  0.00  0.00    +0.210 HD
ENDBRANCH   3  23
BRANCH   4  25
ATOM     25  C   UNL     1       8.695  -1.510  26.632  0.00  0.00    +0.206 C 
BRANCH  25  26
ATOM     26  O   UNL     1       9.032  -0.616  25.576  0.00  0.00    -0.284 OA
BRANCH  26  27
ATOM     27  P   UNL     1       7.960   0.578  25.223  0.00  0.00    +0.483 P 
ATOM     28  O   UNL     1       6.562   0.041  25.499  0.00  0.00    -0.227 OA
BRANCH  27  29
ATOM     29  O   UNL     1       8.008   1.071  26.880  0.00  0.00    -0.302 OA
ATOM     30  H   UNL     1       8.579   1.870  26.842  0.00  0.00    +0.222 HD
ENDBRANCH  27  29
BRANCH  27  31
ATOM     31  O   UNL     1       7.913   0.083  23.566  0.00  0.00    -0.186 OA
BRANCH  31  32
ATOM     32  P   UNL     1       9.098   0.968  22.667  0.00  0.00    +0.481 P 
ATOM     33  O   UNL     1      10.159   1.759  21.863  0.00  0.00    -0.227 OA
BRANCH  32  34
ATOM     34  O   UNL     1      10.071  -0.320  22.922  0.00  0.00    -0.302 OA
ATOM     35  H   UNL     1      10.888  -0.173  22.412  0.00  0.00    +0.222 HD
ENDBRANCH  32  34
BRANCH  32  36
ATOM     36  O   UNL     1       9.480   1.655  24.108  0.00  0.00    -0.302 OA
ATOM     37  H   UNL     1       9.912   1.045  24.729  0.00  0.00    +0.222 HD
ENDBRANCH  32  36
ENDBRANCH  31  32
ENDBRANCH  27  31
ENDBRANCH  26  27
ENDBRANCH  25  26
ENDBRANCH   4  25
TORSDOF 11
ENDMDL
MODEL 7
REMARK VINA RESULT:      -6.9      2.806      4.675
REMARK  Name = 
REMARK  12 active torsions:
REMARK  status: ('A' for Active; 'I' for Inactive)
REMARK    1  A    between atoms: C_1  and  N_2
REMARK    2  A    between atoms: N_4  and  C_5
REMARK    3  A    between atoms: C_8  and  C_10
REMARK    4  A    between atoms: C_10  and  O_11
REMARK    5  A    between atoms: O_11  and  P_12
REMARK    6  A    between atoms: P_12  and  O_13
REMARK    7  A    between atoms: P_12  and  O_15
REMARK    8  A    between atoms: O_15  and  P_16
REMARK    9  A    between atoms: P_16  and  O_17
REMARK   10  A    between atoms: P_16  and  O_18
REMARK   11  A    between atoms: C_20  and  O_22
REMARK   12  A    between atoms: C_23  and  O_25
REMARK                            x       y       z     vdW  Elec       q    Type
REMARK                         _______ _______ _______ _____ _____    ______ ____
ROOT
ATOM      1  C   UNL     1       8.902  -2.606  23.679  0.00  0.00    +0.240 C 
ATOM      2  C   UNL     1       8.333  -1.976  22.379  0.00  0.00    +0.193 C 
ATOM      3  C   UNL     1       8.006  -0.532  22.759  0.00  0.00    +0.178 C 
ATOM      4  C   UNL     1       8.422  -0.432  24.220  0.00  0.00    +0.178 C 
ATOM      5  O   UNL     1       9.377  -1.477  24.447  0.00  0.00    -0.348 OA
ENDROOT
BRANCH   1  19
ATOM      6  C   UNL     1       6.495  -4.784  27.467  0.00  0.00    +0.131 C 
ATOM      7  N   UNL     1       6.955  -4.465  26.146  0.00  0.00    -0.310 N 
ATOM      8  C   UNL     1       6.517  -4.984  24.935  0.00  0.00    +0.136 A 
ATOM      9  C   UNL     1       5.555  -6.060  24.662  0.00  0.00    +0.276 A 
ATOM     10  N   UNL     1       5.423  -6.341  23.324  0.00  0.00    -0.294 N 
ATOM     11  H   UNL     1       4.808  -7.100  23.088  0.00  0.00    +0.172 HD
ATOM     12  C   UNL     1       6.136  -5.699  22.351  0.00  0.00    +0.195 A 
ATOM     13  N   UNL     1       6.968  -4.732  22.591  0.00  0.00    -0.199 NA
ATOM     14  N   UNL     1       5.948  -6.107  21.071  0.00  0.00    -0.329 N 
ATOM     15  H   UNL     1       6.342  -5.443  20.410  0.00  0.00    +0.145 HD
ATOM     16  H   UNL     1       5.013  -6.396  20.822  0.00  0.00    +0.145 HD
ATOM     17  O   UNL     1       4.925  -6.659  25.528  0.00  0.00    -0.266 OA
ATOM     18  C   UNL     1       7.123  -4.377  23.898  0.00  0.00    +0.155 A 
ATOM     19  N   UNL     1       7.926  -3.356  24.427  0.00  0.00    -0.270 N 
ATOM     20  C   UNL     1       7.981  -3.462  25.890  0.00  0.00    +0.217 C 
ENDBRANCH   1  19
BRANCH   2  21
ATOM     21  O   UNL     1       9.335  -1.957  21.335  0.00  0.00    -0.385 OA
ATOM     22  H   UNL     1       8.917  -2.264  20.512  0.00  0.00    +0.210 HD
ENDBRANCH   2  21
BRANCH   3  23
ATOM     23  O   UNL     1       6.623  -0.224  22.599  0.00  0.00    -0.386 OA
ATOM     24  H   UNL     1       6.454   0.618  23.065  0.00  0.00    +0.210 HD
ENDBRANCH   3  23
BRANCH   4  25
ATOM     25  C   UNL     1       8.994   0.933  24.572  0.00  0.00    +0.206 C 
BRANCH  25  26
ATOM     26  O   UNL     1       8.621   1.868  23.564  0.00  0.00    -0.284 OA
BRANCH  26  27
ATOM     27  P   UNL     1       9.740   2.985  23.118  0.00  0.00    +0.483 P 
ATOM     28  O   UNL     1      11.081   2.557  23.700  0.00  0.00    -0.227 OA
BRANCH  27  29
ATOM     29  O   UNL     1      10.122   2.009  21.740  0.00  0.00    -0.302 OA
ATOM     30  H   UNL     1      10.304   1.135  22.151  0.00  0.00    +0.222 HD
ENDBRANCH  27  29
BRANCH  27  31
ATOM     31  O   UNL     1       9.358   3.960  24.495  0.00  0.00    -0.186 OA
BRANCH  31  32
ATOM     32  P   UNL     1       8.977   5.565  23.976  0.00  0.00    +0.481 P 
ATOM     33  O   UNL     1       8.636   7.003  23.512  0.00  0.00    -0.227 OA
BRANCH  32  34
ATOM     34  O   UNL     1       8.283   4.849  22.682  0.00  0.00    -0.302 OA
ATOM     35  H   UNL     1       8.934   4.227  22.310  0.00  0.00    +0.222 HD
ENDBRANCH  32  34
BRANCH  32  36
ATOM     36  O   UNL     1      10.470   5.554  23.294  0.00  0.00    -0.302 OA
ATOM     37  H   UNL     1      10.581   6.210  22.586  0.00  0.00    +0.222 HD
ENDBRANCH  32  36
ENDBRANCH  31  32
ENDBRANCH  27  31
ENDBRANCH  26  27
ENDBRANCH  25  26
ENDBRANCH   4  25
TORSDOF 11
ENDMDL
MODEL 8
REMARK VINA RESULT:      -6.8      5.560      8.661
REMARK  Name = 
REMARK  12 active torsions:
REMARK  status: ('A' for Active; 'I' for Inactive)
REMARK    1  A    between atoms: C_1  and  N_2
REMARK    2  A    between atoms: N_4  and  C_5
REMARK    3  A    between atoms: C_8  and  C_10
REMARK    4  A    between atoms: C_10  and  O_11
REMARK    5  A    between atoms: O_11  and  P_12
REMARK    6  A    between atoms: P_12  and  O_13
REMARK    7  A    between atoms: P_12  and  O_15
REMARK    8  A    between atoms: O_15  and  P_16
REMARK    9  A    between atoms: P_16  and  O_17
REMARK   10  A    between atoms: P_16  and  O_18
REMARK   11  A    between atoms: C_20  and  O_22
REMARK   12  A    between atoms: C_23  and  O_25
REMARK                            x       y       z     vdW  Elec       q    Type
REMARK                         _______ _______ _______ _____ _____    ______ ____
ROOT
ATOM      1  C   UNL     1       8.238   0.067  22.567  0.00  0.00    +0.240 C 
ATOM      2  C   UNL     1       9.785  -0.056  22.626  0.00  0.00    +0.193 C 
ATOM      3  C   UNL     1      10.072  -0.658  24.001  0.00  0.00    +0.178 C 
ATOM      4  C   UNL     1       8.693  -0.853  24.615  0.00  0.00    +0.178 C 
ATOM      5  O   UNL     1       7.763  -0.906  23.525  0.00  0.00    -0.348 OA
ENDROOT
BRANCH   1  19
ATOM      6  C   UNL     1       5.253   4.041  23.000  0.00  0.00    +0.131 C 
ATOM      7  N   UNL     1       6.426   3.216  22.925  0.00  0.00    -0.310 N 
ATOM      8  C   UNL     1       7.748   3.583  23.133  0.00  0.00    +0.136 A 
ATOM      9  C   UNL     1       8.334   4.907  23.377  0.00  0.00    +0.276 A 
ATOM     10  N   UNL     1       9.704   4.885  23.472  0.00  0.00    -0.294 N 
ATOM     11  H   UNL     1      10.156   5.774  23.595  0.00  0.00    +0.172 HD
ATOM     12  C   UNL     1      10.445   3.746  23.327  0.00  0.00    +0.195 A 
ATOM     13  N   UNL     1       9.925   2.572  23.134  0.00  0.00    -0.199 NA
ATOM     14  N   UNL     1      11.794   3.870  23.393  0.00  0.00    -0.329 N 
ATOM     15  H   UNL     1      12.243   2.963  23.493  0.00  0.00    +0.145 HD
ATOM     16  H   UNL     1      12.153   4.556  24.041  0.00  0.00    +0.145 HD
ATOM     17  O   UNL     1       7.681   5.941  23.487  0.00  0.00    -0.266 OA
ATOM     18  C   UNL     1       8.565   2.515  23.064  0.00  0.00    +0.155 A 
ATOM     19  N   UNL     1       7.755   1.383  22.896  0.00  0.00    -0.270 N 
ATOM     20  C   UNL     1       6.367   1.787  22.641  0.00  0.00    +0.217 C 
ENDBRANCH   1  19
BRANCH   2  21
ATOM     21  O   UNL     1      10.268  -0.974  21.617  0.00  0.00    -0.385 OA
ATOM     22  H   UNL     1      10.253  -0.513  20.760  0.00  0.00    +0.210 HD
ENDBRANCH   2  21
BRANCH   3  23
ATOM     23  O   UNL     1      10.878   0.193  24.813  0.00  0.00    -0.386 OA
ATOM     24  H   UNL     1      10.882   1.078  24.398  0.00  0.00    +0.210 HD
ENDBRANCH   3  23
BRANCH   4  25
ATOM     25  C   UNL     1       8.610  -2.102  25.480  0.00  0.00    +0.206 C 
BRANCH  25  26
ATOM     26  O   UNL     1       9.291  -3.168  24.826  0.00  0.00    -0.284 OA
BRANCH  26  27
ATOM     27  P   UNL     1       8.959  -4.697  25.326  0.00  0.00    +0.483 P 
ATOM     28  O   UNL     1       8.511  -5.496  24.109  0.00  0.00    -0.227 OA
BRANCH  27  29
ATOM     29  O   UNL     1      10.580  -5.150  24.922  0.00  0.00    -0.302 OA
ATOM     30  H   UNL     1      10.709  -5.961  25.461  0.00  0.00    +0.222 HD
ENDBRANCH  27  29
BRANCH  27  31
ATOM     31  O   UNL     1       7.340  -4.244  25.730  0.00  0.00    -0.186 OA
BRANCH  31  32
ATOM     32  P   UNL     1       6.879  -5.011  27.211  0.00  0.00    +0.481 P 
ATOM     33  O   UNL     1       6.467  -5.698  28.536  0.00  0.00    -0.227 OA
BRANCH  32  34
ATOM     34  O   UNL     1       8.381  -5.655  27.199  0.00  0.00    -0.302 OA
ATOM     35  H   UNL     1       8.686  -5.665  26.274  0.00  0.00    +0.222 HD
ENDBRANCH  32  34
BRANCH  32  36
ATOM     36  O   UNL     1       6.268  -6.193  26.251  0.00  0.00    -0.302 OA
ATOM     37  H   UNL     1       5.298  -6.183  26.187  0.00  0.00    +0.222 HD
ENDBRANCH  32  36
ENDBRANCH  31  32
ENDBRANCH  27  31
ENDBRANCH  26  27
ENDBRANCH  25  26
ENDBRANCH   4  25
TORSDOF 11
ENDMDL
MODEL 9
REMARK VINA RESULT:      -6.8      2.647      4.559
REMARK  Name = 
REMARK  12 active torsions:
REMARK  status: ('A' for Active; 'I' for Inactive)
REMARK    1  A    between atoms: C_1  and  N_2
REMARK    2  A    between atoms: N_4  and  C_5
REMARK    3  A    between atoms: C_8  and  C_10
REMARK    4  A    between atoms: C_10  and  O_11
REMARK    5  A    between atoms: O_11  and  P_12
REMARK    6  A    between atoms: P_12  and  O_13
REMARK    7  A    between atoms: P_12  and  O_15
REMARK    8  A    between atoms: O_15  and  P_16
REMARK    9  A    between atoms: P_16  and  O_17
REMARK   10  A    between atoms: P_16  and  O_18
REMARK   11  A    between atoms: C_20  and  O_22
REMARK   12  A    between atoms: C_23  and  O_25
REMARK                            x       y       z     vdW  Elec       q    Type
REMARK                         _______ _______ _______ _____ _____    ______ ____
ROOT
ATOM      1  C   UNL     1       9.036  -2.555  23.767  0.00  0.00    +0.240 C 
ATOM      2  C   UNL     1       8.577  -1.907  22.433  0.00  0.00    +0.193 C 
ATOM      3  C   UNL     1       8.142  -0.494  22.818  0.00  0.00    +0.178 C 
ATOM      4  C   UNL     1       8.397  -0.425  24.317  0.00  0.00    +0.178 C 
ATOM      5  O   UNL     1       9.373  -1.433  24.614  0.00  0.00    -0.348 OA
ENDROOT
BRANCH   1  19
ATOM      6  C   UNL     1       6.458  -5.123  27.180  0.00  0.00    +0.131 C 
ATOM      7  N   UNL     1       6.975  -4.660  25.924  0.00  0.00    -0.310 N 
ATOM      8  C   UNL     1       6.581  -5.030  24.645  0.00  0.00    +0.136 A 
ATOM      9  C   UNL     1       5.623  -6.055  24.211  0.00  0.00    +0.276 A 
ATOM     10  N   UNL     1       5.543  -6.179  22.845  0.00  0.00    -0.294 N 
ATOM     11  H   UNL     1       4.932  -6.898  22.499  0.00  0.00    +0.172 HD
ATOM     12  C   UNL     1       6.300  -5.439  21.982  0.00  0.00    +0.195 A 
ATOM     13  N   UNL     1       7.129  -4.516  22.365  0.00  0.00    -0.199 NA
ATOM     14  N   UNL     1       6.160  -5.694  20.657  0.00  0.00    -0.329 N 
ATOM     15  H   UNL     1       6.587  -4.963  20.093  0.00  0.00    +0.145 HD
ATOM     16  H   UNL     1       5.234  -5.940  20.340  0.00  0.00    +0.145 HD
ATOM     17  O   UNL     1       4.953  -6.742  24.977  0.00  0.00    -0.266 OA
ATOM     18  C   UNL     1       7.235  -4.316  23.710  0.00  0.00    +0.155 A 
ATOM     19  N   UNL     1       8.024  -3.373  24.384  0.00  0.00    -0.270 N 
ATOM     20  C   UNL     1       8.019  -3.648  25.826  0.00  0.00    +0.217 C 
ENDBRANCH   1  19
BRANCH   2  21
ATOM     21  O   UNL     1       9.681  -1.807  21.502  0.00  0.00    -0.385 OA
ATOM     22  H   UNL     1      10.301  -2.531  21.693  0.00  0.00    +0.210 HD
ENDBRANCH   2  21
BRANCH   3  23
ATOM     23  O   UNL     1       6.771  -0.243  22.520  0.00  0.00    -0.386 OA
ATOM     24  H   UNL     1       6.265  -0.356  23.348  0.00  0.00    +0.210 HD
ENDBRANCH   3  23
BRANCH   4  25
ATOM     25  C   UNL     1       8.862   0.952  24.768  0.00  0.00    +0.206 C 
BRANCH  25  26
ATOM     26  O   UNL     1       8.677   1.878  23.702  0.00  0.00    -0.284 OA
BRANCH  26  27
ATOM     27  P   UNL     1       7.838   3.252  24.030  0.00  0.00    +0.483 P 
ATOM     28  O   UNL     1       8.516   3.939  25.208  0.00  0.00    -0.227 OA
BRANCH  27  29
ATOM     29  O   UNL     1       8.923   4.125  23.004  0.00  0.00    -0.302 OA
ATOM     30  H   UNL     1       8.331   4.411  22.273  0.00  0.00    +0.222 HD
ENDBRANCH  27  29
BRANCH  27  31
ATOM     31  O   UNL     1       6.754   2.377  25.056  0.00  0.00    -0.186 OA
BRANCH  31  32
ATOM     32  P   UNL     1       5.142   2.514  24.441  0.00  0.00    +0.481 P 
ATOM     33  O   UNL     1       3.700   2.636  23.890  0.00  0.00    -0.227 OA
BRANCH  32  34
ATOM     34  O   UNL     1       5.088   0.886  24.572  0.00  0.00    -0.302 OA
ATOM     35  H   UNL     1       4.742   0.538  23.730  0.00  0.00    +0.222 HD
ENDBRANCH  32  34
BRANCH  32  36
ATOM     36  O   UNL     1       5.848   2.460  22.960  0.00  0.00    -0.302 OA
ATOM     37  H   UNL     1       5.242   2.668  22.230  0.00  0.00    +0.222 HD
ENDBRANCH  32  36
ENDBRANCH  31  32
ENDBRANCH  27  31
ENDBRANCH  26  27
ENDBRANCH  25  26
ENDBRANCH   4  25
TORSDOF 11
ENDMDL
