MODEL 1
REMARK VINA RESULT:      -6.7      0.000      0.000
REMARK  Name = 
REMARK  14 active torsions:
REMARK  status: ('A' for Active; 'I' for Inactive)
REMARK    1  A    between atoms: C_4  and  O_6
REMARK    2  A    between atoms: C_7  and  C_9
REMARK    3  A    between atoms: C_10  and  C_11
REMARK    4  A    between atoms: C_11  and  O_13
REMARK    5  A    between atoms: C_11  and  C_14
REMARK    6  A    between atoms: C_14  and  C_15
REMARK    7  A    between atoms: C_15  and  C_16
REMARK    8  A    between atoms: C_16  and  C_17
REMARK    9  A    between atoms: C_17  and  C_18
REMARK   10  A    between atoms: C_24  and  C_25
REMARK   11  A    between atoms: C_25  and  C_26
REMARK   12  A    between atoms: C_26  and  C_27
REMARK   13  A    between atoms: C_27  and  C_28
REMARK   14  A    between atoms: C_28  and  O_29
REMARK                            x       y       z     vdW  Elec       q    Type
REMARK                         _______ _______ _______ _____ _____    ______ ____
ROOT
ATOM      1  C   UNL     1       8.269  -0.071  23.591  0.00  0.00    +0.180 C 
ATOM      2  O   UNL     1       9.141   0.966  23.132  0.00  0.00    -0.493 OA
ATOM      3  C   UNL     1      10.079   1.125  24.141  0.00  0.00    +0.095 C 
ATOM      4  C   UNL     1      10.894   2.187  24.183  0.00  0.00    +0.014 C 
ATOM      5  C   UNL     1      10.046   0.023  25.154  0.00  0.00    +0.081 C 
ATOM      6  C   UNL     1       9.078  -0.956  24.521  0.00  0.00    +0.046 C 
ATOM      7  C   UNL     1       9.747  -2.007  23.603  0.00  0.00    +0.047 C 
ATOM      8  C   UNL     1       8.977  -1.963  22.267  0.00  0.00    +0.125 C 
ATOM      9  C   UNL     1       7.829  -0.973  22.452  0.00  0.00    +0.076 C 
ENDROOT
BRANCH   7  10
ATOM     10  C   UNL     1       9.685  -3.369  24.259  0.00  0.00    -0.022 C 
ATOM     11  C   UNL     1       8.865  -3.664  25.281  0.00  0.00    -0.000 C 
BRANCH  11  12
ATOM     12  C   UNL     1       8.688  -5.040  25.854  0.00  0.00    +0.137 C 
BRANCH  12  13
ATOM     13  O   UNL     1       9.176  -5.022  27.188  0.00  0.00    -0.388 OA
ATOM     14  H   UNL     1       8.580  -5.584  27.713  0.00  0.00    +0.210 HD
ENDBRANCH  12  13
BRANCH  12  15
ATOM     15  C   UNL     1       7.215  -5.465  25.880  0.00  0.00    +0.035 C 
BRANCH  15  16
ATOM     16  C   UNL     1       6.356  -4.695  24.872  0.00  0.00    +0.003 C 
BRANCH  16  17
ATOM     17  C   UNL     1       6.003  -5.552  23.656  0.00  0.00    -0.000 C 
BRANCH  17  18
ATOM     18  C   UNL     1       7.029  -5.360  22.540  0.00  0.00    -0.003 C 
ATOM     19  C   UNL     1       6.450  -5.710  21.180  0.00  0.00    +0.004 C 
ENDBRANCH  17  18
ENDBRANCH  16  17
ENDBRANCH  15  16
ENDBRANCH  12  15
ENDBRANCH  11  12
ENDBRANCH   7  10
BRANCH   8  20
ATOM     20  O   UNL     1       9.856  -1.525  21.233  0.00  0.00    -0.391 OA
ATOM     21  H   UNL     1      10.728  -1.925  21.394  0.00  0.00    +0.210 HD
ENDBRANCH   8  20
BRANCH   4  22
ATOM     22  C   UNL     1      10.875   3.310  23.186  0.00  0.00    +0.031 C 
BRANCH  22  23
ATOM     23  C   UNL     1      10.302   4.591  23.793  0.00  0.00    +0.015 C 
BRANCH  23  24
ATOM     24  C   UNL     1      11.122   5.803  23.361  0.00  0.00    +0.121 C 
BRANCH  24  25
ATOM     25  C   UNL     1      12.546   5.736  23.856  0.00  0.00    +0.305 C 
ATOM     26  O   UNL     1      13.407   5.034  23.351  0.00  0.00    -0.251 OA
BRANCH  25  27
ATOM     27  O   UNL     1      12.780   6.506  24.941  0.00  0.00    -0.481 OA
ATOM     28  H   UNL     1      13.304   6.064  25.636  0.00  0.00    +0.295 HD
ENDBRANCH  25  27
ENDBRANCH  24  25
ENDBRANCH  23  24
ENDBRANCH  22  23
ENDBRANCH   4  22
TORSDOF 13
ENDMDL
MODEL 2
REMARK VINA RESULT:      -6.6      1.818      2.601
REMARK  Name = 
REMARK  14 active torsions:
REMARK  status: ('A' for Active; 'I' for Inactive)
REMARK    1  A    between atoms: C_4  and  O_6
REMARK    2  A    between atoms: C_7  and  C_9
REMARK    3  A    between atoms: C_10  and  C_11
REMARK    4  A    between atoms: C_11  and  O_13
REMARK    5  A    between atoms: C_11  and  C_14
REMARK    6  A    between atoms: C_14  and  C_15
REMARK    7  A    between atoms: C_15  and  C_16
REMARK    8  A    between atoms: C_16  and  C_17
REMARK    9  A    between atoms: C_17  and  C_18
REMARK   10  A    between atoms: C_24  and  C_25
REMARK   11  A    between atoms: C_25  and  C_26
REMARK   12  A    between atoms: C_26  and  C_27
REMARK   13  A    between atoms: C_27  and  C_28
REMARK   14  A    between atoms: C_28  and  O_29
REMARK                            x       y       z     vdW  Elec       q    Type
REMARK                         _______ _______ _______ _____ _____    ______ ____
ROOT
ATOM      1  C   UNL     1       7.515   2.311  22.985  0.00  0.00    +0.180 C 
ATOM      2  O   UNL     1       8.055   3.618  23.200  0.00  0.00    -0.493 OA
ATOM      3  C   UNL     1       8.364   3.665  24.551  0.00  0.00    +0.095 C 
ATOM      4  C   UNL     1       8.640   4.821  25.169  0.00  0.00    +0.014 C 
ATOM      5  C   UNL     1       8.319   2.323  25.212  0.00  0.00    +0.081 C 
ATOM      6  C   UNL     1       8.128   1.397  24.029  0.00  0.00    +0.046 C 
ATOM      7  C   UNL     1       9.449   0.890  23.401  0.00  0.00    +0.047 C 
ATOM      8  C   UNL     1       9.342   1.173  21.888  0.00  0.00    +0.125 C 
ATOM      9  C   UNL     1       7.946   1.745  21.644  0.00  0.00    +0.076 C 
ENDROOT
BRANCH   7  10
ATOM     10  C   UNL     1       9.622  -0.584  23.699  0.00  0.00    -0.022 C 
ATOM     11  C   UNL     1       8.650  -1.495  23.529  0.00  0.00    -0.000 C 
BRANCH  11  12
ATOM     12  C   UNL     1       8.841  -2.975  23.687  0.00  0.00    +0.137 C 
BRANCH  12  13
ATOM     13  O   UNL     1      10.226  -3.215  23.899  0.00  0.00    -0.388 OA
ATOM     14  H   UNL     1      10.492  -2.669  24.658  0.00  0.00    +0.210 HD
ENDBRANCH  12  13
BRANCH  12  15
ATOM     15  C   UNL     1       8.062  -3.530  24.886  0.00  0.00    +0.035 C 
BRANCH  15  16
ATOM     16  C   UNL     1       7.081  -4.640  24.496  0.00  0.00    +0.003 C 
BRANCH  16  17
ATOM     17  C   UNL     1       7.437  -5.262  23.146  0.00  0.00    -0.000 C 
BRANCH  17  18
ATOM     18  C   UNL     1       6.198  -5.866  22.483  0.00  0.00    -0.003 C 
ATOM     19  C   UNL     1       6.278  -5.784  20.969  0.00  0.00    +0.004 C 
ENDBRANCH  17  18
ENDBRANCH  16  17
ENDBRANCH  15  16
ENDBRANCH  12  15
ENDBRANCH  11  12
ENDBRANCH   7  10
BRANCH   8  20
ATOM     20  O   UNL     1      10.343   2.118  21.516  0.00  0.00    -0.391 OA
ATOM     21  H   UNL     1      11.212   1.717  21.694  0.00  0.00    +0.210 HD
ENDBRANCH   8  20
BRANCH   4  22
ATOM     22  C   UNL     1       8.627   6.165  24.499  0.00  0.00    +0.031 C 
BRANCH  22  23
ATOM     23  C   UNL     1       9.811   6.330  23.547  0.00  0.00    +0.015 C 
BRANCH  23  24
ATOM     24  C   UNL     1      11.130   6.178  24.299  0.00  0.00    +0.121 C 
BRANCH  24  25
ATOM     25  C   UNL     1      12.041   5.161  23.657  0.00  0.00    +0.305 C 
ATOM     26  O   UNL     1      11.665   4.071  23.258  0.00  0.00    -0.251 OA
BRANCH  25  27
ATOM     27  O   UNL     1      13.332   5.553  23.594  0.00  0.00    -0.481 OA
ATOM     28  H   UNL     1      13.922   4.910  23.155  0.00  0.00    +0.295 HD
ENDBRANCH  25  27
ENDBRANCH  24  25
ENDBRANCH  23  24
ENDBRANCH  22  23
ENDBRANCH   4  22
TORSDOF 13
ENDMDL
MODEL 3
REMARK VINA RESULT:      -6.5      2.126      8.912
REMARK  Name = 
REMARK  14 active torsions:
REMARK  status: ('A' for Active; 'I' for Inactive)
REMARK    1  A    between atoms: C_4  and  O_6
REMARK    2  A    between atoms: C_7  and  C_9
REMARK    3  A    between atoms: C_10  and  C_11
REMARK    4  A    between atoms: C_11  and  O_13
REMARK    5  A    between atoms: C_11  and  C_14
REMARK    6  A    between atoms: C_14  and  C_15
REMARK    7  A    between atoms: C_15  and  C_16
REMARK    8  A    between atoms: C_16  and  C_17
REMARK    9  A    between atoms: C_17  and  C_18
REMARK   10  A    between atoms: C_24  and  C_25
REMARK   11  A    between atoms: C_25  and  C_26
REMARK   12  A    between atoms: C_26  and  C_27
REMARK   13  A    between atoms: C_27  and  C_28
REMARK   14  A    between atoms: C_28  and  O_29
REMARK                            x       y       z     vdW  Elec       q    Type
REMARK                         _______ _______ _______ _____ _____    ______ ____
ROOT
ATOM      1  C   UNL     1       9.990   0.165  22.505  0.00  0.00    +0.180 C 
ATOM      2  O   UNL     1       9.247  -1.034  22.738  0.00  0.00    -0.493 OA
ATOM      3  C   UNL     1       9.430  -1.319  24.083  0.00  0.00    +0.095 C 
ATOM      4  C   UNL     1       9.104  -2.511  24.601  0.00  0.00    +0.014 C 
ATOM      5  C   UNL     1      10.041  -0.185  24.847  0.00  0.00    +0.081 C 
ATOM      6  C   UNL     1      10.034   0.926  23.817  0.00  0.00    +0.046 C 
ATOM      7  C   UNL     1       8.752   1.793  23.829  0.00  0.00    +0.047 C 
ATOM      8  C   UNL     1       8.247   1.833  22.371  0.00  0.00    +0.125 C 
ATOM      9  C   UNL     1       9.275   1.081  21.528  0.00  0.00    +0.076 C 
ENDROOT
BRANCH   7  10
ATOM     10  C   UNL     1       9.074   3.171  24.364  0.00  0.00    -0.022 C 
ATOM     11  C   UNL     1       8.472   4.293  23.935  0.00  0.00    -0.000 C 
BRANCH  11  12
ATOM     12  C   UNL     1       8.676   5.648  24.547  0.00  0.00    +0.137 C 
BRANCH  12  13
ATOM     13  O   UNL     1       8.900   5.469  25.938  0.00  0.00    -0.388 OA
ATOM     14  H   UNL     1       8.194   4.885  26.264  0.00  0.00    +0.210 HD
ENDBRANCH  12  13
BRANCH  12  15
ATOM     15  C   UNL     1       9.889   6.371  23.948  0.00  0.00    +0.035 C 
BRANCH  15  16
ATOM     16  C   UNL     1      10.950   6.720  24.996  0.00  0.00    +0.003 C 
BRANCH  16  17
ATOM     17  C   UNL     1      12.352   6.319  24.540  0.00  0.00    -0.000 C 
BRANCH  17  18
ATOM     18  C   UNL     1      12.286   5.193  23.508  0.00  0.00    -0.003 C 
ATOM     19  C   UNL     1      13.101   5.520  22.269  0.00  0.00    +0.004 C 
ENDBRANCH  17  18
ENDBRANCH  16  17
ENDBRANCH  15  16
ENDBRANCH  12  15
ENDBRANCH  11  12
ENDBRANCH   7  10
BRANCH   8  20
ATOM     20  O   UNL     1       6.974   1.194  22.299  0.00  0.00    -0.391 OA
ATOM     21  H   UNL     1       6.358   1.805  21.859  0.00  0.00    +0.210 HD
ENDBRANCH   8  20
BRANCH   4  22
ATOM     22  C   UNL     1       8.541  -3.654  23.806  0.00  0.00    +0.031 C 
BRANCH  22  23
ATOM     23  C   UNL     1       8.692  -4.982  24.548  0.00  0.00    +0.015 C 
BRANCH  23  24
ATOM     24  C   UNL     1       7.514  -5.207  25.492  0.00  0.00    +0.121 C 
BRANCH  24  25
ATOM     25  C   UNL     1       7.932  -5.194  26.942  0.00  0.00    +0.305 C 
ATOM     26  O   UNL     1       7.163  -5.377  27.871  0.00  0.00    -0.251 OA
BRANCH  25  27
ATOM     27  O   UNL     1       9.243  -4.923  27.126  0.00  0.00    -0.481 OA
ATOM     28  H   UNL     1       9.554  -4.125  26.659  0.00  0.00    +0.295 HD
ENDBRANCH  25  27
ENDBRANCH  24  25
ENDBRANCH  23  24
ENDBRANCH  22  23
ENDBRANCH   4  22
TORSDOF 13
ENDMDL
MODEL 4
REMARK VINA RESULT:      -6.5      2.606      8.567
REMARK  Name = 
REMARK  14 active torsions:
REMARK  status: ('A' for Active; 'I' for Inactive)
REMARK    1  A    between atoms: C_4  and  O_6
REMARK    2  A    between atoms: C_7  and  C_9
REMARK    3  A    between atoms: C_10  and  C_11
REMARK    4  A    between atoms: C_11  and  O_13
REMARK    5  A    between atoms: C_11  and  C_14
REMARK    6  A    between atoms: C_14  and  C_15
REMARK    7  A    between atoms: C_15  and  C_16
REMARK    8  A    between atoms: C_16  and  C_17
REMARK    9  A    between atoms: C_17  and  C_18
REMARK   10  A    between atoms: C_24  and  C_25
REMARK   11  A    between atoms: C_25  and  C_26
REMARK   12  A    between atoms: C_26  and  C_27
REMARK   13  A    between atoms: C_27  and  C_28
REMARK   14  A    between atoms: C_28  and  O_29
REMARK                            x       y       z     vdW  Elec       q    Type
REMARK                         _______ _______ _______ _____ _____    ______ ____
ROOT
ATOM      1  C   UNL     1       9.197   1.394  22.297  0.00  0.00    +0.180 C 
ATOM      2  O   UNL     1       9.005   0.019  22.641  0.00  0.00    -0.493 OA
ATOM      3  C   UNL     1       9.556  -0.120  23.905  0.00  0.00    +0.095 C 
ATOM      4  C   UNL     1       9.800  -1.325  24.438  0.00  0.00    +0.014 C 
ATOM      5  C   UNL     1       9.863   1.190  24.561  0.00  0.00    +0.081 C 
ATOM      6  C   UNL     1       9.238   2.177  23.596  0.00  0.00    +0.046 C 
ATOM      7  C   UNL     1       7.763   2.523  23.911  0.00  0.00    +0.047 C 
ATOM      8  C   UNL     1       6.983   2.314  22.596  0.00  0.00    +0.125 C 
ATOM      9  C   UNL     1       8.011   1.946  21.527  0.00  0.00    +0.076 C 
ENDROOT
BRANCH   7  10
ATOM     10  C   UNL     1       7.670   3.947  24.414  0.00  0.00    -0.022 C 
ATOM     11  C   UNL     1       8.651   4.558  25.098  0.00  0.00    -0.000 C 
BRANCH  11  12
ATOM     12  C   UNL     1       8.635   6.008  25.485  0.00  0.00    +0.137 C 
BRANCH  12  13
ATOM     13  O   UNL     1       8.628   6.080  26.905  0.00  0.00    -0.388 OA
ATOM     14  H   UNL     1       7.959   6.741  27.149  0.00  0.00    +0.210 HD
ENDBRANCH  12  13
BRANCH  12  15
ATOM     15  C   UNL     1       9.872   6.754  24.967  0.00  0.00    +0.035 C 
BRANCH  15  16
ATOM     16  C   UNL     1      10.616   5.981  23.873  0.00  0.00    +0.003 C 
BRANCH  16  17
ATOM     17  C   UNL     1      12.130   6.024  24.078  0.00  0.00    -0.000 C 
BRANCH  17  18
ATOM     18  C   UNL     1      12.832   5.027  23.155  0.00  0.00    -0.003 C 
ATOM     19  C   UNL     1      13.446   5.717  21.950  0.00  0.00    +0.004 C 
ENDBRANCH  17  18
ENDBRANCH  16  17
ENDBRANCH  15  16
ENDBRANCH  12  15
ENDBRANCH  11  12
ENDBRANCH   7  10
BRANCH   8  20
ATOM     20  O   UNL     1       6.043   1.256  22.772  0.00  0.00    -0.391 OA
ATOM     21  H   UNL     1       6.072   0.696  21.978  0.00  0.00    +0.210 HD
ENDBRANCH   8  20
BRANCH   4  22
ATOM     22  C   UNL     1       9.535  -2.629  23.741  0.00  0.00    +0.031 C 
BRANCH  22  23
ATOM     23  C   UNL     1       8.125  -3.145  24.032  0.00  0.00    +0.015 C 
BRANCH  23  24
ATOM     24  C   UNL     1       7.466  -3.656  22.754  0.00  0.00    +0.121 C 
BRANCH  24  25
ATOM     25  C   UNL     1       6.300  -2.799  22.329  0.00  0.00    +0.305 C 
ATOM     26  O   UNL     1       5.408  -3.186  21.591  0.00  0.00    -0.251 OA
BRANCH  25  27
ATOM     27  O   UNL     1       6.347  -1.539  22.814  0.00  0.00    -0.481 OA
ATOM     28  H   UNL     1       5.678  -0.941  22.431  0.00  0.00    +0.295 HD
ENDBRANCH  25  27
ENDBRANCH  24  25
ENDBRANCH  23  24
ENDBRANCH  22  23
ENDBRANCH   4  22
TORSDOF 13
ENDMDL
MODEL 5
REMARK VINA RESULT:      -6.4      1.785      8.689
REMARK  Name = 
REMARK  14 active torsions:
REMARK  status: ('A' for Active; 'I' for Inactive)
REMARK    1  A    between atoms: C_4  and  O_6
REMARK    2  A    between atoms: C_7  and  C_9
REMARK    3  A    between atoms: C_10  and  C_11
REMARK    4  A    between atoms: C_11  and  O_13
REMARK    5  A    between atoms: C_11  and  C_14
REMARK    6  A    between atoms: C_14  and  C_15
REMARK    7  A    between atoms: C_15  and  C_16
REMARK    8  A    between atoms: C_16  and  C_17
REMARK    9  A    between atoms: C_17  and  C_18
REMARK   10  A    between atoms: C_24  and  C_25
REMARK   11  A    between atoms: C_25  and  C_26
REMARK   12  A    between atoms: C_26  and  C_27
REMARK   13  A    between atoms: C_27  and  C_28
REMARK   14  A    between atoms: C_28  and  O_29
REMARK                            x       y       z     vdW  Elec       q    Type
REMARK                         _______ _______ _______ _____ _____    ______ ____
ROOT
ATOM      1  C   UNL     1       7.923   1.067  22.439  0.00  0.00    +0.180 C 
ATOM      2  O   UNL     1       7.510  -0.227  22.887  0.00  0.00    -0.493 OA
ATOM      3  C   UNL     1       8.507  -1.093  22.466  0.00  0.00    +0.095 C 
ATOM      4  C   UNL     1       8.334  -2.421  22.472  0.00  0.00    +0.014 C 
ATOM      5  C   UNL     1       9.740  -0.386  21.993  0.00  0.00    +0.081 C 
ATOM      6  C   UNL     1       9.439   1.051  22.366  0.00  0.00    +0.046 C 
ATOM      7  C   UNL     1       9.919   1.453  23.781  0.00  0.00    +0.047 C 
ATOM      8  C   UNL     1       8.703   2.095  24.481  0.00  0.00    +0.125 C 
ATOM      9  C   UNL     1       7.576   2.144  23.451  0.00  0.00    +0.076 C 
ENDROOT
BRANCH   7  10
ATOM     10  C   UNL     1      11.088   2.408  23.670  0.00  0.00    -0.022 C 
ATOM     11  C   UNL     1      10.962   3.698  23.321  0.00  0.00    -0.000 C 
BRANCH  11  12
ATOM     12  C   UNL     1      12.086   4.693  23.338  0.00  0.00    +0.137 C 
BRANCH  12  13
ATOM     13  O   UNL     1      12.422   4.993  21.991  0.00  0.00    -0.388 OA
ATOM     14  H   UNL     1      11.982   5.832  21.772  0.00  0.00    +0.210 HD
ENDBRANCH  12  13
BRANCH  12  15
ATOM     15  C   UNL     1      11.687   5.996  24.042  0.00  0.00    +0.035 C 
BRANCH  15  16
ATOM     16  C   UNL     1      10.243   5.977  24.555  0.00  0.00    +0.003 C 
BRANCH  16  17
ATOM     17  C   UNL     1       9.292   6.693  23.598  0.00  0.00    -0.000 C 
BRANCH  17  18
ATOM     18  C   UNL     1       8.064   5.830  23.306  0.00  0.00    -0.003 C 
ATOM     19  C   UNL     1       7.429   6.192  21.974  0.00  0.00    +0.004 C 
ENDBRANCH  17  18
ENDBRANCH  16  17
ENDBRANCH  15  16
ENDBRANCH  12  15
ENDBRANCH  11  12
ENDBRANCH   7  10
BRANCH   8  20
ATOM     20  O   UNL     1       8.327   1.291  25.598  0.00  0.00    -0.391 OA
ATOM     21  H   UNL     1       8.891   1.543  26.349  0.00  0.00    +0.210 HD
ENDBRANCH   8  20
BRANCH   4  22
ATOM     22  C   UNL     1       7.070  -3.110  22.900  0.00  0.00    +0.031 C 
BRANCH  22  23
ATOM     23  C   UNL     1       7.336  -4.146  23.991  0.00  0.00    +0.015 C 
BRANCH  23  24
ATOM     24  C   UNL     1       8.832  -4.267  24.264  0.00  0.00    +0.121 C 
BRANCH  24  25
ATOM     25  C   UNL     1       9.135  -5.257  25.362  0.00  0.00    +0.305 C 
ATOM     26  O   UNL     1       8.285  -5.748  26.086  0.00  0.00    -0.251 OA
BRANCH  25  27
ATOM     27  O   UNL     1      10.452  -5.528  25.499  0.00  0.00    -0.481 OA
ATOM     28  H   UNL     1      10.656  -6.480  25.566  0.00  0.00    +0.295 HD
ENDBRANCH  25  27
ENDBRANCH  24  25
ENDBRANCH  23  24
ENDBRANCH  22  23
ENDBRANCH   4  22
TORSDOF 13
ENDMDL
MODEL 6
REMARK VINA RESULT:      -6.3      1.954      3.181
REMARK  Name = 
REMARK  14 active torsions:
REMARK  status: ('A' for Active; 'I' for Inactive)
REMARK    1  A    between atoms: C_4  and  O_6
REMARK    2  A    between atoms: C_7  and  C_9
REMARK    3  A    between atoms: C_10  and  C_11
REMARK    4  A    between atoms: C_11  and  O_13
REMARK    5  A    between atoms: C_11  and  C_14
REMARK    6  A    between atoms: C_14  and  C_15
REMARK    7  A    between atoms: C_15  and  C_16
REMARK    8  A    between atoms: C_16  and  C_17
REMARK    9  A    between atoms: C_17  and  C_18
REMARK   10  A    between atoms: C_24  and  C_25
REMARK   11  A    between atoms: C_25  and  C_26
REMARK   12  A    between atoms: C_26  and  C_27
REMARK   13  A    between atoms: C_27  and  C_28
REMARK   14  A    between atoms: C_28  and  O_29
REMARK                            x       y       z     vdW  Elec       q    Type
REMARK                         _______ _______ _______ _____ _____    ______ ____
ROOT
ATOM      1  C   UNL     1       9.967   0.987  23.255  0.00  0.00    +0.180 C 
ATOM      2  O   UNL     1      10.049   2.240  23.941  0.00  0.00    -0.493 OA
ATOM      3  C   UNL     1       8.959   2.971  23.495  0.00  0.00    +0.095 C 
ATOM      4  C   UNL     1       8.857   4.288  23.716  0.00  0.00    +0.014 C 
ATOM      5  C   UNL     1       7.965   2.144  22.739  0.00  0.00    +0.081 C 
ATOM      6  C   UNL     1       8.501   0.742  22.947  0.00  0.00    +0.046 C 
ATOM      7  C   UNL     1       7.936   0.027  24.197  0.00  0.00    +0.047 C 
ATOM      8  C   UNL     1       9.157  -0.494  24.983  0.00  0.00    +0.125 C 
ATOM      9  C   UNL     1      10.393  -0.165  24.147  0.00  0.00    +0.076 C 
ENDROOT
BRANCH   7  10
ATOM     10  C   UNL     1       7.008  -1.089  23.770  0.00  0.00    -0.022 C 
ATOM     11  C   UNL     1       7.379  -2.092  22.956  0.00  0.00    -0.000 C 
BRANCH  11  12
ATOM     12  C   UNL     1       6.519  -3.279  22.631  0.00  0.00    +0.137 C 
BRANCH  12  13
ATOM     13  O   UNL     1       7.358  -4.284  22.079  0.00  0.00    -0.388 OA
ATOM     14  H   UNL     1       7.914  -3.850  21.410  0.00  0.00    +0.210 HD
ENDBRANCH  12  13
BRANCH  12  15
ATOM     15  C   UNL     1       5.833  -3.849  23.879  0.00  0.00    +0.035 C 
BRANCH  15  16
ATOM     16  C   UNL     1       6.771  -4.709  24.732  0.00  0.00    +0.003 C 
BRANCH  16  17
ATOM     17  C   UNL     1       7.029  -4.080  26.101  0.00  0.00    -0.000 C 
BRANCH  17  18
ATOM     18  C   UNL     1       8.521  -3.816  26.304  0.00  0.00    -0.003 C 
ATOM     19  C   UNL     1       9.351  -4.384  25.166  0.00  0.00    +0.004 C 
ENDBRANCH  17  18
ENDBRANCH  16  17
ENDBRANCH  15  16
ENDBRANCH  12  15
ENDBRANCH  11  12
ENDBRANCH   7  10
BRANCH   8  20
ATOM     20  O   UNL     1       9.217   0.163  26.247  0.00  0.00    -0.391 OA
ATOM     21  H   UNL     1       9.587   1.051  26.104  0.00  0.00    +0.210 HD
ENDBRANCH   8  20
BRANCH   4  22
ATOM     22  C   UNL     1       9.891   5.110  24.431  0.00  0.00    +0.031 C 
BRANCH  22  23
ATOM     23  C   UNL     1      10.818   5.826  23.448  0.00  0.00    +0.015 C 
BRANCH  23  24
ATOM     24  C   UNL     1      12.263   5.766  23.933  0.00  0.00    +0.121 C 
BRANCH  24  25
ATOM     25  C   UNL     1      13.225   5.421  22.823  0.00  0.00    +0.305 C 
ATOM     26  O   UNL     1      12.940   5.474  21.638  0.00  0.00    -0.251 OA
BRANCH  25  27
ATOM     27  O   UNL     1      14.434   5.008  23.262  0.00  0.00    -0.481 OA
ATOM     28  H   UNL     1      14.993   5.724  23.619  0.00  0.00    +0.295 HD
ENDBRANCH  25  27
ENDBRANCH  24  25
ENDBRANCH  23  24
ENDBRANCH  22  23
ENDBRANCH   4  22
TORSDOF 13
ENDMDL
MODEL 7
REMARK VINA RESULT:      -6.2      2.509      3.298
REMARK  Name = 
REMARK  14 active torsions:
REMARK  status: ('A' for Active; 'I' for Inactive)
REMARK    1  A    between atoms: C_4  and  O_6
REMARK    2  A    between atoms: C_7  and  C_9
REMARK    3  A    between atoms: C_10  and  C_11
REMARK    4  A    between atoms: C_11  and  O_13
REMARK    5  A    between atoms: C_11  and  C_14
REMARK    6  A    between atoms: C_14  and  C_15
REMARK    7  A    between atoms: C_15  and  C_16
REMARK    8  A    between atoms: C_16  and  C_17
REMARK    9  A    between atoms: C_17  and  C_18
REMARK   10  A    between atoms: C_24  and  C_25
REMARK   11  A    between atoms: C_25  and  C_26
REMARK   12  A    between atoms: C_26  and  C_27
REMARK   13  A    between atoms: C_27  and  C_28
REMARK   14  A    between atoms: C_28  and  O_29
REMARK                            x       y       z     vdW  Elec       q    Type
REMARK                         _______ _______ _______ _____ _____    ______ ____
ROOT
ATOM      1  C   UNL     1      10.443   0.957  23.300  0.00  0.00    +0.180 C 
ATOM      2  O   UNL     1       9.442   1.979  23.308  0.00  0.00    -0.493 OA
ATOM      3  C   UNL     1       8.547   1.617  22.313  0.00  0.00    +0.095 C 
ATOM      4  C   UNL     1       7.626   2.473  21.851  0.00  0.00    +0.014 C 
ATOM      5  C   UNL     1       8.750   0.219  21.817  0.00  0.00    +0.081 C 
ATOM      6  C   UNL     1       9.783  -0.311  22.790  0.00  0.00    +0.046 C 
ATOM      7  C   UNL     1       9.183  -0.991  24.044  0.00  0.00    +0.047 C 
ATOM      8  C   UNL     1       9.874  -0.337  25.259  0.00  0.00    +0.125 C 
ATOM      9  C   UNL     1      10.917   0.631  24.705  0.00  0.00    +0.076 C 
ENDROOT
BRANCH   7  10
ATOM     10  C   UNL     1       9.425  -2.483  23.980  0.00  0.00    -0.022 C 
ATOM     11  C   UNL     1       9.117  -3.329  24.977  0.00  0.00    -0.000 C 
BRANCH  11  12
ATOM     12  C   UNL     1       9.221  -4.823  24.881  0.00  0.00    +0.137 C 
BRANCH  12  13
ATOM     13  O   UNL     1      10.212  -5.251  25.806  0.00  0.00    -0.388 OA
ATOM     14  H   UNL     1       9.834  -6.001  26.296  0.00  0.00    +0.210 HD
ENDBRANCH  12  13
BRANCH  12  15
ATOM     15  C   UNL     1       7.897  -5.513  25.233  0.00  0.00    +0.035 C 
BRANCH  15  16
ATOM     16  C   UNL     1       6.690  -4.869  24.544  0.00  0.00    +0.003 C 
BRANCH  16  17
ATOM     17  C   UNL     1       6.483  -5.419  23.133  0.00  0.00    -0.000 C 
BRANCH  17  18
ATOM     18  C   UNL     1       6.841  -4.366  22.083  0.00  0.00    -0.003 C 
ATOM     19  C   UNL     1       6.037  -3.091  22.271  0.00  0.00    +0.004 C 
ENDBRANCH  17  18
ENDBRANCH  16  17
ENDBRANCH  15  16
ENDBRANCH  12  15
ENDBRANCH  11  12
ENDBRANCH   7  10
BRANCH   8  20
ATOM     20  O   UNL     1       8.900   0.363  26.032  0.00  0.00    -0.391 OA
ATOM     21  H   UNL     1       9.353   0.755  26.798  0.00  0.00    +0.210 HD
ENDBRANCH   8  20
BRANCH   4  22
ATOM     22  C   UNL     1       7.473   3.891  22.324  0.00  0.00    +0.031 C 
BRANCH  22  23
ATOM     23  C   UNL     1       6.671   3.966  23.623  0.00  0.00    +0.015 C 
BRANCH  23  24
ATOM     24  C   UNL     1       7.336   4.920  24.610  0.00  0.00    +0.121 C 
BRANCH  24  25
ATOM     25  C   UNL     1       7.780   4.220  25.872  0.00  0.00    +0.305 C 
ATOM     26  O   UNL     1       7.780   4.745  26.974  0.00  0.00    -0.251 OA
BRANCH  25  27
ATOM     27  O   UNL     1       8.215   2.958  25.668  0.00  0.00    -0.481 OA
ATOM     28  H   UNL     1       9.185   2.880  25.588  0.00  0.00    +0.295 HD
ENDBRANCH  25  27
ENDBRANCH  24  25
ENDBRANCH  23  24
ENDBRANCH  22  23
ENDBRANCH   4  22
TORSDOF 13
ENDMDL
MODEL 8
REMARK VINA RESULT:      -6.2      2.501      3.730
REMARK  Name = 
REMARK  14 active torsions:
REMARK  status: ('A' for Active; 'I' for Inactive)
REMARK    1  A    between atoms: C_4  and  O_6
REMARK    2  A    between atoms: C_7  and  C_9
REMARK    3  A    between atoms: C_10  and  C_11
REMARK    4  A    between atoms: C_11  and  O_13
REMARK    5  A    between atoms: C_11  and  C_14
REMARK    6  A    between atoms: C_14  and  C_15
REMARK    7  A    between atoms: C_15  and  C_16
REMARK    8  A    between atoms: C_16  and  C_17
REMARK    9  A    between atoms: C_17  and  C_18
REMARK   10  A    between atoms: C_24  and  C_25
REMARK   11  A    between atoms: C_25  and  C_26
REMARK   12  A    between atoms: C_26  and  C_27
REMARK   13  A    between atoms: C_27  and  C_28
REMARK   14  A    between atoms: C_28  and  O_29
REMARK                            x       y       z     vdW  Elec       q    Type
REMARK                         _______ _______ _______ _____ _____    ______ ____
ROOT
ATOM      1  C   UNL     1       9.907  -1.396  23.606  0.00  0.00    +0.180 C 
ATOM      2  O   UNL     1       9.977   0.024  23.763  0.00  0.00    -0.493 OA
ATOM      3  C   UNL     1       9.803   0.540  22.488  0.00  0.00    +0.095 C 
ATOM      4  C   UNL     1      10.076   1.820  22.203  0.00  0.00    +0.014 C 
ATOM      5  C   UNL     1       9.325  -0.479  21.501  0.00  0.00    +0.081 C 
ATOM      6  C   UNL     1       9.035  -1.669  22.394  0.00  0.00    +0.046 C 
ATOM      7  C   UNL     1       7.586  -1.716  22.937  0.00  0.00    +0.047 C 
ATOM      8  C   UNL     1       7.705  -1.900  24.464  0.00  0.00    +0.125 C 
ATOM      9  C   UNL     1       9.193  -2.050  24.775  0.00  0.00    +0.076 C 
ENDROOT
BRANCH   7  10
ATOM     10  C   UNL     1       6.832  -2.850  22.277  0.00  0.00    -0.022 C 
ATOM     11  C   UNL     1       7.272  -4.119  22.255  0.00  0.00    -0.000 C 
BRANCH  11  12
ATOM     12  C   UNL     1       6.478  -5.280  21.730  0.00  0.00    +0.137 C 
BRANCH  12  13
ATOM     13  O   UNL     1       7.213  -6.467  21.999  0.00  0.00    -0.388 OA
ATOM     14  H   UNL     1       7.135  -7.030  21.210  0.00  0.00    +0.210 HD
ENDBRANCH  12  13
BRANCH  12  15
ATOM     15  C   UNL     1       5.107  -5.392  22.409  0.00  0.00    +0.035 C 
BRANCH  15  16
ATOM     16  C   UNL     1       5.156  -6.185  23.718  0.00  0.00    +0.003 C 
BRANCH  16  17
ATOM     17  C   UNL     1       5.122  -5.267  24.940  0.00  0.00    -0.000 C 
BRANCH  17  18
ATOM     18  C   UNL     1       6.070  -5.776  26.027  0.00  0.00    -0.003 C 
ATOM     19  C   UNL     1       7.487  -5.273  25.815  0.00  0.00    +0.004 C 
ENDBRANCH  17  18
ENDBRANCH  16  17
ENDBRANCH  15  16
ENDBRANCH  12  15
ENDBRANCH  11  12
ENDBRANCH   7  10
BRANCH   8  20
ATOM     20  O   UNL     1       7.169  -0.752  25.118  0.00  0.00    -0.391 OA
ATOM     21  H   UNL     1       7.866  -0.379  25.684  0.00  0.00    +0.210 HD
ENDBRANCH   8  20
BRANCH   4  22
ATOM     22  C   UNL     1      10.607   2.814  23.196  0.00  0.00    +0.031 C 
BRANCH  22  23
ATOM     23  C   UNL     1       9.555   3.861  23.562  0.00  0.00    +0.015 C 
BRANCH  23  24
ATOM     24  C   UNL     1       8.225   3.192  23.895  0.00  0.00    +0.121 C 
BRANCH  24  25
ATOM     25  C   UNL     1       8.085   2.899  25.369  0.00  0.00    +0.305 C 
ATOM     26  O   UNL     1       7.699   3.716  26.189  0.00  0.00    -0.251 OA
BRANCH  25  27
ATOM     27  O   UNL     1       8.464   1.648  25.711  0.00  0.00    -0.481 OA
ATOM     28  H   UNL     1       8.017   0.944  25.204  0.00  0.00    +0.295 HD
ENDBRANCH  25  27
ENDBRANCH  24  25
ENDBRANCH  23  24
ENDBRANCH  22  23
ENDBRANCH   4  22
TORSDOF 13
ENDMDL
MODEL 9
REMARK VINA RESULT:      -6.2      2.079      2.693
REMARK  Name = 
REMARK  14 active torsions:
REMARK  status: ('A' for Active; 'I' for Inactive)
REMARK    1  A    between atoms: C_4  and  O_6
REMARK    2  A    between atoms: C_7  and  C_9
REMARK    3  A    between atoms: C_10  and  C_11
REMARK    4  A    between atoms: C_11  and  O_13
REMARK    5  A    between atoms: C_11  and  C_14
REMARK    6  A    between atoms: C_14  and  C_15
REMARK    7  A    between atoms: C_15  and  C_16
REMARK    8  A    between atoms: C_16  and  C_17
REMARK    9  A    between atoms: C_17  and  C_18
REMARK   10  A    between atoms: C_24  and  C_25
REMARK   11  A    between atoms: C_25  and  C_26
REMARK   12  A    between atoms: C_26  and  C_27
REMARK   13  A    between atoms: C_27  and  C_28
REMARK   14  A    between atoms: C_28  and  O_29
REMARK                            x       y       z     vdW  Elec       q    Type
REMARK                         _______ _______ _______ _____ _____    ______ ____
ROOT
ATOM      1  C   UNL     1       7.257  -1.105  22.840  0.00  0.00    +0.180 C 
ATOM      2  O   UNL     1       7.616   0.241  23.164  0.00  0.00    -0.493 OA
ATOM      3  C   UNL     1       7.063   0.473  24.414  0.00  0.00    +0.095 C 
ATOM      4  C   UNL     1       6.965   1.709  24.922  0.00  0.00    +0.014 C 
ATOM      5  C   UNL     1       6.579  -0.775  25.085  0.00  0.00    +0.081 C 
ATOM      6  C   UNL     1       7.091  -1.852  24.150  0.00  0.00    +0.046 C 
ATOM      7  C   UNL     1       8.504  -2.376  24.502  0.00  0.00    +0.047 C 
ATOM      8  C   UNL     1       9.329  -2.293  23.200  0.00  0.00    +0.125 C 
ATOM      9  C   UNL     1       8.377  -1.818  22.104  0.00  0.00    +0.076 C 
ENDROOT
BRANCH   7  10
ATOM     10  C   UNL     1       8.406  -3.791  25.030  0.00  0.00    -0.022 C 
ATOM     11  C   UNL     1       7.456  -4.198  25.887  0.00  0.00    -0.000 C 
BRANCH  11  12
ATOM     12  C   UNL     1       7.257  -5.623  26.315  0.00  0.00    +0.137 C 
BRANCH  12  13
ATOM     13  O   UNL     1       7.671  -5.732  27.671  0.00  0.00    -0.388 OA
ATOM     14  H   UNL     1       8.551  -6.145  27.663  0.00  0.00    +0.210 HD
ENDBRANCH  12  13
BRANCH  12  15
ATOM     15  C   UNL     1       5.788  -6.052  26.219  0.00  0.00    +0.035 C 
BRANCH  15  16
ATOM     16  C   UNL     1       5.040  -5.357  25.077  0.00  0.00    +0.003 C 
BRANCH  16  17
ATOM     17  C   UNL     1       5.196  -6.111  23.756  0.00  0.00    -0.000 C 
BRANCH  17  18
ATOM     18  C   UNL     1       5.789  -5.202  22.679  0.00  0.00    -0.003 C 
ATOM     19  C   UNL     1       7.118  -5.731  22.170  0.00  0.00    +0.004 C 
ENDBRANCH  17  18
ENDBRANCH  16  17
ENDBRANCH  15  16
ENDBRANCH  12  15
ENDBRANCH  11  12
ENDBRANCH   7  10
BRANCH   8  20
ATOM     20  O   UNL     1      10.394  -1.360  23.379  0.00  0.00    -0.391 OA
ATOM     21  H   UNL     1      10.003  -0.471  23.441  0.00  0.00    +0.210 HD
ENDBRANCH   8  20
BRANCH   4  22
ATOM     22  C   UNL     1       7.407   2.955  24.209  0.00  0.00    +0.031 C 
BRANCH  22  23
ATOM     23  C   UNL     1       8.754   3.453  24.732  0.00  0.00    +0.015 C 
BRANCH  23  24
ATOM     24  C   UNL     1       9.811   3.398  23.634  0.00  0.00    +0.121 C 
BRANCH  24  25
ATOM     25  C   UNL     1      10.370   2.009  23.446  0.00  0.00    +0.305 C 
ATOM     26  O   UNL     1      11.010   1.415  24.298  0.00  0.00    -0.251 OA
BRANCH  25  27
ATOM     27  O   UNL     1      10.127   1.487  22.224  0.00  0.00    -0.481 OA
ATOM     28  H   UNL     1       9.185   1.302  22.051  0.00  0.00    +0.295 HD
ENDBRANCH  25  27
ENDBRANCH  24  25
ENDBRANCH  23  24
ENDBRANCH  22  23
ENDBRANCH   4  22
TORSDOF 13
ENDMDL
