MODEL 1
REMARK VINA RESULT:      -7.6      0.000      0.000
REMARK  Name = 
REMARK  5 active torsions:
REMARK  status: ('A' for Active; 'I' for Inactive)
REMARK    1  A    between atoms: C_1  and  C_2
REMARK    2  A    between atoms: C_2  and  C_3
REMARK    3  A    between atoms: C_2  and  C_6
REMARK    4  A    between atoms: C_3  and  O_4
REMARK    5  A    between atoms: C_11  and  C_13
REMARK                            x       y       z     vdW  Elec       q    Type
REMARK                         _______ _______ _______ _____ _____    ______ ____
ROOT
ATOM      1  C   UNL     1      10.894   4.595  23.712  0.00  0.00    -0.032 A 
ATOM      2  C   UNL     1       9.578   4.801  24.175  0.00  0.00    +0.008 A 
ATOM      3  C   UNL     1       8.736   3.734  24.528  0.00  0.00    +0.049 A 
ATOM      4  C   UNL     1       9.278   2.465  24.388  0.00  0.00    +0.156 A 
ATOM      5  O   UNL     1       8.697   1.275  24.717  0.00  0.00    -0.435 OA
ATOM      6  C   UNL     1       9.663   0.341  24.426  0.00  0.00    +0.228 A 
ATOM      7  N   UNL     1      10.770   0.846  23.906  0.00  0.00    -0.209 NA
ATOM      8  C   UNL     1      10.545   2.199  23.901  0.00  0.00    +0.110 A 
ATOM      9  C   UNL     1      11.370   3.275  23.535  0.00  0.00    +0.036 A 
ENDROOT
BRANCH   6  10
ATOM     10  C   UNL     1       9.366  -1.044  24.797  0.00  0.00    +0.037 A 
ATOM     11  C   UNL     1       8.646  -1.308  25.974  0.00  0.00    +0.014 A 
ATOM     12  C   UNL     1       8.290  -2.617  26.323  0.00  0.00    +0.021 A 
ATOM     13  C   UNL     1       8.654  -3.675  25.496  0.00  0.00    +0.041 A 
ATOM     14 CL   UNL     1       8.195  -5.281  25.908  0.00  0.00    -0.084 Cl
ATOM     15  C   UNL     1       9.380  -3.439  24.331  0.00  0.00    +0.021 A 
ATOM     16  C   UNL     1       9.736  -2.129  23.985  0.00  0.00    +0.014 A 
ENDBRANCH   6  10
BRANCH   1  18
ATOM     17  C   UNL     1      12.223   6.503  24.680  0.00  0.00    +0.024 C 
ATOM     18  C   UNL     1      11.817   5.770  23.401  0.00  0.00    +0.124 C 
BRANCH  18  19
ATOM     19  C   UNL     1      13.052   5.385  22.583  0.00  0.00    +0.312 C 
ATOM     20  O   UNL     1      13.090   5.317  21.365  0.00  0.00    -0.250 OA
BRANCH  19  21
ATOM     21  O   UNL     1      14.134   5.086  23.342  0.00  0.00    -0.480 OA
ATOM     22  H   UNL     1      14.943   4.912  22.823  0.00  0.00    +0.295 HD
ENDBRANCH  19  21
ENDBRANCH  18  19
ENDBRANCH   1  18
TORSDOF 4
ENDMDL
MODEL 2
REMARK VINA RESULT:      -6.8      4.941      9.686
REMARK  Name = 
REMARK  5 active torsions:
REMARK  status: ('A' for Active; 'I' for Inactive)
REMARK    1  A    between atoms: C_1  and  C_2
REMARK    2  A    between atoms: C_2  and  C_3
REMARK    3  A    between atoms: C_2  and  C_6
REMARK    4  A    between atoms: C_3  and  O_4
REMARK    5  A    between atoms: C_11  and  C_13
REMARK                            x       y       z     vdW  Elec       q    Type
REMARK                         _______ _______ _______ _____ _____    ______ ____
ROOT
ATOM      1  C   UNL     1       5.739  -5.536  23.686  0.00  0.00    -0.032 A 
ATOM      2  C   UNL     1       6.393  -5.760  22.457  0.00  0.00    +0.008 A 
ATOM      3  C   UNL     1       7.238  -4.801  21.877  0.00  0.00    +0.049 A 
ATOM      4  C   UNL     1       7.384  -3.616  22.585  0.00  0.00    +0.156 A 
ATOM      5  O   UNL     1       8.188  -2.559  22.274  0.00  0.00    -0.435 OA
ATOM      6  C   UNL     1       7.997  -1.678  23.312  0.00  0.00    +0.228 A 
ATOM      7  N   UNL     1       7.114  -2.080  24.212  0.00  0.00    -0.209 NA
ATOM      8  C   UNL     1       6.738  -3.324  23.772  0.00  0.00    +0.110 A 
ATOM      9  C   UNL     1       5.881  -4.286  24.332  0.00  0.00    +0.036 A 
ENDROOT
BRANCH   6  10
ATOM     10  C   UNL     1       8.838  -0.479  23.316  0.00  0.00    +0.037 A 
ATOM     11  C   UNL     1       8.934   0.304  22.154  0.00  0.00    +0.014 A 
ATOM     12  C   UNL     1       9.677   1.491  22.145  0.00  0.00    +0.021 A 
ATOM     13  C   UNL     1      10.332   1.905  23.301  0.00  0.00    +0.041 A 
ATOM     14 CL   UNL     1      11.223   3.376  23.301  0.00  0.00    -0.084 Cl
ATOM     15  C   UNL     1      10.262   1.137  24.461  0.00  0.00    +0.021 A 
ATOM     16  C   UNL     1       9.519  -0.051  24.466  0.00  0.00    +0.014 A 
ENDBRANCH   6  10
BRANCH   1  18
ATOM     17  C   UNL     1       4.811  -6.429  25.851  0.00  0.00    +0.024 C 
ATOM     18  C   UNL     1       4.881  -6.619  24.335  0.00  0.00    +0.124 C 
BRANCH  18  19
ATOM     19  C   UNL     1       3.476  -6.734  23.739  0.00  0.00    +0.312 C 
ATOM     20  O   UNL     1       2.849  -5.811  23.244  0.00  0.00    -0.250 OA
BRANCH  19  21
ATOM     21  O   UNL     1       2.948  -7.978  23.831  0.00  0.00    -0.480 OA
ATOM     22  H   UNL     1       2.126  -8.019  24.357  0.00  0.00    +0.295 HD
ENDBRANCH  19  21
ENDBRANCH  18  19
ENDBRANCH   1  18
TORSDOF 4
ENDMDL
MODEL 3
REMARK VINA RESULT:      -6.8      5.032      9.589
REMARK  Name = 
REMARK  5 active torsions:
REMARK  status: ('A' for Active; 'I' for Inactive)
REMARK    1  A    between atoms: C_1  and  C_2
REMARK    2  A    between atoms: C_2  and  C_3
REMARK    3  A    between atoms: C_2  and  C_6
REMARK    4  A    between atoms: C_3  and  O_4
REMARK    5  A    between atoms: C_11  and  C_13
REMARK                            x       y       z     vdW  Elec       q    Type
REMARK                         _______ _______ _______ _____ _____    ______ ____
ROOT
ATOM      1  C   UNL     1       4.936  -4.619  23.559  0.00  0.00    -0.032 A 
ATOM      2  C   UNL     1       5.871  -5.139  22.639  0.00  0.00    +0.008 A 
ATOM      3  C   UNL     1       6.954  -4.381  22.168  0.00  0.00    +0.049 A 
ATOM      4  C   UNL     1       7.046  -3.087  22.661  0.00  0.00    +0.156 A 
ATOM      5  O   UNL     1       8.029  -2.174  22.413  0.00  0.00    -0.435 OA
ATOM      6  C   UNL     1       7.670  -1.084  23.170  0.00  0.00    +0.228 A 
ATOM      7  N   UNL     1       6.531  -1.229  23.829  0.00  0.00    -0.209 NA
ATOM      8  C   UNL     1       6.140  -2.510  23.531  0.00  0.00    +0.110 A 
ATOM      9  C   UNL     1       5.050  -3.274  23.980  0.00  0.00    +0.036 A 
ENDROOT
BRANCH   6  10
ATOM     10  C   UNL     1       8.619   0.031  23.203  0.00  0.00    +0.037 A 
ATOM     11  C   UNL     1       9.076   0.588  21.998  0.00  0.00    +0.014 A 
ATOM     12  C   UNL     1       9.932   1.697  21.995  0.00  0.00    +0.021 A 
ATOM     13  C   UNL     1      10.340   2.257  23.202  0.00  0.00    +0.041 A 
ATOM     14 CL   UNL     1      11.371   3.634  23.203  0.00  0.00    -0.084 Cl
ATOM     15  C   UNL     1       9.911   1.711  24.410  0.00  0.00    +0.021 A 
ATOM     16  C   UNL     1       9.056   0.602  24.409  0.00  0.00    +0.014 A 
ENDBRANCH   6  10
BRANCH   1  18
ATOM     17  C   UNL     1       2.772  -5.794  23.032  0.00  0.00    +0.024 C 
ATOM     18  C   UNL     1       3.806  -5.483  24.113  0.00  0.00    +0.124 C 
BRANCH  18  19
ATOM     19  C   UNL     1       4.287  -6.770  24.788  0.00  0.00    +0.312 C 
ATOM     20  O   UNL     1       5.026  -6.816  25.758  0.00  0.00    -0.250 OA
BRANCH  19  21
ATOM     21  O   UNL     1       3.836  -7.898  24.187  0.00  0.00    -0.480 OA
ATOM     22  H   UNL     1       3.209  -8.410  24.732  0.00  0.00    +0.295 HD
ENDBRANCH  19  21
ENDBRANCH  18  19
ENDBRANCH   1  18
TORSDOF 4
ENDMDL
MODEL 4
REMARK VINA RESULT:      -6.7      4.282      8.596
REMARK  Name = 
REMARK  5 active torsions:
REMARK  status: ('A' for Active; 'I' for Inactive)
REMARK    1  A    between atoms: C_1  and  C_2
REMARK    2  A    between atoms: C_2  and  C_3
REMARK    3  A    between atoms: C_2  and  C_6
REMARK    4  A    between atoms: C_3  and  O_4
REMARK    5  A    between atoms: C_11  and  C_13
REMARK                            x       y       z     vdW  Elec       q    Type
REMARK                         _______ _______ _______ _____ _____    ______ ____
ROOT
ATOM      1  C   UNL     1       7.035  -3.714  23.325  0.00  0.00    -0.032 A 
ATOM      2  C   UNL     1       8.286  -4.014  23.905  0.00  0.00    +0.008 A 
ATOM      3  C   UNL     1       9.247  -3.022  24.158  0.00  0.00    +0.049 A 
ATOM      4  C   UNL     1       8.892  -1.730  23.796  0.00  0.00    +0.156 A 
ATOM      5  O   UNL     1       9.613  -0.589  23.989  0.00  0.00    -0.435 OA
ATOM      6  C   UNL     1       8.802   0.406  23.498  0.00  0.00    +0.228 A 
ATOM      7  N   UNL     1       7.663  -0.027  22.980  0.00  0.00    -0.209 NA
ATOM      8  C   UNL     1       7.700  -1.382  23.188  0.00  0.00    +0.110 A 
ATOM      9  C   UNL     1       6.755  -2.387  22.924  0.00  0.00    +0.036 A 
ENDROOT
BRANCH   6  10
ATOM     10  C   UNL     1       9.266   1.782  23.684  0.00  0.00    +0.037 A 
ATOM     11  C   UNL     1      10.547   2.148  23.238  0.00  0.00    +0.014 A 
ATOM     12  C   UNL     1      10.996   3.470  23.342  0.00  0.00    +0.021 A 
ATOM     13  C   UNL     1      10.165   4.440  23.895  0.00  0.00    +0.041 A 
ATOM     14 CL   UNL     1      10.703   6.071  24.000  0.00  0.00    -0.084 Cl
ATOM     15  C   UNL     1       8.896   4.097  24.357  0.00  0.00    +0.021 A 
ATOM     16  C   UNL     1       8.451   2.774  24.253  0.00  0.00    +0.014 A 
ENDBRANCH   6  10
BRANCH   1  18
ATOM     17  C   UNL     1       4.568  -4.218  23.269  0.00  0.00    +0.024 C 
ATOM     18  C   UNL     1       5.977  -4.795  23.124  0.00  0.00    +0.124 C 
BRANCH  18  19
ATOM     19  C   UNL     1       6.116  -5.557  21.804  0.00  0.00    +0.312 C 
ATOM     20  O   UNL     1       5.923  -5.080  20.698  0.00  0.00    -0.250 OA
BRANCH  19  21
ATOM     21  O   UNL     1       6.453  -6.860  21.964  0.00  0.00    -0.480 OA
ATOM     22  H   UNL     1       6.021  -7.287  22.729  0.00  0.00    +0.295 HD
ENDBRANCH  19  21
ENDBRANCH  18  19
ENDBRANCH   1  18
TORSDOF 4
ENDMDL
MODEL 5
REMARK VINA RESULT:      -6.7      4.180      6.092
REMARK  Name = 
REMARK  5 active torsions:
REMARK  status: ('A' for Active; 'I' for Inactive)
REMARK    1  A    between atoms: C_1  and  C_2
REMARK    2  A    between atoms: C_2  and  C_3
REMARK    3  A    between atoms: C_2  and  C_6
REMARK    4  A    between atoms: C_3  and  O_4
REMARK    5  A    between atoms: C_11  and  C_13
REMARK                            x       y       z     vdW  Elec       q    Type
REMARK                         _______ _______ _______ _____ _____    ______ ____
ROOT
ATOM      1  C   UNL     1       8.968  -0.617  23.771  0.00  0.00    -0.032 A 
ATOM      2  C   UNL     1       9.841  -1.697  24.019  0.00  0.00    +0.008 A 
ATOM      3  C   UNL     1       9.368  -2.997  24.261  0.00  0.00    +0.049 A 
ATOM      4  C   UNL     1       7.989  -3.151  24.245  0.00  0.00    +0.156 A 
ATOM      5  O   UNL     1       7.284  -4.310  24.388  0.00  0.00    -0.435 OA
ATOM      6  C   UNL     1       5.973  -3.922  24.250  0.00  0.00    +0.228 A 
ATOM      7  N   UNL     1       5.805  -2.620  24.078  0.00  0.00    -0.209 NA
ATOM      8  C   UNL     1       7.085  -2.125  24.048  0.00  0.00    +0.110 A 
ATOM      9  C   UNL     1       7.570  -0.826  23.825  0.00  0.00    +0.036 A 
ENDROOT
BRANCH   6  10
ATOM     10  C   UNL     1       4.971  -4.991  24.234  0.00  0.00    +0.037 A 
ATOM     11  C   UNL     1       3.894  -4.918  23.337  0.00  0.00    +0.014 A 
ATOM     12  C   UNL     1       2.956  -5.954  23.252  0.00  0.00    +0.021 A 
ATOM     13  C   UNL     1       3.089  -7.075  24.067  0.00  0.00    +0.041 A 
ATOM     14 CL   UNL     1       1.954  -8.362  23.946  0.00  0.00    -0.084 Cl
ATOM     15  C   UNL     1       4.142  -7.162  24.974  0.00  0.00    +0.021 A 
ATOM     16  C   UNL     1       5.078  -6.123  25.058  0.00  0.00    +0.014 A 
ENDBRANCH   6  10
BRANCH   1  18
ATOM     17  C   UNL     1      10.812   1.048  24.180  0.00  0.00    +0.024 C 
ATOM     18  C   UNL     1       9.503   0.773  23.440  0.00  0.00    +0.124 C 
BRANCH  18  19
ATOM     19  C   UNL     1       9.666   1.031  21.940  0.00  0.00    +0.312 C 
ATOM     20  O   UNL     1       9.370   0.241  21.059  0.00  0.00    -0.250 OA
BRANCH  19  21
ATOM     21  O   UNL     1      10.211   2.239  21.653  0.00  0.00    -0.480 OA
ATOM     22  H   UNL     1      10.516   2.729  22.440  0.00  0.00    +0.295 HD
ENDBRANCH  19  21
ENDBRANCH  18  19
ENDBRANCH   1  18
TORSDOF 4
ENDMDL
MODEL 6
REMARK VINA RESULT:      -6.6      4.342      9.033
REMARK  Name = 
REMARK  5 active torsions:
REMARK  status: ('A' for Active; 'I' for Inactive)
REMARK    1  A    between atoms: C_1  and  C_2
REMARK    2  A    between atoms: C_2  and  C_3
REMARK    3  A    between atoms: C_2  and  C_6
REMARK    4  A    between atoms: C_3  and  O_4
REMARK    5  A    between atoms: C_11  and  C_13
REMARK                            x       y       z     vdW  Elec       q    Type
REMARK                         _______ _______ _______ _____ _____    ______ ____
ROOT
ATOM      1  C   UNL     1       6.790  -5.085  23.917  0.00  0.00    -0.032 A 
ATOM      2  C   UNL     1       7.875  -5.302  24.793  0.00  0.00    +0.008 A 
ATOM      3  C   UNL     1       8.891  -4.349  24.970  0.00  0.00    +0.049 A 
ATOM      4  C   UNL     1       8.764  -3.185  24.226  0.00  0.00    +0.156 A 
ATOM      5  O   UNL     1       9.575  -2.088  24.261  0.00  0.00    -0.435 OA
ATOM      6  C   UNL     1       8.988  -1.212  23.379  0.00  0.00    +0.228 A 
ATOM      7  N   UNL     1       7.913  -1.688  22.772  0.00  0.00    -0.209 NA
ATOM      8  C   UNL     1       7.748  -2.934  23.324  0.00  0.00    +0.110 A 
ATOM      9  C   UNL     1       6.747  -3.902  23.143  0.00  0.00    +0.036 A 
ENDROOT
BRANCH   6  10
ATOM     10  C   UNL     1       9.578   0.126  23.296  0.00  0.00    +0.037 A 
ATOM     11  C   UNL     1      10.227   0.669  24.417  0.00  0.00    +0.014 A 
ATOM     12  C   UNL     1      10.857   1.918  24.350  0.00  0.00    +0.021 A 
ATOM     13  C   UNL     1      10.842   2.636  23.158  0.00  0.00    +0.041 A 
ATOM     14 CL   UNL     1      11.638   4.158  23.064  0.00  0.00    -0.084 Cl
ATOM     15  C   UNL     1      10.193   2.123  22.037  0.00  0.00    +0.021 A 
ATOM     16  C   UNL     1       9.562   0.875  22.108  0.00  0.00    +0.014 A 
ENDBRANCH   6  10
BRANCH   1  18
ATOM     17  C   UNL     1       4.916  -6.264  25.119  0.00  0.00    +0.024 C 
ATOM     18  C   UNL     1       5.658  -6.101  23.792  0.00  0.00    +0.124 C 
BRANCH  18  19
ATOM     19  C   UNL     1       4.678  -5.797  22.657  0.00  0.00    +0.312 C 
ATOM     20  O   UNL     1       3.613  -5.215  22.791  0.00  0.00    -0.250 OA
BRANCH  19  21
ATOM     21  O   UNL     1       5.081  -6.266  21.452  0.00  0.00    -0.480 OA
ATOM     22  H   UNL     1       5.428  -7.178  21.480  0.00  0.00    +0.295 HD
ENDBRANCH  19  21
ENDBRANCH  18  19
ENDBRANCH   1  18
TORSDOF 4
ENDMDL
MODEL 7
REMARK VINA RESULT:      -6.6      2.825      3.737
REMARK  Name = 
REMARK  5 active torsions:
REMARK  status: ('A' for Active; 'I' for Inactive)
REMARK    1  A    between atoms: C_1  and  C_2
REMARK    2  A    between atoms: C_2  and  C_3
REMARK    3  A    between atoms: C_2  and  C_6
REMARK    4  A    between atoms: C_3  and  O_4
REMARK    5  A    between atoms: C_11  and  C_13
REMARK                            x       y       z     vdW  Elec       q    Type
REMARK                         _______ _______ _______ _____ _____    ______ ____
ROOT
ATOM      1  C   UNL     1       9.718   2.275  23.325  0.00  0.00    -0.032 A 
ATOM      2  C   UNL     1       9.888   1.871  21.984  0.00  0.00    +0.008 A 
ATOM      3  C   UNL     1       9.445   0.623  21.520  0.00  0.00    +0.049 A 
ATOM      4  C   UNL     1       8.835  -0.191  22.463  0.00  0.00    +0.156 A 
ATOM      5  O   UNL     1       8.266  -1.414  22.258  0.00  0.00    -0.435 OA
ATOM      6  C   UNL     1       7.772  -1.763  23.493  0.00  0.00    +0.228 A 
ATOM      7  N   UNL     1       8.024  -0.883  24.449  0.00  0.00    -0.209 NA
ATOM      8  C   UNL     1       8.677   0.133  23.798  0.00  0.00    +0.110 A 
ATOM      9  C   UNL     1       9.141   1.377  24.253  0.00  0.00    +0.036 A 
ENDROOT
BRANCH   6  10
ATOM     10  C   UNL     1       6.985  -2.997  23.558  0.00  0.00    +0.037 A 
ATOM     11  C   UNL     1       7.466  -4.087  24.301  0.00  0.00    +0.014 A 
ATOM     12  C   UNL     1       6.707  -5.257  24.437  0.00  0.00    +0.021 A 
ATOM     13  C   UNL     1       5.459  -5.345  23.828  0.00  0.00    +0.041 A 
ATOM     14 CL   UNL     1       4.513  -6.770  24.015  0.00  0.00    -0.084 Cl
ATOM     15  C   UNL     1       4.968  -4.281  23.075  0.00  0.00    +0.021 A 
ATOM     16  C   UNL     1       5.730  -3.113  22.940  0.00  0.00    +0.014 A 
ENDBRANCH   6  10
BRANCH   1  18
ATOM     17  C   UNL     1      11.574   3.977  23.357  0.00  0.00    +0.024 C 
ATOM     18  C   UNL     1      10.143   3.664  23.793  0.00  0.00    +0.124 C 
BRANCH  18  19
ATOM     19  C   UNL     1       9.189   4.780  23.360  0.00  0.00    +0.312 C 
ATOM     20  O   UNL     1       7.973   4.682  23.316  0.00  0.00    -0.250 OA
BRANCH  19  21
ATOM     21  O   UNL     1       9.821   5.919  22.986  0.00  0.00    -0.480 OA
ATOM     22  H   UNL     1      10.793   5.836  22.951  0.00  0.00    +0.295 HD
ENDBRANCH  19  21
ENDBRANCH  18  19
ENDBRANCH   1  18
TORSDOF 4
ENDMDL
MODEL 8
REMARK VINA RESULT:      -6.4      4.618      9.562
REMARK  Name = 
REMARK  5 active torsions:
REMARK  status: ('A' for Active; 'I' for Inactive)
REMARK    1  A    between atoms: C_1  and  C_2
REMARK    2  A    between atoms: C_2  and  C_3
REMARK    3  A    between atoms: C_2  and  C_6
REMARK    4  A    between atoms: C_3  and  O_4
REMARK    5  A    between atoms: C_11  and  C_13
REMARK                            x       y       z     vdW  Elec       q    Type
REMARK                         _______ _______ _______ _____ _____    ______ ____
ROOT
ATOM      1  C   UNL     1       6.285  -4.669  27.532  0.00  0.00    -0.032 A 
ATOM      2  C   UNL     1       7.476  -5.294  27.106  0.00  0.00    +0.008 A 
ATOM      3  C   UNL     1       8.470  -4.599  26.400  0.00  0.00    +0.049 A 
ATOM      4  C   UNL     1       8.207  -3.262  26.143  0.00  0.00    +0.156 A 
ATOM      5  O   UNL     1       9.028  -2.358  25.536  0.00  0.00    -0.435 OA
ATOM      6  C   UNL     1       8.316  -1.183  25.573  0.00  0.00    +0.228 A 
ATOM      7  N   UNL     1       7.111  -1.292  26.110  0.00  0.00    -0.209 NA
ATOM      8  C   UNL     1       7.043  -2.607  26.499  0.00  0.00    +0.110 A 
ATOM      9  C   UNL     1       6.048  -3.318  27.189  0.00  0.00    +0.036 A 
ENDROOT
BRANCH   6  10
ATOM     10  C   UNL     1       9.006   0.017  25.094  0.00  0.00    +0.037 A 
ATOM     11  C   UNL     1      10.359  -0.062  24.726  0.00  0.00    +0.014 A 
ATOM     12  C   UNL     1      11.030   1.051  24.203  0.00  0.00    +0.021 A 
ATOM     13  C   UNL     1      10.350   2.255  24.044  0.00  0.00    +0.041 A 
ATOM     14 CL   UNL     1      11.163   3.616  23.377  0.00  0.00    -0.084 Cl
ATOM     15  C   UNL     1       9.011   2.360  24.414  0.00  0.00    +0.021 A 
ATOM     16  C   UNL     1       8.344   1.246  24.939  0.00  0.00    +0.014 A 
ENDBRANCH   6  10
BRANCH   1  18
ATOM     17  C   UNL     1       4.029  -5.789  27.513  0.00  0.00    +0.024 C 
ATOM     18  C   UNL     1       5.248  -5.423  28.360  0.00  0.00    +0.124 C 
BRANCH  18  19
ATOM     19  C   UNL     1       5.805  -6.660  29.069  0.00  0.00    +0.312 C 
ATOM     20  O   UNL     1       6.444  -6.641  30.108  0.00  0.00    -0.250 OA
BRANCH  19  21
ATOM     21  O   UNL     1       5.551  -7.820  28.416  0.00  0.00    -0.480 OA
ATOM     22  H   UNL     1       5.558  -7.734  27.444  0.00  0.00    +0.295 HD
ENDBRANCH  19  21
ENDBRANCH  18  19
ENDBRANCH   1  18
TORSDOF 4
ENDMDL
MODEL 9
REMARK VINA RESULT:      -6.4      1.606      1.826
REMARK  Name = 
REMARK  5 active torsions:
REMARK  status: ('A' for Active; 'I' for Inactive)
REMARK    1  A    between atoms: C_1  and  C_2
REMARK    2  A    between atoms: C_2  and  C_3
REMARK    3  A    between atoms: C_2  and  C_6
REMARK    4  A    between atoms: C_3  and  O_4
REMARK    5  A    between atoms: C_11  and  C_13
REMARK                            x       y       z     vdW  Elec       q    Type
REMARK                         _______ _______ _______ _____ _____    ______ ____
ROOT
ATOM      1  C   UNL     1       9.806   4.890  23.700  0.00  0.00    -0.032 A 
ATOM      2  C   UNL     1       8.449   4.933  23.317  0.00  0.00    +0.008 A 
ATOM      3  C   UNL     1       7.705   3.766  23.078  0.00  0.00    +0.049 A 
ATOM      4  C   UNL     1       8.389   2.570  23.238  0.00  0.00    +0.156 A 
ATOM      5  O   UNL     1       7.885   1.307  23.129  0.00  0.00    -0.435 OA
ATOM      6  C   UNL     1       8.954   0.495  23.423  0.00  0.00    +0.228 A 
ATOM      7  N   UNL     1      10.082   1.144  23.661  0.00  0.00    -0.209 NA
ATOM      8  C   UNL     1       9.726   2.466  23.571  0.00  0.00    +0.110 A 
ATOM      9  C   UNL     1      10.464   3.641  23.789  0.00  0.00    +0.036 A 
ENDROOT
BRANCH   6  10
ATOM     10  C   UNL     1       8.681  -0.942  23.506  0.00  0.00    +0.037 A 
ATOM     11  C   UNL     1       7.535  -1.467  22.888  0.00  0.00    +0.014 A 
ATOM     12  C   UNL     1       7.280  -2.844  22.894  0.00  0.00    +0.021 A 
ATOM     13  C   UNL     1       8.173  -3.709  23.521  0.00  0.00    +0.041 A 
ATOM     14 CL   UNL     1       7.876  -5.404  23.507  0.00  0.00    -0.084 Cl
ATOM     15  C   UNL     1       9.309  -3.209  24.152  0.00  0.00    +0.021 A 
ATOM     16  C   UNL     1       9.560  -1.831  24.146  0.00  0.00    +0.014 A 
ENDBRANCH   6  10
BRANCH   1  18
ATOM     17  C   UNL     1      10.230   6.679  25.421  0.00  0.00    +0.024 C 
ATOM     18  C   UNL     1      10.577   6.166  24.023  0.00  0.00    +0.124 C 
BRANCH  18  19
ATOM     19  C   UNL     1      12.093   6.030  23.858  0.00  0.00    +0.312 C 
ATOM     20  O   UNL     1      12.653   5.632  22.850  0.00  0.00    -0.250 OA
BRANCH  19  21
ATOM     21  O   UNL     1      12.792   6.369  24.969  0.00  0.00    -0.480 OA
ATOM     22  H   UNL     1      13.300   7.198  24.876  0.00  0.00    +0.295 HD
ENDBRANCH  19  21
ENDBRANCH  18  19
ENDBRANCH   1  18
TORSDOF 4
ENDMDL
