MODEL 1
REMARK VINA RESULT:      -6.5      0.000      0.000
REMARK  Name = 
REMARK  2 active torsions:
REMARK  status: ('A' for Active; 'I' for Inactive)
REMARK    1  A    between atoms: C_1  and  N_2
REMARK    2  A    between atoms: C_20  and  C_21
REMARK                            x       y       z     vdW  Elec       q    Type
REMARK                         _______ _______ _______ _____ _____    ______ ____
ROOT
ATOM      1  C   UNL     1       7.943  -3.826  23.320  0.00  0.00    +0.105 C 
ATOM      2  N   UNL     1       7.656  -2.657  22.492  0.00  0.00    -0.298 NA
ATOM      3  C   UNL     1       8.882  -1.891  22.175  0.00  0.00    +0.128 C 
ATOM      4  C   UNL     1       9.509  -1.140  23.370  0.00  0.00    +0.241 C 
ATOM      5  N   UNL     1       8.523  -0.292  24.063  0.00  0.00    -0.218 N 
ATOM      6  C   UNL     1       8.743   1.078  24.181  0.00  0.00    +0.324 C 
ATOM      7  C   UNL     1       7.938   1.749  25.205  0.00  0.00    +0.094 A 
ATOM      8  C   UNL     1       7.609   1.248  26.516  0.00  0.00    +0.028 A 
ATOM      9  C   UNL     1       6.763   2.080  27.217  0.00  0.00    -0.011 A 
ATOM     10  S   UNL     1       6.354   3.460  26.301  0.00  0.00    -0.078 S 
ATOM     11  C   UNL     1       6.213   1.912  28.589  0.00  0.00    +0.051 C 
ATOM     12  C   UNL     1       7.407   3.014  25.030  0.00  0.00    +0.085 A 
ATOM     13  N   UNL     1       7.673   3.889  24.026  0.00  0.00    -0.305 N 
ATOM     14  H   UNL     1       7.156   4.760  24.065  0.00  0.00    +0.153 HD
ATOM     15  C   UNL     1       9.049   4.112  23.735  0.00  0.00    +0.083 A 
ATOM     16  C   UNL     1       9.960   3.049  23.540  0.00  0.00    +0.197 A 
ATOM     17  C   UNL     1      11.318   3.359  23.360  0.00  0.00    +0.057 A 
ATOM     18  C   UNL     1      11.782   4.673  23.412  0.00  0.00    +0.004 A 
ATOM     19  C   UNL     1      10.886   5.712  23.622  0.00  0.00    +0.002 A 
ATOM     20  C   UNL     1       9.526   5.435  23.768  0.00  0.00    +0.027 A 
ATOM     21  N   UNL     1       9.629   1.685  23.449  0.00  0.00    -0.040 NA
ATOM     22  C   UNL     1       7.250  -0.967  24.365  0.00  0.00    +0.241 C 
ATOM     23  C   UNL     1       6.701  -1.743  23.146  0.00  0.00    +0.128 C 
ENDROOT
TORSDOF 0
ENDMDL
MODEL 2
REMARK VINA RESULT:      -6.5      2.695      3.972
REMARK  Name = 
REMARK  2 active torsions:
REMARK  status: ('A' for Active; 'I' for Inactive)
REMARK    1  A    between atoms: C_1  and  N_2
REMARK    2  A    between atoms: C_20  and  C_21
REMARK                            x       y       z     vdW  Elec       q    Type
REMARK                         _______ _______ _______ _____ _____    ______ ____
ROOT
ATOM      1  C   UNL     1       4.545  -6.771  24.154  0.00  0.00    +0.105 C 
ATOM      2  N   UNL     1       4.374  -5.718  23.155  0.00  0.00    -0.298 NA
ATOM      3  C   UNL     1       5.653  -5.371  22.497  0.00  0.00    +0.128 C 
ATOM      4  C   UNL     1       6.669  -4.631  23.394  0.00  0.00    +0.241 C 
ATOM      5  N   UNL     1       6.072  -3.450  24.041  0.00  0.00    -0.218 N 
ATOM      6  C   UNL     1       6.624  -2.187  23.832  0.00  0.00    +0.324 C 
ATOM      7  C   UNL     1       6.225  -1.169  24.807  0.00  0.00    +0.094 A 
ATOM      8  C   UNL     1       6.065  -1.343  26.228  0.00  0.00    +0.028 A 
ATOM      9  C   UNL     1       5.598  -0.212  26.863  0.00  0.00    -0.011 A 
ATOM     10  S   UNL     1       5.343   1.059  25.755  0.00  0.00    -0.078 S 
ATOM     11  C   UNL     1       5.318  -0.001  28.310  0.00  0.00    +0.051 C 
ATOM     12  C   UNL     1       5.979   0.147  24.457  0.00  0.00    +0.085 A 
ATOM     13  N   UNL     1       6.230   0.743  23.262  0.00  0.00    -0.305 N 
ATOM     14  H   UNL     1       5.949   1.715  23.198  0.00  0.00    +0.153 HD
ATOM     15  C   UNL     1       7.530   0.539  22.718  0.00  0.00    +0.083 A 
ATOM     16  C   UNL     1       8.109  -0.746  22.610  0.00  0.00    +0.197 A 
ATOM     17  C   UNL     1       9.435  -0.845  22.158  0.00  0.00    +0.057 A 
ATOM     18  C   UNL     1      10.193   0.287  21.860  0.00  0.00    +0.004 A 
ATOM     19  C   UNL     1       9.626   1.548  21.986  0.00  0.00    +0.002 A 
ATOM     20  C   UNL     1       8.299   1.673  22.398  0.00  0.00    +0.027 A 
ATOM     21  N   UNL     1       7.458  -1.968  22.860  0.00  0.00    -0.040 NA
ATOM     22  C   UNL     1       4.766  -3.700  24.673  0.00  0.00    +0.241 C 
ATOM     23  C   UNL     1       3.813  -4.487  23.745  0.00  0.00    +0.128 C 
ENDROOT
TORSDOF 0
ENDMDL
MODEL 3
REMARK VINA RESULT:      -6.4      2.557      6.788
REMARK  Name = 
REMARK  2 active torsions:
REMARK  status: ('A' for Active; 'I' for Inactive)
REMARK    1  A    between atoms: C_1  and  N_2
REMARK    2  A    between atoms: C_20  and  C_21
REMARK                            x       y       z     vdW  Elec       q    Type
REMARK                         _______ _______ _______ _____ _____    ______ ____
ROOT
ATOM      1  C   UNL     1       9.991   2.799  23.615  0.00  0.00    +0.105 C 
ATOM      2  N   UNL     1      10.529   1.441  23.651  0.00  0.00    -0.298 NA
ATOM      3  C   UNL     1      10.085   0.642  22.488  0.00  0.00    +0.128 C 
ATOM      4  C   UNL     1       8.588   0.263  22.490  0.00  0.00    +0.241 C 
ATOM      5  N   UNL     1       8.186  -0.378  23.754  0.00  0.00    -0.218 N 
ATOM      6  C   UNL     1       7.637  -1.658  23.743  0.00  0.00    +0.324 C 
ATOM      7  C   UNL     1       6.917  -2.034  24.962  0.00  0.00    +0.094 A 
ATOM      8  C   UNL     1       6.048  -1.197  25.751  0.00  0.00    +0.028 A 
ATOM      9  C   UNL     1       5.585  -1.818  26.890  0.00  0.00    -0.011 A 
ATOM     10  S   UNL     1       6.196  -3.405  27.022  0.00  0.00    -0.078 S 
ATOM     11  C   UNL     1       4.671  -1.287  27.938  0.00  0.00    +0.051 C 
ATOM     12  C   UNL     1       6.967  -3.308  25.499  0.00  0.00    +0.085 A 
ATOM     13  N   UNL     1       7.499  -4.421  24.931  0.00  0.00    -0.305 N 
ATOM     14  H   UNL     1       7.459  -5.258  25.504  0.00  0.00    +0.153 HD
ATOM     15  C   UNL     1       7.109  -4.691  23.588  0.00  0.00    +0.083 A 
ATOM     16  C   UNL     1       7.166  -3.706  22.576  0.00  0.00    +0.197 A 
ATOM     17  C   UNL     1       6.665  -4.027  21.304  0.00  0.00    +0.057 A 
ATOM     18  C   UNL     1       6.083  -5.267  21.038  0.00  0.00    +0.004 A 
ATOM     19  C   UNL     1       6.013  -6.224  22.041  0.00  0.00    +0.002 A 
ATOM     20  C   UNL     1       6.535  -5.944  23.304  0.00  0.00    +0.027 A 
ATOM     21  N   UNL     1       7.738  -2.427  22.700  0.00  0.00    -0.040 NA
ATOM     22  C   UNL     1       8.639   0.330  24.963  0.00  0.00    +0.241 C 
ATOM     23  C   UNL     1      10.131   0.726  24.879  0.00  0.00    +0.128 C 
ENDROOT
TORSDOF 0
ENDMDL
MODEL 4
REMARK VINA RESULT:      -6.1      2.986      5.443
REMARK  Name = 
REMARK  2 active torsions:
REMARK  status: ('A' for Active; 'I' for Inactive)
REMARK    1  A    between atoms: C_1  and  N_2
REMARK    2  A    between atoms: C_20  and  C_21
REMARK                            x       y       z     vdW  Elec       q    Type
REMARK                         _______ _______ _______ _____ _____    ______ ____
ROOT
ATOM      1  C   UNL     1       6.067  -5.645  21.544  0.00  0.00    +0.105 C 
ATOM      2  N   UNL     1       6.632  -5.621  22.892  0.00  0.00    -0.298 NA
ATOM      3  C   UNL     1       5.673  -5.081  23.881  0.00  0.00    +0.128 C 
ATOM      4  C   UNL     1       5.389  -3.569  23.756  0.00  0.00    +0.241 C 
ATOM      5  N   UNL     1       6.632  -2.777  23.741  0.00  0.00    -0.218 N 
ATOM      6  C   UNL     1       6.844  -1.794  24.705  0.00  0.00    +0.324 C 
ATOM      7  C   UNL     1       7.886  -0.817  24.375  0.00  0.00    +0.094 A 
ATOM      8  C   UNL     1       8.143  -0.225  23.087  0.00  0.00    +0.028 A 
ATOM      9  C   UNL     1       9.249   0.598  23.081  0.00  0.00    -0.011 A 
ATOM     10  S   UNL     1       9.987   0.655  24.618  0.00  0.00    -0.078 S 
ATOM     11  C   UNL     1       9.821   1.385  21.955  0.00  0.00    +0.051 C 
ATOM     12  C   UNL     1       8.758  -0.306  25.319  0.00  0.00    +0.085 A 
ATOM     13  N   UNL     1       8.695  -0.455  26.667  0.00  0.00    -0.305 N 
ATOM     14  H   UNL     1       9.452  -0.022  27.185  0.00  0.00    +0.153 HD
ATOM     15  C   UNL     1       7.433  -0.192  27.271  0.00  0.00    +0.083 A 
ATOM     16  C   UNL     1       6.232  -0.760  26.787  0.00  0.00    +0.197 A 
ATOM     17  C   UNL     1       5.021  -0.364  27.377  0.00  0.00    +0.057 A 
ATOM     18  C   UNL     1       4.978   0.597  28.387  0.00  0.00    +0.004 A 
ATOM     19  C   UNL     1       6.158   1.166  28.846  0.00  0.00    +0.002 A 
ATOM     20  C   UNL     1       7.379   0.764  28.302  0.00  0.00    +0.027 A 
ATOM     21  N   UNL     1       6.130  -1.747  25.790  0.00  0.00    -0.040 NA
ATOM     22  C   UNL     1       7.662  -3.284  22.819  0.00  0.00    +0.241 C 
ATOM     23  C   UNL     1       7.863  -4.810  22.956  0.00  0.00    +0.128 C 
ENDROOT
TORSDOF 0
ENDMDL
MODEL 5
REMARK VINA RESULT:      -6.1      2.451      4.490
REMARK  Name = 
REMARK  2 active torsions:
REMARK  status: ('A' for Active; 'I' for Inactive)
REMARK    1  A    between atoms: C_1  and  N_2
REMARK    2  A    between atoms: C_20  and  C_21
REMARK                            x       y       z     vdW  Elec       q    Type
REMARK                         _______ _______ _______ _____ _____    ______ ____
ROOT
ATOM      1  C   UNL     1       9.944  -1.948  23.767  0.00  0.00    +0.105 C 
ATOM      2  N   UNL     1       9.262  -1.108  24.750  0.00  0.00    -0.298 NA
ATOM      3  C   UNL     1       8.023  -0.514  24.201  0.00  0.00    +0.128 C 
ATOM      4  C   UNL     1       8.240   0.573  23.127  0.00  0.00    +0.241 C 
ATOM      5  N   UNL     1       9.168   1.621  23.587  0.00  0.00    -0.218 N 
ATOM      6  C   UNL     1       8.751   2.950  23.631  0.00  0.00    +0.324 C 
ATOM      7  C   UNL     1       9.833   3.936  23.709  0.00  0.00    +0.094 A 
ATOM      8  C   UNL     1      11.093   3.899  23.011  0.00  0.00    +0.028 A 
ATOM      9  C   UNL     1      11.936   4.931  23.360  0.00  0.00    -0.011 A 
ATOM     10  S   UNL     1      11.222   5.944  24.532  0.00  0.00    -0.078 S 
ATOM     11  C   UNL     1      13.303   5.233  22.854  0.00  0.00    +0.051 C 
ATOM     12  C   UNL     1       9.745   5.085  24.474  0.00  0.00    +0.085 A 
ATOM     13  N   UNL     1       8.644   5.577  25.099  0.00  0.00    -0.305 N 
ATOM     14  H   UNL     1       8.796   6.424  25.636  0.00  0.00    +0.153 HD
ATOM     15  C   UNL     1       7.460   5.664  24.313  0.00  0.00    +0.083 A 
ATOM     16  C   UNL     1       6.984   4.577  23.544  0.00  0.00    +0.197 A 
ATOM     17  C   UNL     1       5.868   4.782  22.717  0.00  0.00    +0.057 A 
ATOM     18  C   UNL     1       5.256   6.031  22.610  0.00  0.00    +0.004 A 
ATOM     19  C   UNL     1       5.739   7.100  23.353  0.00  0.00    +0.002 A 
ATOM     20  C   UNL     1       6.824   6.915  24.209  0.00  0.00    +0.027 A 
ATOM     21  N   UNL     1       7.492   3.265  23.567  0.00  0.00    -0.040 NA
ATOM     22  C   UNL     1      10.405   1.109  24.198  0.00  0.00    +0.241 C 
ATOM     23  C   UNL     1      10.125  -0.011  25.226  0.00  0.00    +0.128 C 
ENDROOT
TORSDOF 0
ENDMDL
MODEL 6
REMARK VINA RESULT:      -6.0      4.405      8.626
REMARK  Name = 
REMARK  2 active torsions:
REMARK  status: ('A' for Active; 'I' for Inactive)
REMARK    1  A    between atoms: C_1  and  N_2
REMARK    2  A    between atoms: C_20  and  C_21
REMARK                            x       y       z     vdW  Elec       q    Type
REMARK                         _______ _______ _______ _____ _____    ______ ____
ROOT
ATOM      1  C   UNL     1      10.052   0.195  24.599  0.00  0.00    +0.105 C 
ATOM      2  N   UNL     1       8.694   0.223  25.141  0.00  0.00    -0.298 NA
ATOM      3  C   UNL     1       8.594  -0.526  26.413  0.00  0.00    +0.128 C 
ATOM      4  C   UNL     1       8.724  -2.059  26.279  0.00  0.00    +0.241 C 
ATOM      5  N   UNL     1       7.795  -2.603  25.272  0.00  0.00    -0.218 N 
ATOM      6  C   UNL     1       6.857  -3.567  25.637  0.00  0.00    +0.324 C 
ATOM      7  C   UNL     1       6.274  -4.316  24.522  0.00  0.00    +0.094 A 
ATOM      8  C   UNL     1       6.957  -4.798  23.347  0.00  0.00    +0.028 A 
ATOM      9  C   UNL     1       6.113  -5.397  22.438  0.00  0.00    -0.011 A 
ATOM     10  S   UNL     1       4.498  -5.377  22.985  0.00  0.00    -0.078 S 
ATOM     11  C   UNL     1       6.443  -6.017  21.125  0.00  0.00    +0.051 C 
ATOM     12  C   UNL     1       4.943  -4.692  24.487  0.00  0.00    +0.085 A 
ATOM     13  N   UNL     1       4.037  -4.612  25.496  0.00  0.00    -0.305 N 
ATOM     14  H   UNL     1       3.099  -4.917  25.258  0.00  0.00    +0.153 HD
ATOM     15  C   UNL     1       4.450  -5.132  26.755  0.00  0.00    +0.083 A 
ATOM     16  C   UNL     1       5.684  -4.780  27.348  0.00  0.00    +0.197 A 
ATOM     17  C   UNL     1       6.059  -5.419  28.541  0.00  0.00    +0.057 A 
ATOM     18  C   UNL     1       5.266  -6.411  29.119  0.00  0.00    +0.004 A 
ATOM     19  C   UNL     1       4.064  -6.767  28.523  0.00  0.00    +0.002 A 
ATOM     20  C   UNL     1       3.652  -6.122  27.357  0.00  0.00    +0.027 A 
ATOM     21  N   UNL     1       6.569  -3.790  26.884  0.00  0.00    -0.040 NA
ATOM     22  C   UNL     1       7.795  -1.875  23.992  0.00  0.00    +0.241 C 
ATOM     23  C   UNL     1       7.715  -0.344  24.195  0.00  0.00    +0.128 C 
ENDROOT
TORSDOF 0
ENDMDL
MODEL 7
REMARK VINA RESULT:      -6.0      3.168      7.152
REMARK  Name = 
REMARK  2 active torsions:
REMARK  status: ('A' for Active; 'I' for Inactive)
REMARK    1  A    between atoms: C_1  and  N_2
REMARK    2  A    between atoms: C_20  and  C_21
REMARK                            x       y       z     vdW  Elec       q    Type
REMARK                         _______ _______ _______ _____ _____    ______ ____
ROOT
ATOM      1  C   UNL     1      10.070   0.820  22.275  0.00  0.00    +0.105 C 
ATOM      2  N   UNL     1      10.324  -0.312  23.165  0.00  0.00    -0.298 NA
ATOM      3  C   UNL     1       9.822  -1.582  22.596  0.00  0.00    +0.128 C 
ATOM      4  C   UNL     1       8.285  -1.711  22.543  0.00  0.00    +0.241 C 
ATOM      5  N   UNL     1       7.666  -1.440  23.852  0.00  0.00    -0.218 N 
ATOM      6  C   UNL     1       6.876  -2.411  24.465  0.00  0.00    +0.324 C 
ATOM      7  C   UNL     1       6.003  -1.916  25.532  0.00  0.00    +0.094 A 
ATOM      8  C   UNL     1       5.259  -0.681  25.542  0.00  0.00    +0.028 A 
ATOM      9  C   UNL     1       4.594  -0.460  26.728  0.00  0.00    -0.011 A 
ATOM     10  S   UNL     1       4.866  -1.728  27.837  0.00  0.00    -0.078 S 
ATOM     11  C   UNL     1       3.724   0.685  27.112  0.00  0.00    +0.051 C 
ATOM     12  C   UNL     1       5.757  -2.630  26.690  0.00  0.00    +0.085 A 
ATOM     13  N   UNL     1       6.100  -3.918  26.953  0.00  0.00    -0.305 N 
ATOM     14  H   UNL     1       5.851  -4.250  27.879  0.00  0.00    +0.153 HD
ATOM     15  C   UNL     1       5.772  -4.874  25.951  0.00  0.00    +0.083 A 
ATOM     16  C   UNL     1       6.102  -4.683  24.590  0.00  0.00    +0.197 A 
ATOM     17  C   UNL     1       5.648  -5.626  23.653  0.00  0.00    +0.057 A 
ATOM     18  C   UNL     1       4.855  -6.709  24.032  0.00  0.00    +0.004 A 
ATOM     19  C   UNL     1       4.518  -6.883  25.367  0.00  0.00    +0.002 A 
ATOM     20  C   UNL     1       4.985  -5.980  26.323  0.00  0.00    +0.027 A 
ATOM     21  N   UNL     1       6.904  -3.649  24.073  0.00  0.00    -0.040 NA
ATOM     22  C   UNL     1       8.154  -0.217  24.511  0.00  0.00    +0.241 C 
ATOM     23  C   UNL     1       9.697  -0.122  24.487  0.00  0.00    +0.128 C 
ENDROOT
TORSDOF 0
ENDMDL
MODEL 8
REMARK VINA RESULT:      -5.9      3.281      4.613
REMARK  Name = 
REMARK  2 active torsions:
REMARK  status: ('A' for Active; 'I' for Inactive)
REMARK    1  A    between atoms: C_1  and  N_2
REMARK    2  A    between atoms: C_20  and  C_21
REMARK                            x       y       z     vdW  Elec       q    Type
REMARK                         _______ _______ _______ _____ _____    ______ ____
ROOT
ATOM      1  C   UNL     1       5.727  -5.880  28.681  0.00  0.00    +0.105 C 
ATOM      2  N   UNL     1       5.435  -5.663  27.265  0.00  0.00    -0.298 NA
ATOM      3  C   UNL     1       6.667  -5.642  26.446  0.00  0.00    +0.128 C 
ATOM      4  C   UNL     1       7.568  -4.406  26.655  0.00  0.00    +0.241 C 
ATOM      5  N   UNL     1       6.816  -3.147  26.508  0.00  0.00    -0.218 N 
ATOM      6  C   UNL     1       7.203  -2.211  25.552  0.00  0.00    +0.324 C 
ATOM      7  C   UNL     1       6.665  -0.863  25.751  0.00  0.00    +0.094 A 
ATOM      8  C   UNL     1       6.510  -0.166  27.003  0.00  0.00    +0.028 A 
ATOM      9  C   UNL     1       5.894   1.059  26.869  0.00  0.00    -0.011 A 
ATOM     10  S   UNL     1       5.491   1.374  25.241  0.00  0.00    -0.078 S 
ATOM     11  C   UNL     1       5.571   2.062  27.920  0.00  0.00    +0.051 C 
ATOM     12  C   UNL     1       6.256  -0.058  24.704  0.00  0.00    +0.085 A 
ATOM     13  N   UNL     1       6.443  -0.273  23.376  0.00  0.00    -0.305 N 
ATOM     14  H   UNL     1       6.040   0.428  22.764  0.00  0.00    +0.153 HD
ATOM     15  C   UNL     1       7.765  -0.618  22.974  0.00  0.00    +0.083 A 
ATOM     16  C   UNL     1       8.506  -1.637  23.615  0.00  0.00    +0.197 A 
ATOM     17  C   UNL     1       9.839  -1.840  23.224  0.00  0.00    +0.057 A 
ATOM     18  C   UNL     1      10.449  -1.038  22.259  0.00  0.00    +0.004 A 
ATOM     19  C   UNL     1       9.723  -0.026  21.646  0.00  0.00    +0.002 A 
ATOM     20  C   UNL     1       8.386   0.174  21.991  0.00  0.00    +0.027 A 
ATOM     21  N   UNL     1       8.014  -2.527  24.587  0.00  0.00    -0.040 NA
ATOM     22  C   UNL     1       5.545  -3.111  27.251  0.00  0.00    +0.241 C 
ATOM     23  C   UNL     1       4.713  -4.396  27.042  0.00  0.00    +0.128 C 
ENDROOT
TORSDOF 0
ENDMDL
MODEL 9
REMARK VINA RESULT:      -5.9      2.530      6.619
REMARK  Name = 
REMARK  2 active torsions:
REMARK  status: ('A' for Active; 'I' for Inactive)
REMARK    1  A    between atoms: C_1  and  N_2
REMARK    2  A    between atoms: C_20  and  C_21
REMARK                            x       y       z     vdW  Elec       q    Type
REMARK                         _______ _______ _______ _____ _____    ______ ____
ROOT
ATOM      1  C   UNL     1       7.984   3.898  23.125  0.00  0.00    +0.105 C 
ATOM      2  N   UNL     1       8.854   2.725  23.174  0.00  0.00    -0.298 NA
ATOM      3  C   UNL     1       8.547   1.767  22.088  0.00  0.00    +0.128 C 
ATOM      4  C   UNL     1       7.202   1.024  22.234  0.00  0.00    +0.241 C 
ATOM      5  N   UNL     1       7.069   0.384  23.554  0.00  0.00    -0.218 N 
ATOM      6  C   UNL     1       6.867  -0.992  23.644  0.00  0.00    +0.324 C 
ATOM      7  C   UNL     1       6.357  -1.459  24.936  0.00  0.00    +0.094 A 
ATOM      8  C   UNL     1       5.361  -0.820  25.759  0.00  0.00    +0.028 A 
ATOM      9  C   UNL     1       5.156  -1.464  26.959  0.00  0.00    -0.011 A 
ATOM     10  S   UNL     1       6.161  -2.834  27.107  0.00  0.00    -0.078 S 
ATOM     11  C   UNL     1       4.214  -1.116  28.057  0.00  0.00    +0.051 C 
ATOM     12  C   UNL     1       6.770  -2.643  25.520  0.00  0.00    +0.085 A 
ATOM     13  N   UNL     1       7.528  -3.619  24.958  0.00  0.00    -0.305 N 
ATOM     14  H   UNL     1       7.745  -4.401  25.567  0.00  0.00    +0.153 HD
ATOM     15  C   UNL     1       7.125  -4.063  23.666  0.00  0.00    +0.083 A 
ATOM     16  C   UNL     1       6.855  -3.162  22.610  0.00  0.00    +0.197 A 
ATOM     17  C   UNL     1       6.363  -3.678  21.401  0.00  0.00    +0.057 A 
ATOM     18  C   UNL     1       6.101  -5.039  21.239  0.00  0.00    +0.004 A 
ATOM     19  C   UNL     1       6.351  -5.917  22.284  0.00  0.00    +0.002 A 
ATOM     20  C   UNL     1       6.873  -5.435  23.485  0.00  0.00    +0.027 A 
ATOM     21  N   UNL     1       7.087  -1.774  22.631  0.00  0.00    -0.040 NA
ATOM     22  C   UNL     1       7.411   1.258  24.688  0.00  0.00    +0.241 C 
ATOM     23  C   UNL     1       8.741   2.012  24.460  0.00  0.00    +0.128 C 
ENDROOT
TORSDOF 0
ENDMDL
