MODEL 1
REMARK VINA RESULT:      -5.7      0.000      0.000
REMARK  Name = 
REMARK  12 active torsions:
REMARK  status: ('A' for Active; 'I' for Inactive)
REMARK    1  A    between atoms: C_2  and  C_3
REMARK    2  A    between atoms: C_2  and  N_7
REMARK    3  A    between atoms: C_2  and  C_11
REMARK    4  A    between atoms: C_3  and  C_4
REMARK    5  A    between atoms: C_4  and  C_5
REMARK    6  A    between atoms: C_4  and  C_6
REMARK    7  A    between atoms: C_8  and  C_9
REMARK    8  A    between atoms: C_14  and  C_23
REMARK    9  A    between atoms: C_17  and  C_19
REMARK   10  A    between atoms: C_19  and  O_21
REMARK   11  A    between atoms: O_21  and  C_22
REMARK   12  A    between atoms: C_23  and  O_24
REMARK                            x       y       z     vdW  Elec       q    Type
REMARK                         _______ _______ _______ _____ _____    ______ ____
ROOT
ATOM      1  C   UNL     1       7.994  -4.193  24.337  0.00  0.00    +0.153 C 
ATOM      2  C   UNL     1       6.609  -4.352  24.967  0.00  0.00    +0.131 C 
ATOM      3  C   UNL     1       5.639  -4.578  23.820  0.00  0.00    +0.060 C 
ATOM      4  C   UNL     1       6.492  -4.566  22.573  0.00  0.00    +0.227 C 
ATOM      5  O   UNL     1       7.854  -4.718  22.997  0.00  0.00    -0.360 OA
ENDROOT
BRANCH   2   6
ATOM      6  C   UNL     1       6.654  -5.537  25.898  0.00  0.00    +0.313 C 
ATOM      7  O   UNL     1       7.565  -5.772  26.682  0.00  0.00    -0.250 OA
BRANCH   6   8
ATOM      8  O   UNL     1       5.532  -6.291  25.754  0.00  0.00    -0.468 OA
ATOM      9  C   UNL     1       4.927  -6.670  26.991  0.00  0.00    +0.280 C 
ENDBRANCH   6   8
ENDBRANCH   2   6
BRANCH   4  10
ATOM     10  C   UNL     1       6.128  -5.661  21.575  0.00  0.00    +0.334 C 
ATOM     11  O   UNL     1       5.954  -5.479  20.380  0.00  0.00    -0.248 OA
BRANCH  10  12
ATOM     12  O   UNL     1       6.064  -6.885  22.159  0.00  0.00    -0.479 OA
ATOM     13  H   UNL     1       6.982  -7.229  22.260  0.00  0.00    +0.295 HD
ENDBRANCH  10  12
ENDBRANCH   4  10
BRANCH   1  14
ATOM     14  C   UNL     1       8.498  -2.714  24.315  0.00  0.00    +0.103 C 
BRANCH  14  15
ATOM     15  N   UNL     1       8.321  -2.028  25.606  0.00  0.00    -0.310 N 
ATOM     16  H   UNL     1       8.464  -2.572  26.449  0.00  0.00    +0.149 HD
ATOM     17  C   UNL     1       7.696  -0.804  25.741  0.00  0.00    +0.210 C 
ATOM     18  O   UNL     1       7.263  -0.153  24.797  0.00  0.00    -0.276 OA
ATOM     19  C   UNL     1       7.578  -0.329  27.167  0.00  0.00    +0.109 C 
ENDBRANCH  14  15
BRANCH  14  20
ATOM     20  C   UNL     1       9.966  -2.550  23.833  0.00  0.00    +0.028 C 
BRANCH  20  21
ATOM     21  C   UNL     1      10.234  -1.500  22.737  0.00  0.00    -0.015 C 
ATOM     22  C   UNL     1      10.519  -0.132  23.360  0.00  0.00    +0.007 C 
ATOM     23  C   UNL     1       9.075  -1.375  21.749  0.00  0.00    +0.007 C 
ENDBRANCH  20  21
ENDBRANCH  14  20
ENDBRANCH   1  14
TORSDOF 8
ENDMDL
MODEL 2
REMARK VINA RESULT:      -5.6      1.872      3.882
REMARK  Name = 
REMARK  12 active torsions:
REMARK  status: ('A' for Active; 'I' for Inactive)
REMARK    1  A    between atoms: C_2  and  C_3
REMARK    2  A    between atoms: C_2  and  N_7
REMARK    3  A    between atoms: C_2  and  C_11
REMARK    4  A    between atoms: C_3  and  C_4
REMARK    5  A    between atoms: C_4  and  C_5
REMARK    6  A    between atoms: C_4  and  C_6
REMARK    7  A    between atoms: C_8  and  C_9
REMARK    8  A    between atoms: C_14  and  C_23
REMARK    9  A    between atoms: C_17  and  C_19
REMARK   10  A    between atoms: C_19  and  O_21
REMARK   11  A    between atoms: O_21  and  C_22
REMARK   12  A    between atoms: C_23  and  O_24
REMARK                            x       y       z     vdW  Elec       q    Type
REMARK                         _______ _______ _______ _____ _____    ______ ____
ROOT
ATOM      1  C   UNL     1       7.309  -2.937  23.428  0.00  0.00    +0.153 C 
ATOM      2  C   UNL     1       7.431  -4.221  22.605  0.00  0.00    +0.131 C 
ATOM      3  C   UNL     1       7.870  -5.309  23.570  0.00  0.00    +0.060 C 
ATOM      4  C   UNL     1       7.963  -4.630  24.916  0.00  0.00    +0.227 C 
ATOM      5  O   UNL     1       7.265  -3.382  24.803  0.00  0.00    -0.360 OA
ENDROOT
BRANCH   2   6
ATOM      6  C   UNL     1       6.081  -4.521  22.006  0.00  0.00    +0.313 C 
ATOM      7  O   UNL     1       5.572  -3.891  21.087  0.00  0.00    -0.250 OA
BRANCH   6   8
ATOM      8  O   UNL     1       5.523  -5.598  22.619  0.00  0.00    -0.468 OA
ATOM      9  C   UNL     1       4.216  -5.355  23.140  0.00  0.00    +0.280 C 
ENDBRANCH   6   8
ENDBRANCH   2   6
BRANCH   4  10
ATOM     10  C   UNL     1       7.380  -5.456  26.058  0.00  0.00    +0.334 C 
ATOM     11  O   UNL     1       6.274  -5.975  26.043  0.00  0.00    -0.248 OA
BRANCH  10  12
ATOM     12  O   UNL     1       8.253  -5.592  27.089  0.00  0.00    -0.479 OA
ATOM     13  H   UNL     1       8.562  -4.694  27.353  0.00  0.00    +0.295 HD
ENDBRANCH  10  12
ENDBRANCH   4  10
BRANCH   1  14
ATOM     14  C   UNL     1       8.487  -1.936  23.195  0.00  0.00    +0.103 C 
BRANCH  14  15
ATOM     15  N   UNL     1       8.033  -0.617  22.722  0.00  0.00    -0.310 N 
ATOM     16  H   UNL     1       7.052  -0.390  22.840  0.00  0.00    +0.149 HD
ATOM     17  C   UNL     1       8.773   0.189  21.881  0.00  0.00    +0.210 C 
ATOM     18  O   UNL     1       9.894  -0.098  21.476  0.00  0.00    -0.276 OA
ATOM     19  C   UNL     1       8.078   1.467  21.485  0.00  0.00    +0.109 C 
ENDBRANCH  14  15
BRANCH  14  20
ATOM     20  C   UNL     1       9.422  -1.758  24.422  0.00  0.00    +0.028 C 
BRANCH  20  21
ATOM     21  C   UNL     1       9.268  -0.463  25.243  0.00  0.00    -0.015 C 
ATOM     22  C   UNL     1      10.533   0.393  25.140  0.00  0.00    +0.007 C 
ATOM     23  C   UNL     1       8.960  -0.735  26.714  0.00  0.00    +0.007 C 
ENDBRANCH  20  21
ENDBRANCH  14  20
ENDBRANCH   1  14
TORSDOF 8
ENDMDL
MODEL 3
REMARK VINA RESULT:      -5.6      1.258      1.331
REMARK  Name = 
REMARK  12 active torsions:
REMARK  status: ('A' for Active; 'I' for Inactive)
REMARK    1  A    between atoms: C_2  and  C_3
REMARK    2  A    between atoms: C_2  and  N_7
REMARK    3  A    between atoms: C_2  and  C_11
REMARK    4  A    between atoms: C_3  and  C_4
REMARK    5  A    between atoms: C_4  and  C_5
REMARK    6  A    between atoms: C_4  and  C_6
REMARK    7  A    between atoms: C_8  and  C_9
REMARK    8  A    between atoms: C_14  and  C_23
REMARK    9  A    between atoms: C_17  and  C_19
REMARK   10  A    between atoms: C_19  and  O_21
REMARK   11  A    between atoms: O_21  and  C_22
REMARK   12  A    between atoms: C_23  and  O_24
REMARK                            x       y       z     vdW  Elec       q    Type
REMARK                         _______ _______ _______ _____ _____    ______ ____
ROOT
ATOM      1  C   UNL     1       8.275  -3.627  23.809  0.00  0.00    +0.153 C 
ATOM      2  C   UNL     1       7.221  -4.123  24.800  0.00  0.00    +0.131 C 
ATOM      3  C   UNL     1       6.033  -4.580  23.971  0.00  0.00    +0.060 C 
ATOM      4  C   UNL     1       6.444  -4.357  22.535  0.00  0.00    +0.227 C 
ATOM      5  O   UNL     1       7.866  -4.169  22.532  0.00  0.00    -0.360 OA
ENDROOT
BRANCH   2   6
ATOM      6  C   UNL     1       7.821  -5.261  25.586  0.00  0.00    +0.313 C 
ATOM      7  O   UNL     1       9.011  -5.548  25.597  0.00  0.00    -0.250 OA
BRANCH   6   8
ATOM      8  O   UNL     1       6.854  -5.905  26.293  0.00  0.00    -0.468 OA
ATOM      9  C   UNL     1       6.685  -5.412  27.623  0.00  0.00    +0.280 C 
ENDBRANCH   6   8
ENDBRANCH   2   6
BRANCH   4  10
ATOM     10  C   UNL     1       6.066  -5.507  21.606  0.00  0.00    +0.334 C 
ATOM     11  O   UNL     1       5.929  -5.405  20.397  0.00  0.00    -0.248 OA
BRANCH  10  12
ATOM     12  O   UNL     1       5.942  -6.683  22.273  0.00  0.00    -0.479 OA
ATOM     13  H   UNL     1       5.588  -7.358  21.649  0.00  0.00    +0.295 HD
ENDBRANCH  10  12
ENDBRANCH   4  10
BRANCH   1  14
ATOM     14  C   UNL     1       8.386  -2.068  23.752  0.00  0.00    +0.103 C 
BRANCH  14  15
ATOM     15  N   UNL     1       7.404  -1.391  24.616  0.00  0.00    -0.310 N 
ATOM     16  H   UNL     1       7.149  -1.849  25.483  0.00  0.00    +0.149 HD
ATOM     17  C   UNL     1       6.605  -0.349  24.191  0.00  0.00    +0.210 C 
ATOM     18  O   UNL     1       6.661   0.139  23.068  0.00  0.00    -0.276 OA
ATOM     19  C   UNL     1       5.633   0.145  25.234  0.00  0.00    +0.109 C 
ENDBRANCH  14  15
BRANCH  14  20
ATOM     20  C   UNL     1       9.809  -1.521  24.050  0.00  0.00    +0.028 C 
BRANCH  20  21
ATOM     21  C   UNL     1      10.352  -0.424  23.113  0.00  0.00    -0.015 C 
ATOM     22  C   UNL     1      10.110   0.963  23.714  0.00  0.00    +0.007 C 
ATOM     23  C   UNL     1       9.733  -0.485  21.718  0.00  0.00    +0.007 C 
ENDBRANCH  20  21
ENDBRANCH  14  20
ENDBRANCH   1  14
TORSDOF 8
ENDMDL
MODEL 4
REMARK VINA RESULT:      -5.6      2.729      5.842
REMARK  Name = 
REMARK  12 active torsions:
REMARK  status: ('A' for Active; 'I' for Inactive)
REMARK    1  A    between atoms: C_2  and  C_3
REMARK    2  A    between atoms: C_2  and  N_7
REMARK    3  A    between atoms: C_2  and  C_11
REMARK    4  A    between atoms: C_3  and  C_4
REMARK    5  A    between atoms: C_4  and  C_5
REMARK    6  A    between atoms: C_4  and  C_6
REMARK    7  A    between atoms: C_8  and  C_9
REMARK    8  A    between atoms: C_14  and  C_23
REMARK    9  A    between atoms: C_17  and  C_19
REMARK   10  A    between atoms: C_19  and  O_21
REMARK   11  A    between atoms: O_21  and  C_22
REMARK   12  A    between atoms: C_23  and  O_24
REMARK                            x       y       z     vdW  Elec       q    Type
REMARK                         _______ _______ _______ _____ _____    ______ ____
ROOT
ATOM      1  C   UNL     1       8.166  -1.496  23.814  0.00  0.00    +0.153 C 
ATOM      2  C   UNL     1       9.406  -1.100  24.616  0.00  0.00    +0.131 C 
ATOM      3  C   UNL     1      10.297  -0.314  23.670  0.00  0.00    +0.060 C 
ATOM      4  C   UNL     1       9.538  -0.260  22.365  0.00  0.00    +0.227 C 
ATOM      5  O   UNL     1       8.183  -0.630  22.655  0.00  0.00    -0.360 OA
ENDROOT
BRANCH   2   6
ATOM      6  C   UNL     1       8.956  -0.258  25.784  0.00  0.00    +0.313 C 
ATOM      7  O   UNL     1       8.769  -0.683  26.917  0.00  0.00    -0.250 OA
BRANCH   6   8
ATOM      8  O   UNL     1       8.808   1.038  25.400  0.00  0.00    -0.468 OA
ATOM      9  C   UNL     1       7.569   1.622  25.801  0.00  0.00    +0.280 C 
ENDBRANCH   6   8
ENDBRANCH   2   6
BRANCH   4  10
ATOM     10  C   UNL     1       9.575   1.109  21.694  0.00  0.00    +0.334 C 
ATOM     11  O   UNL     1      10.363   1.998  21.976  0.00  0.00    -0.248 OA
BRANCH  10  12
ATOM     12  O   UNL     1       8.654   1.217  20.703  0.00  0.00    -0.479 OA
ATOM     13  H   UNL     1       7.894   0.626  20.918  0.00  0.00    +0.295 HD
ENDBRANCH  10  12
ENDBRANCH   4  10
BRANCH   1  14
ATOM     14  C   UNL     1       8.154  -3.002  23.395  0.00  0.00    +0.103 C 
BRANCH  14  15
ATOM     15  N   UNL     1       7.934  -3.912  24.532  0.00  0.00    -0.310 N 
ATOM     16  H   UNL     1       7.059  -3.828  25.036  0.00  0.00    +0.149 HD
ATOM     17  C   UNL     1       8.940  -4.647  25.126  0.00  0.00    +0.210 C 
ATOM     18  O   UNL     1      10.104  -4.643  24.743  0.00  0.00    -0.276 OA
ATOM     19  C   UNL     1       8.487  -5.461  26.312  0.00  0.00    +0.109 C 
ENDBRANCH  14  15
BRANCH  14  20
ATOM     20  C   UNL     1       7.151  -3.337  22.257  0.00  0.00    +0.028 C 
BRANCH  20  21
ATOM     21  C   UNL     1       6.273  -4.591  22.438  0.00  0.00    -0.015 C 
ATOM     22  C   UNL     1       6.290  -5.447  21.169  0.00  0.00    +0.007 C 
ATOM     23  C   UNL     1       4.828  -4.248  22.798  0.00  0.00    +0.007 C 
ENDBRANCH  20  21
ENDBRANCH  14  20
ENDBRANCH   1  14
TORSDOF 8
ENDMDL
MODEL 5
REMARK VINA RESULT:      -5.5      1.972      4.654
REMARK  Name = 
REMARK  12 active torsions:
REMARK  status: ('A' for Active; 'I' for Inactive)
REMARK    1  A    between atoms: C_2  and  C_3
REMARK    2  A    between atoms: C_2  and  N_7
REMARK    3  A    between atoms: C_2  and  C_11
REMARK    4  A    between atoms: C_3  and  C_4
REMARK    5  A    between atoms: C_4  and  C_5
REMARK    6  A    between atoms: C_4  and  C_6
REMARK    7  A    between atoms: C_8  and  C_9
REMARK    8  A    between atoms: C_14  and  C_23
REMARK    9  A    between atoms: C_17  and  C_19
REMARK   10  A    between atoms: C_19  and  O_21
REMARK   11  A    between atoms: O_21  and  C_22
REMARK   12  A    between atoms: C_23  and  O_24
REMARK                            x       y       z     vdW  Elec       q    Type
REMARK                         _______ _______ _______ _____ _____    ______ ____
ROOT
ATOM      1  C   UNL     1       8.248  -3.388  24.051  0.00  0.00    +0.153 C 
ATOM      2  C   UNL     1       6.952  -2.846  23.447  0.00  0.00    +0.131 C 
ATOM      3  C   UNL     1       7.283  -1.478  22.874  0.00  0.00    +0.060 C 
ATOM      4  C   UNL     1       8.757  -1.285  23.143  0.00  0.00    +0.227 C 
ATOM      5  O   UNL     1       9.294  -2.573  23.475  0.00  0.00    -0.360 OA
ENDROOT
BRANCH   2   6
ATOM      6  C   UNL     1       6.503  -3.804  22.373  0.00  0.00    +0.313 C 
ATOM      7  O   UNL     1       5.611  -3.576  21.565  0.00  0.00    -0.250 OA
BRANCH   6   8
ATOM      8  O   UNL     1       7.243  -4.943  22.420  0.00  0.00    -0.468 OA
ATOM      9  C   UNL     1       6.603  -6.073  21.825  0.00  0.00    +0.280 C 
ENDBRANCH   6   8
ENDBRANCH   2   6
BRANCH   4  10
ATOM     10  C   UNL     1       9.519  -0.687  21.964  0.00  0.00    +0.334 C 
ATOM     11  O   UNL     1       9.329   0.431  21.512  0.00  0.00    -0.248 OA
BRANCH  10  12
ATOM     12  O   UNL     1      10.476  -1.528  21.495  0.00  0.00    -0.479 OA
ATOM     13  H   UNL     1      11.358  -1.165  21.747  0.00  0.00    +0.295 HD
ENDBRANCH  10  12
ENDBRANCH   4  10
BRANCH   1  14
ATOM     14  C   UNL     1       8.277  -3.325  25.613  0.00  0.00    +0.103 C 
BRANCH  14  15
ATOM     15  N   UNL     1       7.372  -2.301  26.162  0.00  0.00    -0.310 N 
ATOM     16  H   UNL     1       6.392  -2.357  25.909  0.00  0.00    +0.149 HD
ATOM     17  C   UNL     1       7.810  -1.126  26.741  0.00  0.00    +0.210 C 
ATOM     18  O   UNL     1       8.992  -0.839  26.887  0.00  0.00    -0.276 OA
ATOM     19  C   UNL     1       6.698  -0.205  27.177  0.00  0.00    +0.109 C 
ENDBRANCH  14  15
BRANCH  14  20
ATOM     20  C   UNL     1       8.010  -4.686  26.310  0.00  0.00    +0.028 C 
BRANCH  20  21
ATOM     21  C   UNL     1       6.558  -4.989  26.730  0.00  0.00    -0.015 C 
ATOM     22  C   UNL     1       6.530  -5.747  28.059  0.00  0.00    +0.007 C 
ATOM     23  C   UNL     1       5.797  -5.790  25.675  0.00  0.00    +0.007 C 
ENDBRANCH  20  21
ENDBRANCH  14  20
ENDBRANCH   1  14
TORSDOF 8
ENDMDL
MODEL 6
REMARK VINA RESULT:      -5.4      1.651      3.352
REMARK  Name = 
REMARK  12 active torsions:
REMARK  status: ('A' for Active; 'I' for Inactive)
REMARK    1  A    between atoms: C_2  and  C_3
REMARK    2  A    between atoms: C_2  and  N_7
REMARK    3  A    between atoms: C_2  and  C_11
REMARK    4  A    between atoms: C_3  and  C_4
REMARK    5  A    between atoms: C_4  and  C_5
REMARK    6  A    between atoms: C_4  and  C_6
REMARK    7  A    between atoms: C_8  and  C_9
REMARK    8  A    between atoms: C_14  and  C_23
REMARK    9  A    between atoms: C_17  and  C_19
REMARK   10  A    between atoms: C_19  and  O_21
REMARK   11  A    between atoms: O_21  and  C_22
REMARK   12  A    between atoms: C_23  and  O_24
REMARK                            x       y       z     vdW  Elec       q    Type
REMARK                         _______ _______ _______ _____ _____    ______ ____
ROOT
ATOM      1  C   UNL     1       6.365  -3.218  23.793  0.00  0.00    +0.153 C 
ATOM      2  C   UNL     1       7.094  -4.268  22.952  0.00  0.00    +0.131 C 
ATOM      3  C   UNL     1       8.157  -4.876  23.850  0.00  0.00    +0.060 C 
ATOM      4  C   UNL     1       7.995  -4.180  25.181  0.00  0.00    +0.227 C 
ATOM      5  O   UNL     1       6.715  -3.532  25.161  0.00  0.00    -0.360 OA
ENDROOT
BRANCH   2   6
ATOM      6  C   UNL     1       6.083  -5.296  22.513  0.00  0.00    +0.313 C 
ATOM      7  O   UNL     1       6.356  -6.440  22.171  0.00  0.00    -0.250 OA
BRANCH   6   8
ATOM      8  O   UNL     1       4.828  -4.776  22.571  0.00  0.00    -0.468 OA
ATOM      9  C   UNL     1       3.844  -5.693  23.051  0.00  0.00    +0.280 C 
ENDBRANCH   6   8
ENDBRANCH   2   6
BRANCH   4  10
ATOM     10  C   UNL     1       8.087  -5.123  26.377  0.00  0.00    +0.334 C 
ATOM     11  O   UNL     1       7.252  -5.969  26.658  0.00  0.00    -0.248 OA
BRANCH  10  12
ATOM     12  O   UNL     1       9.235  -4.947  27.079  0.00  0.00    -0.479 OA
ATOM     13  H   UNL     1       9.920  -5.553  26.711  0.00  0.00    +0.295 HD
ENDBRANCH  10  12
ENDBRANCH   4  10
BRANCH   1  14
ATOM     14  C   UNL     1       6.761  -1.750  23.432  0.00  0.00    +0.103 C 
BRANCH  14  15
ATOM     15  N   UNL     1       7.179  -0.964  24.605  0.00  0.00    -0.310 N 
ATOM     16  H   UNL     1       7.984  -1.292  25.126  0.00  0.00    +0.149 HD
ATOM     17  C   UNL     1       6.388  -0.002  25.201  0.00  0.00    +0.210 C 
ATOM     18  O   UNL     1       5.278   0.316  24.791  0.00  0.00    -0.276 OA
ATOM     19  C   UNL     1       7.004   0.628  26.424  0.00  0.00    +0.109 C 
ENDBRANCH  14  15
BRANCH  14  20
ATOM     20  C   UNL     1       7.836  -1.637  22.317  0.00  0.00    +0.028 C 
BRANCH  20  21
ATOM     21  C   UNL     1       9.133  -0.879  22.663  0.00  0.00    -0.015 C 
ATOM     22  C   UNL     1       9.504   0.091  21.539  0.00  0.00    +0.007 C 
ATOM     23  C   UNL     1      10.307  -1.819  22.929  0.00  0.00    +0.007 C 
ENDBRANCH  20  21
ENDBRANCH  14  20
ENDBRANCH   1  14
TORSDOF 8
ENDMDL
MODEL 7
REMARK VINA RESULT:      -5.4      1.464      3.443
REMARK  Name = 
REMARK  12 active torsions:
REMARK  status: ('A' for Active; 'I' for Inactive)
REMARK    1  A    between atoms: C_2  and  C_3
REMARK    2  A    between atoms: C_2  and  N_7
REMARK    3  A    between atoms: C_2  and  C_11
REMARK    4  A    between atoms: C_3  and  C_4
REMARK    5  A    between atoms: C_4  and  C_5
REMARK    6  A    between atoms: C_4  and  C_6
REMARK    7  A    between atoms: C_8  and  C_9
REMARK    8  A    between atoms: C_14  and  C_23
REMARK    9  A    between atoms: C_17  and  C_19
REMARK   10  A    between atoms: C_19  and  O_21
REMARK   11  A    between atoms: O_21  and  C_22
REMARK   12  A    between atoms: C_23  and  O_24
REMARK                            x       y       z     vdW  Elec       q    Type
REMARK                         _______ _______ _______ _____ _____    ______ ____
ROOT
ATOM      1  C   UNL     1       7.217  -2.487  24.185  0.00  0.00    +0.153 C 
ATOM      2  C   UNL     1       7.910  -3.496  23.267  0.00  0.00    +0.131 C 
ATOM      3  C   UNL     1       8.359  -4.645  24.153  0.00  0.00    +0.060 C 
ATOM      4  C   UNL     1       7.893  -4.277  25.543  0.00  0.00    +0.227 C 
ATOM      5  O   UNL     1       6.931  -3.223  25.396  0.00  0.00    -0.360 OA
ENDROOT
BRANCH   2   6
ATOM      6  C   UNL     1       6.910  -3.948  22.234  0.00  0.00    +0.313 C 
ATOM      7  O   UNL     1       5.947  -3.290  21.862  0.00  0.00    -0.250 OA
BRANCH   6   8
ATOM      8  O   UNL     1       7.244  -5.180  21.764  0.00  0.00    -0.468 OA
ATOM      9  C   UNL     1       6.158  -5.882  21.159  0.00  0.00    +0.280 C 
ENDBRANCH   6   8
ENDBRANCH   2   6
BRANCH   4  10
ATOM     10  C   UNL     1       7.278  -5.445  26.309  0.00  0.00    +0.334 C 
ATOM     11  O   UNL     1       6.272  -6.046  25.966  0.00  0.00    -0.248 OA
BRANCH  10  12
ATOM     12  O   UNL     1       8.007  -5.777  27.405  0.00  0.00    -0.479 OA
ATOM     13  H   UNL     1       7.687  -6.647  27.739  0.00  0.00    +0.295 HD
ENDBRANCH  10  12
ENDBRANCH   4  10
BRANCH   1  14
ATOM     14  C   UNL     1       8.086  -1.222  24.484  0.00  0.00    +0.103 C 
BRANCH  14  15
ATOM     15  N   UNL     1       7.844  -0.665  25.826  0.00  0.00    -0.310 N 
ATOM     16  H   UNL     1       7.768  -1.318  26.597  0.00  0.00    +0.149 HD
ATOM     17  C   UNL     1       7.427   0.631  26.050  0.00  0.00    +0.210 C 
ATOM     18  O   UNL     1       7.253   1.454  25.159  0.00  0.00    -0.276 OA
ATOM     19  C   UNL     1       7.187   0.957  27.503  0.00  0.00    +0.109 C 
ENDBRANCH  14  15
BRANCH  14  20
ATOM     20  C   UNL     1       9.610  -1.434  24.274  0.00  0.00    +0.028 C 
BRANCH  20  21
ATOM     21  C   UNL     1      10.375  -0.337  23.507  0.00  0.00    -0.015 C 
ATOM     22  C   UNL     1      10.891   0.733  24.471  0.00  0.00    +0.007 C 
ATOM     23  C   UNL     1       9.521   0.326  22.427  0.00  0.00    +0.007 C 
ENDBRANCH  20  21
ENDBRANCH  14  20
ENDBRANCH   1  14
TORSDOF 8
ENDMDL
MODEL 8
REMARK VINA RESULT:      -5.4      1.726      4.375
REMARK  Name = 
REMARK  12 active torsions:
REMARK  status: ('A' for Active; 'I' for Inactive)
REMARK    1  A    between atoms: C_2  and  C_3
REMARK    2  A    between atoms: C_2  and  N_7
REMARK    3  A    between atoms: C_2  and  C_11
REMARK    4  A    between atoms: C_3  and  C_4
REMARK    5  A    between atoms: C_4  and  C_5
REMARK    6  A    between atoms: C_4  and  C_6
REMARK    7  A    between atoms: C_8  and  C_9
REMARK    8  A    between atoms: C_14  and  C_23
REMARK    9  A    between atoms: C_17  and  C_19
REMARK   10  A    between atoms: C_19  and  O_21
REMARK   11  A    between atoms: O_21  and  C_22
REMARK   12  A    between atoms: C_23  and  O_24
REMARK                            x       y       z     vdW  Elec       q    Type
REMARK                         _______ _______ _______ _____ _____    ______ ____
ROOT
ATOM      1  C   UNL     1       6.857  -2.572  24.124  0.00  0.00    +0.153 C 
ATOM      2  C   UNL     1       7.607  -3.549  23.216  0.00  0.00    +0.131 C 
ATOM      3  C   UNL     1       8.163  -4.635  24.120  0.00  0.00    +0.060 C 
ATOM      4  C   UNL     1       7.699  -4.268  25.511  0.00  0.00    +0.227 C 
ATOM      5  O   UNL     1       6.655  -3.296  25.359  0.00  0.00    -0.360 OA
ENDROOT
BRANCH   2   6
ATOM      6  C   UNL     1       6.624  -4.105  22.218  0.00  0.00    +0.313 C 
ATOM      7  O   UNL     1       5.534  -3.607  21.962  0.00  0.00    -0.250 OA
BRANCH   6   8
ATOM      8  O   UNL     1       7.130  -5.223  21.633  0.00  0.00    -0.468 OA
ATOM      9  C   UNL     1       6.178  -5.948  20.854  0.00  0.00    +0.280 C 
ENDBRANCH   6   8
ENDBRANCH   2   6
BRANCH   4  10
ATOM     10  C   UNL     1       7.194  -5.458  26.320  0.00  0.00    +0.334 C 
ATOM     11  O   UNL     1       6.191  -6.102  26.053  0.00  0.00    -0.248 OA
BRANCH  10  12
ATOM     12  O   UNL     1       8.016  -5.756  27.358  0.00  0.00    -0.479 OA
ATOM     13  H   UNL     1       8.757  -5.106  27.364  0.00  0.00    +0.295 HD
ENDBRANCH  10  12
ENDBRANCH   4  10
BRANCH   1  14
ATOM     14  C   UNL     1       7.631  -1.237  24.371  0.00  0.00    +0.103 C 
BRANCH  14  15
ATOM     15  N   UNL     1       8.002  -0.549  23.122  0.00  0.00    -0.310 N 
ATOM     16  H   UNL     1       7.358  -0.615  22.343  0.00  0.00    +0.149 HD
ATOM     17  C   UNL     1       9.274  -0.084  22.855  0.00  0.00    +0.210 C 
ATOM     18  O   UNL     1      10.208  -0.165  23.645  0.00  0.00    -0.276 OA
ATOM     19  C   UNL     1       9.428   0.532  21.488  0.00  0.00    +0.109 C 
ENDBRANCH  14  15
BRANCH  14  20
ATOM     20  C   UNL     1       6.901  -0.244  25.317  0.00  0.00    +0.028 C 
BRANCH  20  21
ATOM     21  C   UNL     1       7.652   0.200  26.588  0.00  0.00    -0.015 C 
ATOM     22  C   UNL     1       8.741  -0.813  26.950  0.00  0.00    +0.007 C 
ATOM     23  C   UNL     1       6.720   0.390  27.783  0.00  0.00    +0.007 C 
ENDBRANCH  20  21
ENDBRANCH  14  20
ENDBRANCH   1  14
TORSDOF 8
ENDMDL
MODEL 9
REMARK VINA RESULT:      -5.3      2.275      5.934
REMARK  Name = 
REMARK  12 active torsions:
REMARK  status: ('A' for Active; 'I' for Inactive)
REMARK    1  A    between atoms: C_2  and  C_3
REMARK    2  A    between atoms: C_2  and  N_7
REMARK    3  A    between atoms: C_2  and  C_11
REMARK    4  A    between atoms: C_3  and  C_4
REMARK    5  A    between atoms: C_4  and  C_5
REMARK    6  A    between atoms: C_4  and  C_6
REMARK    7  A    between atoms: C_8  and  C_9
REMARK    8  A    between atoms: C_14  and  C_23
REMARK    9  A    between atoms: C_17  and  C_19
REMARK   10  A    between atoms: C_19  and  O_21
REMARK   11  A    between atoms: O_21  and  C_22
REMARK   12  A    between atoms: C_23  and  O_24
REMARK                            x       y       z     vdW  Elec       q    Type
REMARK                         _______ _______ _______ _____ _____    ______ ____
ROOT
ATOM      1  C   UNL     1       6.561  -1.792  23.695  0.00  0.00    +0.153 C 
ATOM      2  C   UNL     1       6.926  -0.821  24.819  0.00  0.00    +0.131 C 
ATOM      3  C   UNL     1       8.439  -0.689  24.799  0.00  0.00    +0.060 C 
ATOM      4  C   UNL     1       8.896  -1.565  23.656  0.00  0.00    +0.227 C 
ATOM      5  O   UNL     1       7.738  -1.848  22.858  0.00  0.00    -0.360 OA
ENDROOT
BRANCH   2   6
ATOM      6  C   UNL     1       6.249   0.496  24.534  0.00  0.00    +0.313 C 
ATOM      7  O   UNL     1       5.097   0.769  24.846  0.00  0.00    -0.250 OA
BRANCH   6   8
ATOM      8  O   UNL     1       7.109   1.338  23.902  0.00  0.00    -0.468 OA
ATOM      9  C   UNL     1       6.634   1.806  22.639  0.00  0.00    +0.280 C 
ENDBRANCH   6   8
ENDBRANCH   2   6
BRANCH   4  10
ATOM     10  C   UNL     1       9.982  -0.926  22.796  0.00  0.00    +0.334 C 
ATOM     11  O   UNL     1      10.591   0.091  23.090  0.00  0.00    -0.248 OA
BRANCH  10  12
ATOM     12  O   UNL     1      10.235  -1.647  21.673  0.00  0.00    -0.479 OA
ATOM     13  H   UNL     1       9.441  -1.601  21.090  0.00  0.00    +0.295 HD
ENDBRANCH  10  12
ENDBRANCH   4  10
BRANCH   1  14
ATOM     14  C   UNL     1       6.164  -3.214  24.209  0.00  0.00    +0.103 C 
BRANCH  14  15
ATOM     15  N   UNL     1       6.760  -4.299  23.410  0.00  0.00    -0.310 N 
ATOM     16  H   UNL     1       7.769  -4.392  23.426  0.00  0.00    +0.149 HD
ATOM     17  C   UNL     1       6.075  -4.990  22.430  0.00  0.00    +0.210 C 
ATOM     18  O   UNL     1       4.896  -4.794  22.157  0.00  0.00    -0.276 OA
ATOM     19  C   UNL     1       6.910  -6.015  21.704  0.00  0.00    +0.109 C 
ENDBRANCH  14  15
BRANCH  14  20
ATOM     20  C   UNL     1       6.460  -3.452  25.715  0.00  0.00    +0.028 C 
BRANCH  20  21
ATOM     21  C   UNL     1       7.391  -4.627  26.073  0.00  0.00    -0.015 C 
ATOM     22  C   UNL     1       6.810  -5.441  27.231  0.00  0.00    +0.007 C 
ATOM     23  C   UNL     1       8.802  -4.167  26.436  0.00  0.00    +0.007 C 
ENDBRANCH  20  21
ENDBRANCH  14  20
ENDBRANCH   1  14
TORSDOF 8
ENDMDL
