MODEL 1
REMARK VINA RESULT:      -5.7      0.000      0.000
REMARK  Name = 
REMARK  1 active torsions:
REMARK  status: ('A' for Active; 'I' for Inactive)
REMARK    1  A    between atoms: C_2  and  N_3
REMARK                            x       y       z     vdW  Elec       q    Type
REMARK                         _______ _______ _______ _____ _____    ______ ____
ROOT
ATOM      1  C   UNL     1       5.227  -6.704  27.610  0.00  0.00    +0.138 C 
ATOM      2  C   UNL     1       6.200  -5.500  27.593  0.00  0.00    +0.230 C 
ATOM      3  O   UNL     1       5.868  -4.324  27.690  0.00  0.00    -0.274 OA
ATOM      4  N   UNL     1       7.508  -5.905  27.302  0.00  0.00    -0.314 N 
ATOM      5  H   UNL     1       7.654  -6.905  27.277  0.00  0.00    +0.149 HD
ATOM      6  C   UNL     1       8.232  -5.160  26.286  0.00  0.00    +0.104 C 
ATOM      7  C   UNL     1       7.361  -5.045  25.030  0.00  0.00    +0.019 C 
ATOM      8  C   UNL     1       8.115  -5.084  23.711  0.00  0.00    +0.002 C 
ATOM      9  C   UNL     1       7.182  -4.917  22.501  0.00  0.00    +0.000 C 
ATOM     10  C   UNL     1       6.052  -5.964  22.406  0.00  0.00    +0.000 C 
ATOM     11  C   UNL     1       4.729  -5.481  23.030  0.00  0.00    +0.000 C 
ATOM     12  C   UNL     1       4.069  -6.530  23.940  0.00  0.00    +0.000 C 
ATOM     13  C   UNL     1       3.258  -5.869  25.065  0.00  0.00    +0.000 C 
ATOM     14  C   UNL     1       3.026  -6.789  26.275  0.00  0.00    +0.002 C 
ATOM     15  C   UNL     1       3.740  -6.303  27.556  0.00  0.00    +0.028 C 
ENDROOT
BRANCH   1  16
ATOM     16  N   UNL     1       5.503  -7.549  28.791  0.00  0.00    -0.320 NA
ATOM     17  H   UNL     1       6.168  -8.280  28.553  0.00  0.00    +0.119 HD
ATOM     18  H   UNL     1       5.973  -6.971  29.490  0.00  0.00    +0.119 HD
ENDBRANCH   1  16
TORSDOF 1
ENDMDL
MODEL 2
REMARK VINA RESULT:      -5.5      2.808      5.427
REMARK  Name = 
REMARK  1 active torsions:
REMARK  status: ('A' for Active; 'I' for Inactive)
REMARK    1  A    between atoms: C_2  and  N_3
REMARK                            x       y       z     vdW  Elec       q    Type
REMARK                         _______ _______ _______ _____ _____    ______ ____
ROOT
ATOM      1  C   UNL     1       5.814  -5.363  22.069  0.00  0.00    +0.138 C 
ATOM      2  C   UNL     1       4.483  -5.576  22.830  0.00  0.00    +0.230 C 
ATOM      3  O   UNL     1       3.664  -4.697  23.077  0.00  0.00    -0.274 OA
ATOM      4  N   UNL     1       4.388  -6.876  23.339  0.00  0.00    -0.314 N 
ATOM      5  H   UNL     1       5.114  -7.512  23.036  0.00  0.00    +0.149 HD
ATOM      6  C   UNL     1       3.990  -7.026  24.729  0.00  0.00    +0.104 C 
ATOM      7  C   UNL     1       4.861  -6.117  25.602  0.00  0.00    +0.019 C 
ATOM      8  C   UNL     1       5.201  -6.668  26.977  0.00  0.00    +0.002 C 
ATOM      9  C   UNL     1       6.036  -5.683  27.811  0.00  0.00    +0.000 C 
ATOM     10  C   UNL     1       7.364  -5.246  27.157  0.00  0.00    +0.000 C 
ATOM     11  C   UNL     1       7.247  -3.921  26.381  0.00  0.00    +0.000 C 
ATOM     12  C   UNL     1       7.903  -3.972  24.992  0.00  0.00    +0.000 C 
ATOM     13  C   UNL     1       7.196  -3.037  24.000  0.00  0.00    +0.000 C 
ATOM     14  C   UNL     1       7.433  -3.412  22.528  0.00  0.00    +0.002 C 
ATOM     15  C   UNL     1       6.150  -3.883  21.805  0.00  0.00    +0.028 C 
ENDROOT
BRANCH   1  16
ATOM     16  N   UNL     1       5.794  -6.133  20.807  0.00  0.00    -0.320 NA
ATOM     17  H   UNL     1       6.645  -6.682  20.716  0.00  0.00    +0.119 HD
ATOM     18  H   UNL     1       5.035  -6.814  20.865  0.00  0.00    +0.119 HD
ENDBRANCH   1  16
TORSDOF 1
ENDMDL
MODEL 3
REMARK VINA RESULT:      -5.5      5.227      7.330
REMARK  Name = 
REMARK  1 active torsions:
REMARK  status: ('A' for Active; 'I' for Inactive)
REMARK    1  A    between atoms: C_2  and  N_3
REMARK                            x       y       z     vdW  Elec       q    Type
REMARK                         _______ _______ _______ _____ _____    ______ ____
ROOT
ATOM      1  C   UNL     1       9.071   1.215  23.589  0.00  0.00    +0.138 C 
ATOM      2  C   UNL     1       9.629   0.750  24.956  0.00  0.00    +0.230 C 
ATOM      3  O   UNL     1      10.746   0.276  25.137  0.00  0.00    -0.274 OA
ATOM      4  N   UNL     1       8.647   0.794  25.951  0.00  0.00    -0.314 N 
ATOM      5  H   UNL     1       7.778   1.236  25.680  0.00  0.00    +0.149 HD
ATOM      6  C   UNL     1       8.495  -0.376  26.799  0.00  0.00    +0.104 C 
ATOM      7  C   UNL     1       8.379  -1.624  25.917  0.00  0.00    +0.019 C 
ATOM      8  C   UNL     1       7.455  -2.709  26.445  0.00  0.00    +0.002 C 
ATOM      9  C   UNL     1       7.426  -3.946  25.533  0.00  0.00    +0.000 C 
ATOM     10  C   UNL     1       7.006  -3.664  24.074  0.00  0.00    +0.000 C 
ATOM     11  C   UNL     1       8.207  -3.450  23.132  0.00  0.00    +0.000 C 
ATOM     12  C   UNL     1       8.043  -2.232  22.210  0.00  0.00    +0.000 C 
ATOM     13  C   UNL     1       9.400  -1.604  21.859  0.00  0.00    +0.000 C 
ATOM     14  C   UNL     1       9.300  -0.137  21.409  0.00  0.00    +0.002 C 
ATOM     15  C   UNL     1       9.969   0.849  22.392  0.00  0.00    +0.028 C 
ENDROOT
BRANCH   1  16
ATOM     16  N   UNL     1       8.811   2.670  23.629  0.00  0.00    -0.320 NA
ATOM     17  H   UNL     1       7.810   2.850  23.604  0.00  0.00    +0.119 HD
ATOM     18  H   UNL     1       9.129   3.024  24.533  0.00  0.00    +0.119 HD
ENDBRANCH   1  16
TORSDOF 1
ENDMDL
MODEL 4
REMARK VINA RESULT:      -5.3      2.529      4.777
REMARK  Name = 
REMARK  1 active torsions:
REMARK  status: ('A' for Active; 'I' for Inactive)
REMARK    1  A    between atoms: C_2  and  N_3
REMARK                            x       y       z     vdW  Elec       q    Type
REMARK                         _______ _______ _______ _____ _____    ______ ____
ROOT
ATOM      1  C   UNL     1       8.524  -2.443  24.570  0.00  0.00    +0.138 C 
ATOM      2  C   UNL     1       8.966  -3.772  25.230  0.00  0.00    +0.230 C 
ATOM      3  O   UNL     1       9.577  -4.671  24.663  0.00  0.00    -0.274 OA
ATOM      4  N   UNL     1       8.452  -3.894  26.526  0.00  0.00    -0.314 N 
ATOM      5  H   UNL     1       7.992  -3.069  26.887  0.00  0.00    +0.149 HD
ATOM      6  C   UNL     1       7.812  -5.150  26.879  0.00  0.00    +0.104 C 
ATOM      7  C   UNL     1       6.781  -5.509  25.804  0.00  0.00    +0.019 C 
ATOM      8  C   UNL     1       5.530  -6.207  26.311  0.00  0.00    +0.002 C 
ATOM      9  C   UNL     1       4.566  -6.577  25.172  0.00  0.00    +0.000 C 
ATOM     10  C   UNL     1       4.100  -5.386  24.307  0.00  0.00    +0.000 C 
ATOM     11  C   UNL     1       4.948  -5.197  23.036  0.00  0.00    +0.000 C 
ATOM     12  C   UNL     1       5.359  -3.735  22.794  0.00  0.00    +0.000 C 
ATOM     13  C   UNL     1       6.705  -3.642  22.060  0.00  0.00    +0.000 C 
ATOM     14  C   UNL     1       7.415  -2.292  22.250  0.00  0.00    +0.002 C 
ATOM     15  C   UNL     1       8.736  -2.405  23.045  0.00  0.00    +0.028 C 
ENDROOT
BRANCH   1  16
ATOM     16  N   UNL     1       9.210  -1.310  25.227  0.00  0.00    -0.320 NA
ATOM     17  H   UNL     1       9.401  -0.574  24.551  0.00  0.00    +0.119 HD
ATOM     18  H   UNL     1       8.564  -0.898  25.902  0.00  0.00    +0.119 HD
ENDBRANCH   1  16
TORSDOF 1
ENDMDL
MODEL 5
REMARK VINA RESULT:      -5.2      5.225      6.787
REMARK  Name = 
REMARK  1 active torsions:
REMARK  status: ('A' for Active; 'I' for Inactive)
REMARK    1  A    between atoms: C_2  and  N_3
REMARK                            x       y       z     vdW  Elec       q    Type
REMARK                         _______ _______ _______ _____ _____    ______ ____
ROOT
ATOM      1  C   UNL     1       7.510  -2.798  24.609  0.00  0.00    +0.138 C 
ATOM      2  C   UNL     1       8.710  -2.918  23.639  0.00  0.00    +0.230 C 
ATOM      3  O   UNL     1       9.875  -3.100  23.977  0.00  0.00    -0.274 OA
ATOM      4  N   UNL     1       8.330  -2.644  22.320  0.00  0.00    -0.314 N 
ATOM      5  H   UNL     1       7.334  -2.541  22.171  0.00  0.00    +0.149 HD
ATOM      6  C   UNL     1       9.156  -1.721  21.560  0.00  0.00    +0.104 C 
ATOM      7  C   UNL     1       9.376  -0.448  22.383  0.00  0.00    +0.019 C 
ATOM      8  C   UNL     1       9.447   0.840  21.580  0.00  0.00    +0.002 C 
ATOM      9  C   UNL     1       9.716   2.067  22.467  0.00  0.00    +0.000 C 
ATOM     10  C   UNL     1       8.681   2.291  23.591  0.00  0.00    +0.000 C 
ATOM     11  C   UNL     1       9.113   1.680  24.938  0.00  0.00    +0.000 C 
ATOM     12  C   UNL     1       7.992   0.886  25.629  0.00  0.00    +0.000 C 
ATOM     13  C   UNL     1       8.557  -0.259  26.482  0.00  0.00    +0.000 C 
ATOM     14  C   UNL     1       7.540  -1.378  26.758  0.00  0.00    +0.002 C 
ATOM     15  C   UNL     1       7.916  -2.722  26.094  0.00  0.00    +0.028 C 
ENDROOT
BRANCH   1  16
ATOM     16  N   UNL     1       6.569  -3.914  24.376  0.00  0.00    -0.320 NA
ATOM     17  H   UNL     1       5.644  -3.672  24.722  0.00  0.00    +0.119 HD
ATOM     18  H   UNL     1       6.460  -4.030  23.367  0.00  0.00    +0.119 HD
ENDBRANCH   1  16
TORSDOF 1
ENDMDL
MODEL 6
REMARK VINA RESULT:      -5.1      9.567     11.313
REMARK  Name = 
REMARK  1 active torsions:
REMARK  status: ('A' for Active; 'I' for Inactive)
REMARK    1  A    between atoms: C_2  and  N_3
REMARK                            x       y       z     vdW  Elec       q    Type
REMARK                         _______ _______ _______ _____ _____    ______ ____
ROOT
ATOM      1  C   UNL     1       7.521   5.876  22.309  0.00  0.00    +0.138 C 
ATOM      2  C   UNL     1       6.359   5.067  22.934  0.00  0.00    +0.230 C 
ATOM      3  O   UNL     1       6.025   5.110  24.114  0.00  0.00    -0.274 OA
ATOM      4  N   UNL     1       5.819   4.157  22.019  0.00  0.00    -0.314 N 
ATOM      5  H   UNL     1       6.161   4.245  21.071  0.00  0.00    +0.149 HD
ATOM      6  C   UNL     1       5.619   2.789  22.469  0.00  0.00    +0.104 C 
ATOM      7  C   UNL     1       6.913   2.277  23.110  0.00  0.00    +0.019 C 
ATOM      8  C   UNL     1       7.209   0.803  22.889  0.00  0.00    +0.002 C 
ATOM      9  C   UNL     1       8.495   0.352  23.599  0.00  0.00    +0.000 C 
ATOM     10  C   UNL     1       9.764   1.133  23.196  0.00  0.00    +0.000 C 
ATOM     11  C   UNL     1      10.082   2.301  24.150  0.00  0.00    +0.000 C 
ATOM     12  C   UNL     1      10.430   3.605  23.415  0.00  0.00    +0.000 C 
ATOM     13  C   UNL     1      10.025   4.839  24.235  0.00  0.00    +0.000 C 
ATOM     14  C   UNL     1       9.850   6.109  23.385  0.00  0.00    +0.002 C 
ATOM     15  C   UNL     1       8.391   6.617  23.342  0.00  0.00    +0.028 C 
ENDROOT
BRANCH   1  16
ATOM     16  N   UNL     1       6.987   6.814  21.299  0.00  0.00    -0.320 NA
ATOM     17  H   UNL     1       6.180   7.309  21.671  0.00  0.00    +0.119 HD
ATOM     18  H   UNL     1       7.693   7.531  21.129  0.00  0.00    +0.119 HD
ENDBRANCH   1  16
TORSDOF 1
ENDMDL
MODEL 7
REMARK VINA RESULT:      -5.1      6.314      7.858
REMARK  Name = 
REMARK  1 active torsions:
REMARK  status: ('A' for Active; 'I' for Inactive)
REMARK    1  A    between atoms: C_2  and  N_3
REMARK                            x       y       z     vdW  Elec       q    Type
REMARK                         _______ _______ _______ _____ _____    ______ ____
ROOT
ATOM      1  C   UNL     1       5.884   1.765  24.144  0.00  0.00    +0.138 C 
ATOM      2  C   UNL     1       6.687   1.189  25.335  0.00  0.00    +0.230 C 
ATOM      3  O   UNL     1       7.550   1.795  25.962  0.00  0.00    -0.274 OA
ATOM      4  N   UNL     1       6.417  -0.171  25.524  0.00  0.00    -0.314 N 
ATOM      5  H   UNL     1       5.662  -0.543  24.962  0.00  0.00    +0.149 HD
ATOM      6  C   UNL     1       7.551  -1.065  25.685  0.00  0.00    +0.104 C 
ATOM      7  C   UNL     1       8.552  -0.818  24.552  0.00  0.00    +0.019 C 
ATOM      8  C   UNL     1       9.288  -2.051  24.055  0.00  0.00    +0.002 C 
ATOM      9  C   UNL     1      10.307  -1.718  22.953  0.00  0.00    +0.000 C 
ATOM     10  C   UNL     1       9.712  -1.017  21.713  0.00  0.00    +0.000 C 
ATOM     11  C   UNL     1       9.828   0.517  21.775  0.00  0.00    +0.000 C 
ATOM     12  C   UNL     1       8.526   1.239  21.391  0.00  0.00    +0.000 C 
ATOM     13  C   UNL     1       8.391   2.584  22.121  0.00  0.00    +0.000 C 
ATOM     14  C   UNL     1       6.942   3.092  22.207  0.00  0.00    +0.002 C 
ATOM     15  C   UNL     1       6.395   3.132  23.651  0.00  0.00    +0.028 C 
ENDROOT
BRANCH   1  16
ATOM     16  N   UNL     1       4.450   1.834  24.499  0.00  0.00    -0.320 NA
ATOM     17  H   UNL     1       3.880   1.863  23.657  0.00  0.00    +0.119 HD
ATOM     18  H   UNL     1       4.198   0.963  24.969  0.00  0.00    +0.119 HD
ENDBRANCH   1  16
TORSDOF 1
ENDMDL
MODEL 8
REMARK VINA RESULT:      -5.1      6.036      7.975
REMARK  Name = 
REMARK  1 active torsions:
REMARK  status: ('A' for Active; 'I' for Inactive)
REMARK    1  A    between atoms: C_2  and  N_3
REMARK                            x       y       z     vdW  Elec       q    Type
REMARK                         _______ _______ _______ _____ _____    ______ ____
ROOT
ATOM      1  C   UNL     1       9.146  -1.861  23.638  0.00  0.00    +0.138 C 
ATOM      2  C   UNL     1       7.789  -1.647  24.350  0.00  0.00    +0.230 C 
ATOM      3  O   UNL     1       6.700  -1.587  23.789  0.00  0.00    -0.274 OA
ATOM      4  N   UNL     1       7.963  -1.379  25.712  0.00  0.00    -0.314 N 
ATOM      5  H   UNL     1       8.908  -1.491  26.057  0.00  0.00    +0.149 HD
ATOM      6  C   UNL     1       7.242  -0.248  26.273  0.00  0.00    +0.104 C 
ATOM      7  C   UNL     1       7.485   0.986  25.397  0.00  0.00    +0.019 C 
ATOM      8  C   UNL     1       7.561   2.308  26.144  0.00  0.00    +0.002 C 
ATOM      9  C   UNL     1       7.758   3.503  25.197  0.00  0.00    +0.000 C 
ATOM     10  C   UNL     1       9.012   3.417  24.300  0.00  0.00    +0.000 C 
ATOM     11  C   UNL     1       8.716   2.830  22.906  0.00  0.00    +0.000 C 
ATOM     12  C   UNL     1       9.733   1.763  22.470  0.00  0.00    +0.000 C 
ATOM     13  C   UNL     1       9.092   0.719  21.543  0.00  0.00    +0.000 C 
ATOM     14  C   UNL     1       9.857  -0.613  21.500  0.00  0.00    +0.002 C 
ATOM     15  C   UNL     1       9.061  -1.793  22.101  0.00  0.00    +0.028 C 
ENDROOT
BRANCH   1  16
ATOM     16  N   UNL     1       9.742  -3.140  24.078  0.00  0.00    -0.320 NA
ATOM     17  H   UNL     1       9.010  -3.816  24.285  0.00  0.00    +0.119 HD
ATOM     18  H   UNL     1      10.261  -3.534  23.291  0.00  0.00    +0.119 HD
ENDBRANCH   1  16
TORSDOF 1
ENDMDL
MODEL 9
REMARK VINA RESULT:      -5.0      7.059      8.726
REMARK  Name = 
REMARK  1 active torsions:
REMARK  status: ('A' for Active; 'I' for Inactive)
REMARK    1  A    between atoms: C_2  and  N_3
REMARK                            x       y       z     vdW  Elec       q    Type
REMARK                         _______ _______ _______ _____ _____    ______ ____
ROOT
ATOM      1  C   UNL     1       8.967   3.175  23.615  0.00  0.00    +0.138 C 
ATOM      2  C   UNL     1       8.549   2.476  22.299  0.00  0.00    +0.230 C 
ATOM      3  O   UNL     1       7.402   2.407  21.871  0.00  0.00    -0.274 OA
ATOM      4  N   UNL     1       9.624   1.795  21.719  0.00  0.00    -0.314 N 
ATOM      5  H   UNL     1      10.524   1.958  22.152  0.00  0.00    +0.149 HD
ATOM      6  C   UNL     1       9.398   0.425  21.288  0.00  0.00    +0.104 C 
ATOM      7  C   UNL     1       8.755  -0.363  22.434  0.00  0.00    +0.019 C 
ATOM      8  C   UNL     1       9.174  -1.820  22.535  0.00  0.00    +0.002 C 
ATOM      9  C   UNL     1       8.453  -2.556  23.676  0.00  0.00    +0.000 C 
ATOM     10  C   UNL     1       8.649  -1.932  25.074  0.00  0.00    +0.000 C 
ATOM     11  C   UNL     1       7.513  -0.969  25.469  0.00  0.00    +0.000 C 
ATOM     12  C   UNL     1       8.020   0.355  26.063  0.00  0.00    +0.000 C 
ATOM     13  C   UNL     1       7.054   1.512  25.765  0.00  0.00    +0.000 C 
ATOM     14  C   UNL     1       7.714   2.898  25.849  0.00  0.00    +0.002 C 
ATOM     15  C   UNL     1       7.779   3.625  24.486  0.00  0.00    +0.028 C 
ENDROOT
BRANCH   1  16
ATOM     16  N   UNL     1       9.859   4.314  23.311  0.00  0.00    -0.320 NA
ATOM     17  H   UNL     1       9.888   4.481  22.308  0.00  0.00    +0.119 HD
ATOM     18  H   UNL     1       9.446   5.156  23.716  0.00  0.00    +0.119 HD
ENDBRANCH   1  16
TORSDOF 1
ENDMDL
