MODEL 1
REMARK VINA RESULT:      -6.0      0.000      0.000
REMARK  Name = 
REMARK  7 active torsions:
REMARK  status: ('A' for Active; 'I' for Inactive)
REMARK    1  A    between atoms: N_8  and  C_9
REMARK    2  A    between atoms: C_9  and  O_10
REMARK    3  A    between atoms: O_10  and  C_11
REMARK    4  A    between atoms: C_11  and  C_12
REMARK    5  A    between atoms: C_11  and  C_14
REMARK    6  A    between atoms: C_12  and  O_13
REMARK    7  A    between atoms: C_14  and  O_15
REMARK                            x       y       z     vdW  Elec       q    Type
REMARK                         _______ _______ _______ _____ _____    ______ ____
ROOT
ATOM      1  N   UNL     1      10.247  -5.613  25.682  0.00  0.00    -0.329 N 
ATOM      2  H   UNL     1      10.036  -6.564  25.956  0.00  0.00    +0.145 HD
ATOM      3  H   UNL     1      11.140  -5.512  25.213  0.00  0.00    +0.145 HD
ATOM      4  C   UNL     1       9.259  -4.868  25.128  0.00  0.00    +0.195 A 
ATOM      5  N   UNL     1       7.970  -5.187  25.505  0.00  0.00    -0.293 N 
ATOM      6  H   UNL     1       7.800  -5.914  26.177  0.00  0.00    +0.172 HD
ATOM      7  C   UNL     1       6.833  -4.518  25.070  0.00  0.00    +0.280 A 
ATOM      8  O   UNL     1       5.711  -4.837  25.451  0.00  0.00    -0.265 OA
ATOM      9  C   UNL     1       7.145  -3.446  24.151  0.00  0.00    +0.172 A 
ATOM     10  N   UNL     1       6.330  -2.549  23.507  0.00  0.00    -0.229 NA
ATOM     11  C   UNL     1       7.156  -1.800  22.804  0.00  0.00    +0.203 A 
ATOM     12  N   UNL     1       8.462  -2.186  22.966  0.00  0.00    -0.291 N 
ATOM     13  C   UNL     1       8.469  -3.240  23.836  0.00  0.00    +0.171 A 
ATOM     14  N   UNL     1       9.555  -3.912  24.286  0.00  0.00    -0.196 NA
ENDROOT
BRANCH  12  15
ATOM     15  C   UNL     1       9.610  -1.625  22.291  0.00  0.00    +0.287 C 
BRANCH  15  16
ATOM     16  O   UNL     1      10.475  -0.917  23.187  0.00  0.00    -0.351 OA
BRANCH  16  17
ATOM     17  C   UNL     1      10.336   0.523  23.198  0.00  0.00    +0.171 C 
BRANCH  17  18
ATOM     18  C   UNL     1       9.535   0.880  24.461  0.00  0.00    +0.189 C 
BRANCH  18  19
ATOM     19  O   UNL     1      10.220   0.422  25.628  0.00  0.00    -0.392 OA
ATOM     20  H   UNL     1       9.934   1.011  26.351  0.00  0.00    +0.210 HD
ENDBRANCH  18  19
ENDBRANCH  17  18
BRANCH  17  21
ATOM     21  C   UNL     1       9.619   1.068  21.953  0.00  0.00    +0.189 C 
BRANCH  21  22
ATOM     22  O   UNL     1      10.181   2.308  21.530  0.00  0.00    -0.392 OA
ATOM     23  H   UNL     1      11.026   2.108  21.089  0.00  0.00    +0.210 HD
ENDBRANCH  21  22
ENDBRANCH  17  21
ENDBRANCH  16  17
ENDBRANCH  15  16
ENDBRANCH  12  15
TORSDOF 7
ENDMDL
MODEL 2
REMARK VINA RESULT:      -6.0      0.752      1.526
REMARK  Name = 
REMARK  7 active torsions:
REMARK  status: ('A' for Active; 'I' for Inactive)
REMARK    1  A    between atoms: N_8  and  C_9
REMARK    2  A    between atoms: C_9  and  O_10
REMARK    3  A    between atoms: O_10  and  C_11
REMARK    4  A    between atoms: C_11  and  C_12
REMARK    5  A    between atoms: C_11  and  C_14
REMARK    6  A    between atoms: C_12  and  O_13
REMARK    7  A    between atoms: C_14  and  O_15
REMARK                            x       y       z     vdW  Elec       q    Type
REMARK                         _______ _______ _______ _____ _____    ______ ____
ROOT
ATOM      1  N   UNL     1      10.274  -5.579  25.751  0.00  0.00    -0.329 N 
ATOM      2  H   UNL     1      10.113  -6.541  26.017  0.00  0.00    +0.145 HD
ATOM      3  H   UNL     1      11.187  -5.417  25.340  0.00  0.00    +0.145 HD
ATOM      4  C   UNL     1       9.275  -4.907  25.127  0.00  0.00    +0.195 A 
ATOM      5  N   UNL     1       7.989  -5.316  25.420  0.00  0.00    -0.293 N 
ATOM      6  H   UNL     1       7.827  -6.051  26.085  0.00  0.00    +0.172 HD
ATOM      7  C   UNL     1       6.839  -4.730  24.906  0.00  0.00    +0.280 A 
ATOM      8  O   UNL     1       5.720  -5.126  25.215  0.00  0.00    -0.265 OA
ATOM      9  C   UNL     1       7.136  -3.642  24.001  0.00  0.00    +0.172 A 
ATOM     10  N   UNL     1       6.304  -2.806  23.297  0.00  0.00    -0.229 NA
ATOM     11  C   UNL     1       7.121  -2.004  22.644  0.00  0.00    +0.203 A 
ATOM     12  N   UNL     1       8.436  -2.296  22.895  0.00  0.00    -0.291 N 
ATOM     13  C   UNL     1       8.460  -3.343  23.772  0.00  0.00    +0.171 A 
ATOM     14  N   UNL     1       9.559  -3.936  24.298  0.00  0.00    -0.196 NA
ENDROOT
BRANCH  12  15
ATOM     15  C   UNL     1       9.584  -1.657  22.293  0.00  0.00    +0.287 C 
BRANCH  15  16
ATOM     16  O   UNL     1      10.199  -0.706  23.170  0.00  0.00    -0.351 OA
BRANCH  16  17
ATOM     17  C   UNL     1       9.578   0.600  23.226  0.00  0.00    +0.171 C 
BRANCH  17  18
ATOM     18  C   UNL     1       9.495   1.112  21.778  0.00  0.00    +0.189 C 
BRANCH  18  19
ATOM     19  O   UNL     1      10.308   2.276  21.617  0.00  0.00    -0.392 OA
ATOM     20  H   UNL     1       9.712   3.036  21.752  0.00  0.00    +0.210 HD
ENDBRANCH  18  19
ENDBRANCH  17  18
BRANCH  17  21
ATOM     21  C   UNL     1      10.360   1.601  24.090  0.00  0.00    +0.189 C 
BRANCH  21  22
ATOM     22  O   UNL     1       9.592   2.774  24.351  0.00  0.00    -0.392 OA
ATOM     23  H   UNL     1       9.955   3.488  23.798  0.00  0.00    +0.210 HD
ENDBRANCH  21  22
ENDBRANCH  17  21
ENDBRANCH  16  17
ENDBRANCH  15  16
ENDBRANCH  12  15
TORSDOF 7
ENDMDL
MODEL 3
REMARK VINA RESULT:      -6.0      1.953      2.985
REMARK  Name = 
REMARK  7 active torsions:
REMARK  status: ('A' for Active; 'I' for Inactive)
REMARK    1  A    between atoms: N_8  and  C_9
REMARK    2  A    between atoms: C_9  and  O_10
REMARK    3  A    between atoms: O_10  and  C_11
REMARK    4  A    between atoms: C_11  and  C_12
REMARK    5  A    between atoms: C_11  and  C_14
REMARK    6  A    between atoms: C_12  and  O_13
REMARK    7  A    between atoms: C_14  and  O_15
REMARK                            x       y       z     vdW  Elec       q    Type
REMARK                         _______ _______ _______ _____ _____    ______ ____
ROOT
ATOM      1  N   UNL     1      10.199  -5.656  25.470  0.00  0.00    -0.329 N 
ATOM      2  H   UNL     1      10.466  -6.533  25.896  0.00  0.00    +0.145 HD
ATOM      3  H   UNL     1      10.509  -5.558  24.509  0.00  0.00    +0.145 HD
ATOM      4  C   UNL     1       8.942  -5.193  25.680  0.00  0.00    +0.195 A 
ATOM      5  N   UNL     1       8.343  -5.572  26.864  0.00  0.00    -0.293 N 
ATOM      6  H   UNL     1       8.841  -6.134  27.531  0.00  0.00    +0.172 HD
ATOM      7  C   UNL     1       7.075  -5.173  27.270  0.00  0.00    +0.280 A 
ATOM      8  O   UNL     1       6.599  -5.530  28.343  0.00  0.00    -0.265 OA
ATOM      9  C   UNL     1       6.431  -4.319  26.296  0.00  0.00    +0.172 A 
ATOM     10  N   UNL     1       5.202  -3.710  26.309  0.00  0.00    -0.229 NA
ATOM     11  C   UNL     1       5.149  -3.052  25.168  0.00  0.00    +0.203 A 
ATOM     12  N   UNL     1       6.288  -3.222  24.425  0.00  0.00    -0.291 N 
ATOM     13  C   UNL     1       7.124  -4.030  25.143  0.00  0.00    +0.171 A 
ATOM     14  N   UNL     1       8.366  -4.435  24.783  0.00  0.00    -0.196 NA
ENDROOT
BRANCH  12  15
ATOM     15  C   UNL     1       6.531  -2.699  23.100  0.00  0.00    +0.287 C 
BRANCH  15  16
ATOM     16  O   UNL     1       6.777  -1.287  23.110  0.00  0.00    -0.351 OA
BRANCH  16  17
ATOM     17  C   UNL     1       8.144  -0.879  22.870  0.00  0.00    +0.171 C 
BRANCH  17  18
ATOM     18  C   UNL     1       8.793  -1.986  22.022  0.00  0.00    +0.189 C 
BRANCH  18  19
ATOM     19  O   UNL     1      10.060  -1.551  21.527  0.00  0.00    -0.392 OA
ATOM     20  H   UNL     1      10.370  -0.871  22.153  0.00  0.00    +0.210 HD
ENDBRANCH  18  19
ENDBRANCH  17  18
BRANCH  17  21
ATOM     21  C   UNL     1       8.946  -0.673  24.164  0.00  0.00    +0.189 C 
BRANCH  21  22
ATOM     22  O   UNL     1       9.796  -1.787  24.432  0.00  0.00    -0.392 OA
ATOM     23  H   UNL     1       9.282  -2.424  24.960  0.00  0.00    +0.210 HD
ENDBRANCH  21  22
ENDBRANCH  17  21
ENDBRANCH  16  17
ENDBRANCH  15  16
ENDBRANCH  12  15
TORSDOF 7
ENDMDL
MODEL 4
REMARK VINA RESULT:      -5.9      3.900      6.612
REMARK  Name = 
REMARK  7 active torsions:
REMARK  status: ('A' for Active; 'I' for Inactive)
REMARK    1  A    between atoms: N_8  and  C_9
REMARK    2  A    between atoms: C_9  and  O_10
REMARK    3  A    between atoms: O_10  and  C_11
REMARK    4  A    between atoms: C_11  and  C_12
REMARK    5  A    between atoms: C_11  and  C_14
REMARK    6  A    between atoms: C_12  and  O_13
REMARK    7  A    between atoms: C_14  and  O_15
REMARK                            x       y       z     vdW  Elec       q    Type
REMARK                         _______ _______ _______ _____ _____    ______ ____
ROOT
ATOM      1  N   UNL     1       6.573  -6.153  27.780  0.00  0.00    -0.329 N 
ATOM      2  H   UNL     1       7.181  -6.037  28.580  0.00  0.00    +0.145 HD
ATOM      3  H   UNL     1       5.596  -5.966  27.980  0.00  0.00    +0.145 HD
ATOM      4  C   UNL     1       6.982  -5.664  26.583  0.00  0.00    +0.195 A 
ATOM      5  N   UNL     1       8.346  -5.601  26.384  0.00  0.00    -0.293 N 
ATOM      6  H   UNL     1       8.980  -5.934  27.088  0.00  0.00    +0.172 HD
ATOM      7  C   UNL     1       8.952  -5.161  25.213  0.00  0.00    +0.280 A 
ATOM      8  O   UNL     1      10.173  -5.143  25.087  0.00  0.00    -0.265 OA
ATOM      9  C   UNL     1       7.988  -4.751  24.217  0.00  0.00    +0.172 A 
ATOM     10  N   UNL     1       8.163  -4.271  22.943  0.00  0.00    -0.229 NA
ATOM     11  C   UNL     1       6.938  -4.070  22.497  0.00  0.00    +0.203 A 
ATOM     12  N   UNL     1       5.992  -4.394  23.435  0.00  0.00    -0.291 N 
ATOM     13  C   UNL     1       6.655  -4.840  24.544  0.00  0.00    +0.171 A 
ATOM     14  N   UNL     1       6.098  -5.281  25.698  0.00  0.00    -0.196 NA
ENDROOT
BRANCH  12  15
ATOM     15  C   UNL     1       4.562  -4.232  23.299  0.00  0.00    +0.287 C 
BRANCH  15  16
ATOM     16  O   UNL     1       3.927  -5.410  22.789  0.00  0.00    -0.351 OA
BRANCH  16  17
ATOM     17  C   UNL     1       2.782  -5.887  23.533  0.00  0.00    +0.171 C 
BRANCH  17  18
ATOM     18  C   UNL     1       3.310  -6.928  24.536  0.00  0.00    +0.189 C 
BRANCH  18  19
ATOM     19  O   UNL     1       4.472  -7.573  24.015  0.00  0.00    -0.392 OA
ATOM     20  H   UNL     1       4.322  -8.529  24.136  0.00  0.00    +0.210 HD
ENDBRANCH  18  19
ENDBRANCH  17  18
BRANCH  17  21
ATOM     21  C   UNL     1       1.706  -6.522  22.640  0.00  0.00    +0.189 C 
BRANCH  21  22
ATOM     22  O   UNL     1       1.978  -7.901  22.397  0.00  0.00    -0.392 OA
ATOM     23  H   UNL     1       2.942  -7.993  22.299  0.00  0.00    +0.210 HD
ENDBRANCH  21  22
ENDBRANCH  17  21
ENDBRANCH  16  17
ENDBRANCH  15  16
ENDBRANCH  12  15
TORSDOF 7
ENDMDL
MODEL 5
REMARK VINA RESULT:      -5.8      2.333      5.407
REMARK  Name = 
REMARK  7 active torsions:
REMARK  status: ('A' for Active; 'I' for Inactive)
REMARK    1  A    between atoms: N_8  and  C_9
REMARK    2  A    between atoms: C_9  and  O_10
REMARK    3  A    between atoms: O_10  and  C_11
REMARK    4  A    between atoms: C_11  and  C_12
REMARK    5  A    between atoms: C_11  and  C_14
REMARK    6  A    between atoms: C_12  and  O_13
REMARK    7  A    between atoms: C_14  and  O_15
REMARK                            x       y       z     vdW  Elec       q    Type
REMARK                         _______ _______ _______ _____ _____    ______ ____
ROOT
ATOM      1  N   UNL     1       8.971  -0.524  27.555  0.00  0.00    -0.329 N 
ATOM      2  H   UNL     1       8.984   0.374  28.020  0.00  0.00    +0.145 HD
ATOM      3  H   UNL     1       8.220  -1.132  27.864  0.00  0.00    +0.145 HD
ATOM      4  C   UNL     1       9.179  -0.560  26.216  0.00  0.00    +0.195 A 
ATOM      5  N   UNL     1       9.954   0.455  25.691  0.00  0.00    -0.293 N 
ATOM      6  H   UNL     1      10.356   1.152  26.292  0.00  0.00    +0.172 HD
ATOM      7  C   UNL     1      10.302   0.568  24.351  0.00  0.00    +0.280 A 
ATOM      8  O   UNL     1      11.008   1.485  23.944  0.00  0.00    -0.265 OA
ATOM      9  C   UNL     1       9.742  -0.495  23.547  0.00  0.00    +0.172 A 
ATOM     10  N   UNL     1       9.849  -0.756  22.203  0.00  0.00    -0.229 NA
ATOM     11  C   UNL     1       9.141  -1.854  22.026  0.00  0.00    +0.203 A 
ATOM     12  N   UNL     1       8.582  -2.299  23.196  0.00  0.00    -0.291 N 
ATOM     13  C   UNL     1       8.968  -1.437  24.183  0.00  0.00    +0.171 A 
ATOM     14  N   UNL     1       8.652  -1.519  25.498  0.00  0.00    -0.196 NA
ENDROOT
BRANCH  12  15
ATOM     15  C   UNL     1       7.697  -3.432  23.344  0.00  0.00    +0.287 C 
BRANCH  15  16
ATOM     16  O   UNL     1       8.407  -4.675  23.386  0.00  0.00    -0.351 OA
BRANCH  16  17
ATOM     17  C   UNL     1       8.403  -5.367  24.656  0.00  0.00    +0.171 C 
BRANCH  17  18
ATOM     18  C   UNL     1       7.073  -5.017  25.345  0.00  0.00    +0.189 C 
BRANCH  18  19
ATOM     19  O   UNL     1       6.811  -5.932  26.410  0.00  0.00    -0.392 OA
ATOM     20  H   UNL     1       5.874  -6.185  26.318  0.00  0.00    +0.210 HD
ENDBRANCH  18  19
ENDBRANCH  17  18
BRANCH  17  21
ATOM     21  C   UNL     1       9.579  -4.970  25.561  0.00  0.00    +0.189 C 
BRANCH  21  22
ATOM     22  O   UNL     1       9.134  -4.250  26.708  0.00  0.00    -0.392 OA
ATOM     23  H   UNL     1       8.203  -4.008  26.556  0.00  0.00    +0.210 HD
ENDBRANCH  21  22
ENDBRANCH  17  21
ENDBRANCH  16  17
ENDBRANCH  15  16
ENDBRANCH  12  15
TORSDOF 7
ENDMDL
MODEL 6
REMARK VINA RESULT:      -5.7      2.752      6.246
REMARK  Name = 
REMARK  7 active torsions:
REMARK  status: ('A' for Active; 'I' for Inactive)
REMARK    1  A    between atoms: N_8  and  C_9
REMARK    2  A    between atoms: C_9  and  O_10
REMARK    3  A    between atoms: O_10  and  C_11
REMARK    4  A    between atoms: C_11  and  C_12
REMARK    5  A    between atoms: C_11  and  C_14
REMARK    6  A    between atoms: C_12  and  O_13
REMARK    7  A    between atoms: C_14  and  O_15
REMARK                            x       y       z     vdW  Elec       q    Type
REMARK                         _______ _______ _______ _____ _____    ______ ____
ROOT
ATOM      1  N   UNL     1      10.143  -5.566  25.613  0.00  0.00    -0.329 N 
ATOM      2  H   UNL     1      10.599  -5.125  26.401  0.00  0.00    +0.145 HD
ATOM      3  H   UNL     1       9.699  -6.450  25.841  0.00  0.00    +0.145 HD
ATOM      4  C   UNL     1       9.406  -4.792  24.779  0.00  0.00    +0.195 A 
ATOM      5  N   UNL     1       9.788  -3.469  24.678  0.00  0.00    -0.293 N 
ATOM      6  H   UNL     1      10.589  -3.130  25.180  0.00  0.00    +0.172 HD
ATOM      7  C   UNL     1       9.177  -2.533  23.853  0.00  0.00    +0.280 A 
ATOM      8  O   UNL     1       9.571  -1.373  23.793  0.00  0.00    -0.265 OA
ATOM      9  C   UNL     1       8.069  -3.094  23.113  0.00  0.00    +0.172 A 
ATOM     10  N   UNL     1       7.220  -2.524  22.197  0.00  0.00    -0.229 NA
ATOM     11  C   UNL     1       6.411  -3.504  21.846  0.00  0.00    +0.203 A 
ATOM     12  N   UNL     1       6.703  -4.671  22.503  0.00  0.00    -0.291 N 
ATOM     13  C   UNL     1       7.772  -4.423  23.316  0.00  0.00    +0.171 A 
ATOM     14  N   UNL     1       8.396  -5.309  24.129  0.00  0.00    -0.196 NA
ENDROOT
BRANCH  12  15
ATOM     15  C   UNL     1       5.973  -5.914  22.404  0.00  0.00    +0.287 C 
BRANCH  15  16
ATOM     16  O   UNL     1       4.567  -5.706  22.222  0.00  0.00    -0.351 OA
BRANCH  16  17
ATOM     17  C   UNL     1       3.764  -5.708  23.425  0.00  0.00    +0.171 C 
BRANCH  17  18
ATOM     18  C   UNL     1       4.428  -6.697  24.398  0.00  0.00    +0.189 C 
BRANCH  18  19
ATOM     19  O   UNL     1       3.763  -7.961  24.350  0.00  0.00    -0.392 OA
ATOM     20  H   UNL     1       3.211  -7.939  23.547  0.00  0.00    +0.210 HD
ENDBRANCH  18  19
ENDBRANCH  17  18
BRANCH  17  21
ATOM     21  C   UNL     1       2.306  -6.122  23.175  0.00  0.00    +0.189 C 
BRANCH  21  22
ATOM     22  O   UNL     1       2.224  -7.207  22.253  0.00  0.00    -0.392 OA
ATOM     23  H   UNL     1       1.686  -7.903  22.671  0.00  0.00    +0.210 HD
ENDBRANCH  21  22
ENDBRANCH  17  21
ENDBRANCH  16  17
ENDBRANCH  15  16
ENDBRANCH  12  15
TORSDOF 7
ENDMDL
MODEL 7
REMARK VINA RESULT:      -5.7      2.398      6.183
REMARK  Name = 
REMARK  7 active torsions:
REMARK  status: ('A' for Active; 'I' for Inactive)
REMARK    1  A    between atoms: N_8  and  C_9
REMARK    2  A    between atoms: C_9  and  O_10
REMARK    3  A    between atoms: O_10  and  C_11
REMARK    4  A    between atoms: C_11  and  C_12
REMARK    5  A    between atoms: C_11  and  C_14
REMARK    6  A    between atoms: C_12  and  O_13
REMARK    7  A    between atoms: C_14  and  O_15
REMARK                            x       y       z     vdW  Elec       q    Type
REMARK                         _______ _______ _______ _____ _____    ______ ____
ROOT
ATOM      1  N   UNL     1       5.763   1.762  23.043  0.00  0.00    -0.329 N 
ATOM      2  H   UNL     1       5.606   2.573  22.460  0.00  0.00    +0.145 HD
ATOM      3  H   UNL     1       4.953   1.157  23.128  0.00  0.00    +0.145 HD
ATOM      4  C   UNL     1       6.929   1.084  22.904  0.00  0.00    +0.195 A 
ATOM      5  N   UNL     1       8.014   1.820  22.473  0.00  0.00    -0.293 N 
ATOM      6  H   UNL     1       7.928   2.807  22.308  0.00  0.00    +0.172 HD
ATOM      7  C   UNL     1       9.295   1.310  22.303  0.00  0.00    +0.280 A 
ATOM      8  O   UNL     1      10.227   2.017  21.931  0.00  0.00    -0.265 OA
ATOM      9  C   UNL     1       9.369  -0.101  22.611  0.00  0.00    +0.172 A 
ATOM     10  N   UNL     1      10.430  -0.972  22.584  0.00  0.00    -0.229 NA
ATOM     11  C   UNL     1       9.918  -2.125  22.966  0.00  0.00    +0.203 A 
ATOM     12  N   UNL     1       8.576  -2.028  23.229  0.00  0.00    -0.291 N 
ATOM     13  C   UNL     1       8.212  -0.729  23.011  0.00  0.00    +0.171 A 
ATOM     14  N   UNL     1       6.977  -0.196  23.171  0.00  0.00    -0.196 NA
ENDROOT
BRANCH  12  15
ATOM     15  C   UNL     1       7.697  -3.112  23.602  0.00  0.00    +0.287 C 
BRANCH  15  16
ATOM     16  O   UNL     1       7.420  -3.128  25.008  0.00  0.00    -0.351 OA
BRANCH  16  17
ATOM     17  C   UNL     1       8.198  -4.056  25.798  0.00  0.00    +0.171 C 
BRANCH  17  18
ATOM     18  C   UNL     1       8.669  -5.165  24.842  0.00  0.00    +0.189 C 
BRANCH  18  19
ATOM     19  O   UNL     1      10.025  -5.517  25.121  0.00  0.00    -0.392 OA
ATOM     20  H   UNL     1      10.250  -6.224  24.489  0.00  0.00    +0.210 HD
ENDBRANCH  18  19
ENDBRANCH  17  18
BRANCH  17  21
ATOM     21  C   UNL     1       7.403  -4.672  26.960  0.00  0.00    +0.189 C 
BRANCH  21  22
ATOM     22  O   UNL     1       8.005  -5.879  27.421  0.00  0.00    -0.392 OA
ATOM     23  H   UNL     1       7.613  -6.611  26.913  0.00  0.00    +0.210 HD
ENDBRANCH  21  22
ENDBRANCH  17  21
ENDBRANCH  16  17
ENDBRANCH  15  16
ENDBRANCH  12  15
TORSDOF 7
ENDMDL
MODEL 8
REMARK VINA RESULT:      -5.6      2.768      5.778
REMARK  Name = 
REMARK  7 active torsions:
REMARK  status: ('A' for Active; 'I' for Inactive)
REMARK    1  A    between atoms: N_8  and  C_9
REMARK    2  A    between atoms: C_9  and  O_10
REMARK    3  A    between atoms: O_10  and  C_11
REMARK    4  A    between atoms: C_11  and  C_12
REMARK    5  A    between atoms: C_11  and  C_14
REMARK    6  A    between atoms: C_12  and  O_13
REMARK    7  A    between atoms: C_14  and  O_15
REMARK                            x       y       z     vdW  Elec       q    Type
REMARK                         _______ _______ _______ _____ _____    ______ ____
ROOT
ATOM      1  N   UNL     1       9.019  -0.575  27.507  0.00  0.00    -0.329 N 
ATOM      2  H   UNL     1       9.042   0.301  28.012  0.00  0.00    +0.145 HD
ATOM      3  H   UNL     1       8.263  -1.189  27.790  0.00  0.00    +0.145 HD
ATOM      4  C   UNL     1       9.223  -0.551  26.166  0.00  0.00    +0.195 A 
ATOM      5  N   UNL     1      10.006   0.479  25.687  0.00  0.00    -0.293 N 
ATOM      6  H   UNL     1      10.416   1.144  26.318  0.00  0.00    +0.172 HD
ATOM      7  C   UNL     1      10.351   0.650  24.352  0.00  0.00    +0.280 A 
ATOM      8  O   UNL     1      11.065   1.579  23.985  0.00  0.00    -0.265 OA
ATOM      9  C   UNL     1       9.779  -0.370  23.502  0.00  0.00    +0.172 A 
ATOM     10  N   UNL     1       9.879  -0.570  22.147  0.00  0.00    -0.229 NA
ATOM     11  C   UNL     1       9.161  -1.653  21.922  0.00  0.00    +0.203 A 
ATOM     12  N   UNL     1       8.601  -2.145  23.072  0.00  0.00    -0.291 N 
ATOM     13  C   UNL     1       8.997  -1.333  24.097  0.00  0.00    +0.171 A 
ATOM     14  N   UNL     1       8.685  -1.472  25.408  0.00  0.00    -0.196 NA
ENDROOT
BRANCH  12  15
ATOM     15  C   UNL     1       7.706  -3.275  23.172  0.00  0.00    +0.287 C 
BRANCH  15  16
ATOM     16  O   UNL     1       7.505  -3.922  21.909  0.00  0.00    -0.351 OA
BRANCH  16  17
ATOM     17  C   UNL     1       6.166  -4.405  21.650  0.00  0.00    +0.171 C 
BRANCH  17  18
ATOM     18  C   UNL     1       5.402  -4.328  22.982  0.00  0.00    +0.189 C 
BRANCH  18  19
ATOM     19  O   UNL     1       4.024  -4.649  22.782  0.00  0.00    -0.392 OA
ATOM     20  H   UNL     1       4.003  -5.599  22.564  0.00  0.00    +0.210 HD
ENDBRANCH  18  19
ENDBRANCH  17  18
BRANCH  17  21
ATOM     21  C   UNL     1       6.139  -5.845  21.115  0.00  0.00    +0.189 C 
BRANCH  21  22
ATOM     22  O   UNL     1       5.922  -6.786  22.165  0.00  0.00    -0.392 OA
ATOM     23  H   UNL     1       5.370  -6.348  22.837  0.00  0.00    +0.210 HD
ENDBRANCH  21  22
ENDBRANCH  17  21
ENDBRANCH  16  17
ENDBRANCH  15  16
ENDBRANCH  12  15
TORSDOF 7
ENDMDL
MODEL 9
REMARK VINA RESULT:      -5.5      2.376      3.646
REMARK  Name = 
REMARK  7 active torsions:
REMARK  status: ('A' for Active; 'I' for Inactive)
REMARK    1  A    between atoms: N_8  and  C_9
REMARK    2  A    between atoms: C_9  and  O_10
REMARK    3  A    between atoms: O_10  and  C_11
REMARK    4  A    between atoms: C_11  and  C_12
REMARK    5  A    between atoms: C_11  and  C_14
REMARK    6  A    between atoms: C_12  and  O_13
REMARK    7  A    between atoms: C_14  and  O_15
REMARK                            x       y       z     vdW  Elec       q    Type
REMARK                         _______ _______ _______ _____ _____    ______ ____
ROOT
ATOM      1  N   UNL     1       6.179  -5.635  20.894  0.00  0.00    -0.329 N 
ATOM      2  H   UNL     1       5.305  -5.694  20.389  0.00  0.00    +0.145 HD
ATOM      3  H   UNL     1       6.802  -4.914  20.547  0.00  0.00    +0.145 HD
ATOM      4  C   UNL     1       6.149  -5.718  22.247  0.00  0.00    +0.195 A 
ATOM      5  N   UNL     1       5.109  -6.444  22.790  0.00  0.00    -0.293 N 
ATOM      6  H   UNL     1       4.441  -6.903  22.195  0.00  0.00    +0.172 HD
ATOM      7  C   UNL     1       4.929  -6.668  24.150  0.00  0.00    +0.280 A 
ATOM      8  O   UNL     1       3.992  -7.336  24.575  0.00  0.00    -0.265 OA
ATOM      9  C   UNL     1       5.952  -6.032  24.950  0.00  0.00    +0.172 A 
ATOM     10  N   UNL     1       6.147  -6.013  26.308  0.00  0.00    -0.229 NA
ATOM     11  C   UNL     1       7.236  -5.288  26.473  0.00  0.00    +0.203 A 
ATOM     12  N   UNL     1       7.738  -4.838  25.280  0.00  0.00    -0.291 N 
ATOM     13  C   UNL     1       6.926  -5.316  24.291  0.00  0.00    +0.171 A 
ATOM     14  N   UNL     1       7.072  -5.124  22.958  0.00  0.00    -0.196 NA
ENDROOT
BRANCH  12  15
ATOM     15  C   UNL     1       8.878  -3.967  25.106  0.00  0.00    +0.287 C 
BRANCH  15  16
ATOM     16  O   UNL     1       8.498  -2.657  24.665  0.00  0.00    -0.351 OA
BRANCH  16  17
ATOM     17  C   UNL     1       9.435  -1.984  23.792  0.00  0.00    +0.171 C 
BRANCH  17  18
ATOM     18  C   UNL     1       9.512  -0.523  24.268  0.00  0.00    +0.189 C 
BRANCH  18  19
ATOM     19  O   UNL     1      10.735   0.074  23.836  0.00  0.00    -0.392 OA
ATOM     20  H   UNL     1      10.478   0.815  23.256  0.00  0.00    +0.210 HD
ENDBRANCH  18  19
ENDBRANCH  17  18
BRANCH  17  21
ATOM     21  C   UNL     1       9.020  -2.031  22.314  0.00  0.00    +0.189 C 
BRANCH  21  22
ATOM     22  O   UNL     1      10.074  -1.584  21.463  0.00  0.00    -0.392 OA
ATOM     23  H   UNL     1      10.007  -2.084  20.631  0.00  0.00    +0.210 HD
ENDBRANCH  21  22
ENDBRANCH  17  21
ENDBRANCH  16  17
ENDBRANCH  15  16
ENDBRANCH  12  15
TORSDOF 7
ENDMDL
