MODEL 1
REMARK VINA RESULT:      -7.4      0.000      0.000
REMARK  Name = 
REMARK  8 active torsions:
REMARK  status: ('A' for Active; 'I' for Inactive)
REMARK    1  A    between atoms: C_4  and  C_5
REMARK    2  A    between atoms: C_4  and  C_6
REMARK    3  A    between atoms: CA_7  and  C_29
REMARK    4  A    between atoms: CA_12  and  N_14
REMARK    5  A    between atoms: CA_17  and  C_23
REMARK    6  A    between atoms: C_20  and  C_21
REMARK    7  A    between atoms: C_20  and  C_22
REMARK    8  A    between atoms: C_29  and  O_30
REMARK                            x       y       z     vdW  Elec       q    Type
REMARK                         _______ _______ _______ _____ _____    ______ ____
ROOT
ATOM      1  N   UNL     1       8.771   0.515  23.526  0.00  0.00    -0.268 N 
ATOM      2  C   UNL     1       8.938   1.034  22.188  0.00  0.00    +0.084 C 
ATOM      3  C   UNL     1       9.275  -0.002  21.122  0.00  0.00    +0.049 C 
ATOM      4  C   UNL     1      10.015   2.142  22.179  0.00  0.00    +0.049 C 
ATOM      5  N   UNL     1       7.623   1.663  21.858  0.00  0.00    -0.282 NA
ATOM      6  H   UNL     1       7.764   2.654  21.662  0.00  0.00    +0.125 HD
ATOM      7  CA  UNL     1       6.819   1.567  23.095  0.00  0.00    +0.173 C 
ATOM      8  C   UNL     1       7.869   1.364  24.159  0.00  0.00    +0.239 C 
ATOM      9  O   UNL     1       7.961   1.797  25.291  0.00  0.00    -0.273 OA
ENDROOT
BRANCH   1  11
ATOM     10  C   UNL     1       9.056  -1.438  25.269  0.00  0.00    +0.165 C 
ATOM     11  CA  UNL     1       9.686  -0.392  24.273  0.00  0.00    +0.194 C 
ATOM     12  C   UNL     1      10.176  -1.680  23.522  0.00  0.00    +0.240 C 
ATOM     13  O   UNL     1      10.670  -1.957  22.456  0.00  0.00    -0.273 OA
ATOM     14  N   UNL     1       9.692  -2.526  24.490  0.00  0.00    -0.271 N 
ATOM     15  CA  UNL     1       8.816  -3.669  24.102  0.00  0.00    +0.201 C 
ATOM     16  C   UNL     1       7.388  -3.109  23.912  0.00  0.00    +0.042 C 
ATOM     17  C   UNL     1       7.209  -2.456  22.530  0.00  0.00    +0.025 C 
ATOM     18  C   UNL     1       6.208  -4.070  24.095  0.00  0.00    +0.025 C 
ATOM     19  S   UNL     1       7.264  -1.842  25.218  0.00  0.00    -0.127 S 
BRANCH  15  20
ATOM     20  C   UNL     1       8.926  -4.774  25.169  0.00  0.00    +0.327 C 
ATOM     21  OXT UNL     1       8.447  -4.711  26.291  0.00  0.00    -0.249 OA
BRANCH  20  22
ATOM     22  O   UNL     1       9.550  -5.895  24.726  0.00  0.00    -0.479 OA
ATOM     23  H   UNL     1       9.682  -6.520  25.466  0.00  0.00    +0.295 HD
ENDBRANCH  20  22
ENDBRANCH  15  20
ENDBRANCH   1  11
BRANCH   7  24
ATOM     24  C   UNL     1       5.773   2.619  23.328  0.00  0.00    -0.022 A 
ATOM     25  C   UNL     1       4.773   2.380  24.289  0.00  0.00    +0.005 A 
ATOM     26  C   UNL     1       3.893   3.393  24.671  0.00  0.00    +0.000 A 
ATOM     27  C   UNL     1       3.993   4.654  24.089  0.00  0.00    +0.000 A 
ATOM     28  C   UNL     1       4.950   4.891  23.106  0.00  0.00    +0.000 A 
ATOM     29  C   UNL     1       5.823   3.877  22.716  0.00  0.00    +0.005 A 
ENDBRANCH   7  24
TORSDOF 4
ENDMDL
MODEL 2
REMARK VINA RESULT:      -7.4      2.928      6.235
REMARK  Name = 
REMARK  8 active torsions:
REMARK  status: ('A' for Active; 'I' for Inactive)
REMARK    1  A    between atoms: C_4  and  C_5
REMARK    2  A    between atoms: C_4  and  C_6
REMARK    3  A    between atoms: CA_7  and  C_29
REMARK    4  A    between atoms: CA_12  and  N_14
REMARK    5  A    between atoms: CA_17  and  C_23
REMARK    6  A    between atoms: C_20  and  C_21
REMARK    7  A    between atoms: C_20  and  C_22
REMARK    8  A    between atoms: C_29  and  O_30
REMARK                            x       y       z     vdW  Elec       q    Type
REMARK                         _______ _______ _______ _____ _____    ______ ____
ROOT
ATOM      1  N   UNL     1       7.176  -3.600  23.044  0.00  0.00    -0.268 N 
ATOM      2  C   UNL     1       7.370  -4.931  23.570  0.00  0.00    +0.084 C 
ATOM      3  C   UNL     1       8.556  -5.093  24.516  0.00  0.00    +0.049 C 
ATOM      4  C   UNL     1       7.500  -5.946  22.412  0.00  0.00    +0.049 C 
ATOM      5  N   UNL     1       6.110  -5.234  24.313  0.00  0.00    -0.282 NA
ATOM      6  H   UNL     1       5.670  -6.060  23.907  0.00  0.00    +0.125 HD
ATOM      7  CA  UNL     1       5.215  -4.086  24.055  0.00  0.00    +0.173 C 
ATOM      8  C   UNL     1       5.810  -3.473  22.811  0.00  0.00    +0.239 C 
ATOM      9  O   UNL     1       5.290  -2.980  21.829  0.00  0.00    -0.273 OA
ENDROOT
BRANCH   1  11
ATOM     10  C   UNL     1       7.998  -1.154  22.517  0.00  0.00    +0.165 C 
ATOM     11  CA  UNL     1       8.188  -2.715  22.405  0.00  0.00    +0.194 C 
ATOM     12  C   UNL     1       9.497  -2.428  23.222  0.00  0.00    +0.240 C 
ATOM     13  O   UNL     1      10.334  -3.062  23.815  0.00  0.00    -0.273 OA
ATOM     14  N   UNL     1       9.317  -1.067  23.185  0.00  0.00    -0.271 N 
ATOM     15  CA  UNL     1       9.373  -0.279  24.451  0.00  0.00    +0.201 C 
ATOM     16  C   UNL     1       7.997  -0.416  25.138  0.00  0.00    +0.042 C 
ATOM     17  C   UNL     1       7.879  -1.736  25.923  0.00  0.00    +0.025 C 
ATOM     18  C   UNL     1       7.555   0.698  26.093  0.00  0.00    +0.025 C 
ATOM     19  S   UNL     1       6.832  -0.422  23.735  0.00  0.00    -0.127 S 
BRANCH  15  20
ATOM     20  C   UNL     1       9.776   1.171  24.124  0.00  0.00    +0.327 C 
ATOM     21  OXT UNL     1       9.019   2.025  23.687  0.00  0.00    -0.249 OA
BRANCH  20  22
ATOM     22  O   UNL     1      11.063   1.461  24.445  0.00  0.00    -0.479 OA
ATOM     23  H   UNL     1      11.376   2.224  23.918  0.00  0.00    +0.295 HD
ENDBRANCH  20  22
ENDBRANCH  15  20
ENDBRANCH   1  11
BRANCH   7  24
ATOM     24  C   UNL     1       3.735  -4.338  24.078  0.00  0.00    -0.022 A 
ATOM     25  C   UNL     1       3.210  -5.373  23.282  0.00  0.00    +0.005 A 
ATOM     26  C   UNL     1       1.877  -5.764  23.406  0.00  0.00    +0.000 A 
ATOM     27  C   UNL     1       1.048  -5.118  24.319  0.00  0.00    +0.000 A 
ATOM     28  C   UNL     1       1.542  -4.064  25.082  0.00  0.00    +0.000 A 
ATOM     29  C   UNL     1       2.872  -3.665  24.952  0.00  0.00    +0.005 A 
ENDBRANCH   7  24
TORSDOF 4
ENDMDL
MODEL 3
REMARK VINA RESULT:      -7.2      3.431      5.310
REMARK  Name = 
REMARK  8 active torsions:
REMARK  status: ('A' for Active; 'I' for Inactive)
REMARK    1  A    between atoms: C_4  and  C_5
REMARK    2  A    between atoms: C_4  and  C_6
REMARK    3  A    between atoms: CA_7  and  C_29
REMARK    4  A    between atoms: CA_12  and  N_14
REMARK    5  A    between atoms: CA_17  and  C_23
REMARK    6  A    between atoms: C_20  and  C_21
REMARK    7  A    between atoms: C_20  and  C_22
REMARK    8  A    between atoms: C_29  and  O_30
REMARK                            x       y       z     vdW  Elec       q    Type
REMARK                         _______ _______ _______ _____ _____    ______ ____
ROOT
ATOM      1  N   UNL     1       7.389  -2.898  25.141  0.00  0.00    -0.268 N 
ATOM      2  C   UNL     1       8.715  -3.231  25.606  0.00  0.00    +0.084 C 
ATOM      3  C   UNL     1       9.044  -4.720  25.631  0.00  0.00    +0.049 C 
ATOM      4  C   UNL     1       8.951  -2.634  27.012  0.00  0.00    +0.049 C 
ATOM      5  N   UNL     1       9.637  -2.545  24.650  0.00  0.00    -0.282 NA
ATOM      6  H   UNL     1      10.225  -1.889  25.163  0.00  0.00    +0.125 HD
ATOM      7  CA  UNL     1       8.761  -1.753  23.761  0.00  0.00    +0.173 C 
ATOM      8  C   UNL     1       7.489  -1.637  24.563  0.00  0.00    +0.239 C 
ATOM      9  O   UNL     1       6.709  -0.715  24.707  0.00  0.00    -0.273 OA
ENDROOT
BRANCH   1  11
ATOM     10  C   UNL     1       4.975  -3.738  24.507  0.00  0.00    +0.165 C 
ATOM     11  CA  UNL     1       6.093  -3.480  25.588  0.00  0.00    +0.194 C 
ATOM     12  C   UNL     1       6.035  -5.040  25.751  0.00  0.00    +0.240 C 
ATOM     13  O   UNL     1       6.681  -5.904  26.291  0.00  0.00    -0.273 OA
ATOM     14  N   UNL     1       4.985  -5.173  24.875  0.00  0.00    -0.271 N 
ATOM     15  CA  UNL     1       5.079  -6.149  23.751  0.00  0.00    +0.201 C 
ATOM     16  C   UNL     1       5.899  -5.478  22.628  0.00  0.00    +0.042 C 
ATOM     17  C   UNL     1       7.413  -5.576  22.888  0.00  0.00    +0.025 C 
ATOM     18  C   UNL     1       5.673  -5.955  21.188  0.00  0.00    +0.025 C 
ATOM     19  S   UNL     1       5.367  -3.735  22.712  0.00  0.00    -0.127 S 
BRANCH  15  20
ATOM     20  C   UNL     1       3.659  -6.574  23.332  0.00  0.00    +0.327 C 
ATOM     21  OXT UNL     1       2.883  -5.880  22.692  0.00  0.00    -0.249 OA
BRANCH  20  22
ATOM     22  O   UNL     1       3.354  -7.852  23.673  0.00  0.00    -0.479 OA
ATOM     23  H   UNL     1       2.392  -7.936  23.831  0.00  0.00    +0.295 HD
ENDBRANCH  20  22
ENDBRANCH  15  20
ENDBRANCH   1  11
BRANCH   7  24
ATOM     24  C   UNL     1       9.332  -0.500  23.159  0.00  0.00    -0.022 A 
ATOM     25  C   UNL     1       8.895  -0.101  21.882  0.00  0.00    +0.005 A 
ATOM     26  C   UNL     1       9.255   1.142  21.361  0.00  0.00    +0.000 A 
ATOM     27  C   UNL     1      10.064   1.997  22.103  0.00  0.00    +0.000 A 
ATOM     28  C   UNL     1      10.538   1.597  23.350  0.00  0.00    +0.000 A 
ATOM     29  C   UNL     1      10.188   0.351  23.868  0.00  0.00    +0.005 A 
ENDBRANCH   7  24
TORSDOF 4
ENDMDL
MODEL 4
REMARK VINA RESULT:      -7.2      2.316      3.124
REMARK  Name = 
REMARK  8 active torsions:
REMARK  status: ('A' for Active; 'I' for Inactive)
REMARK    1  A    between atoms: C_4  and  C_5
REMARK    2  A    between atoms: C_4  and  C_6
REMARK    3  A    between atoms: CA_7  and  C_29
REMARK    4  A    between atoms: CA_12  and  N_14
REMARK    5  A    between atoms: CA_17  and  C_23
REMARK    6  A    between atoms: C_20  and  C_21
REMARK    7  A    between atoms: C_20  and  C_22
REMARK    8  A    between atoms: C_29  and  O_30
REMARK                            x       y       z     vdW  Elec       q    Type
REMARK                         _______ _______ _______ _____ _____    ______ ____
ROOT
ATOM      1  N   UNL     1       8.854  -1.878  24.201  0.00  0.00    -0.268 N 
ATOM      2  C   UNL     1       8.733  -1.575  22.793  0.00  0.00    +0.084 C 
ATOM      3  C   UNL     1       7.891  -2.555  21.984  0.00  0.00    +0.049 C 
ATOM      4  C   UNL     1      10.134  -1.457  22.153  0.00  0.00    +0.049 C 
ATOM      5  N   UNL     1       8.089  -0.227  22.750  0.00  0.00    -0.282 NA
ATOM      6  H   UNL     1       8.707   0.426  22.269  0.00  0.00    +0.125 HD
ATOM      7  CA  UNL     1       7.995   0.210  24.159  0.00  0.00    +0.173 C 
ATOM      8  C   UNL     1       9.021  -0.657  24.846  0.00  0.00    +0.239 C 
ATOM      9  O   UNL     1       9.814  -0.415  25.735  0.00  0.00    -0.273 OA
ENDROOT
BRANCH   1  11
ATOM     10  C   UNL     1       8.561  -3.572  26.196  0.00  0.00    +0.165 C 
ATOM     11  CA  UNL     1       9.230  -3.177  24.825  0.00  0.00    +0.194 C 
ATOM     12  C   UNL     1       8.483  -4.456  24.304  0.00  0.00    +0.240 C 
ATOM     13  O   UNL     1       8.226  -4.968  23.242  0.00  0.00    -0.273 OA
ATOM     14  N   UNL     1       8.024  -4.795  25.554  0.00  0.00    -0.271 N 
ATOM     15  CA  UNL     1       6.573  -5.073  25.758  0.00  0.00    +0.201 C 
ATOM     16  C   UNL     1       5.858  -3.711  25.892  0.00  0.00    +0.042 C 
ATOM     17  C   UNL     1       5.579  -3.073  24.519  0.00  0.00    +0.025 C 
ATOM     18  C   UNL     1       4.538  -3.663  26.670  0.00  0.00    +0.025 C 
ATOM     19  S   UNL     1       7.066  -2.698  26.812  0.00  0.00    -0.127 S 
BRANCH  15  20
ATOM     20  C   UNL     1       6.405  -6.000  26.977  0.00  0.00    +0.327 C 
ATOM     21  OXT UNL     1       5.443  -6.727  27.175  0.00  0.00    -0.249 OA
BRANCH  20  22
ATOM     22  O   UNL     1       7.481  -6.007  27.804  0.00  0.00    -0.479 OA
ATOM     23  H   UNL     1       7.360  -6.678  28.506  0.00  0.00    +0.295 HD
ENDBRANCH  20  22
ENDBRANCH  15  20
ENDBRANCH   1  11
BRANCH   7  24
ATOM     24  C   UNL     1       8.023   1.687  24.433  0.00  0.00    -0.022 A 
ATOM     25  C   UNL     1       7.403   2.172  25.600  0.00  0.00    +0.005 A 
ATOM     26  C   UNL     1       7.559   3.502  25.990  0.00  0.00    +0.000 A 
ATOM     27  C   UNL     1       8.325   4.367  25.214  0.00  0.00    +0.000 A 
ATOM     28  C   UNL     1       8.908   3.911  24.034  0.00  0.00    +0.000 A 
ATOM     29  C   UNL     1       8.745   2.584  23.638  0.00  0.00    +0.005 A 
ENDBRANCH   7  24
TORSDOF 4
ENDMDL
MODEL 5
REMARK VINA RESULT:      -7.1      1.574      2.148
REMARK  Name = 
REMARK  8 active torsions:
REMARK  status: ('A' for Active; 'I' for Inactive)
REMARK    1  A    between atoms: C_4  and  C_5
REMARK    2  A    between atoms: C_4  and  C_6
REMARK    3  A    between atoms: CA_7  and  C_29
REMARK    4  A    between atoms: CA_12  and  N_14
REMARK    5  A    between atoms: CA_17  and  C_23
REMARK    6  A    between atoms: C_20  and  C_21
REMARK    7  A    between atoms: C_20  and  C_22
REMARK    8  A    between atoms: C_29  and  O_30
REMARK                            x       y       z     vdW  Elec       q    Type
REMARK                         _______ _______ _______ _____ _____    ______ ____
ROOT
ATOM      1  N   UNL     1       8.722  -0.664  24.388  0.00  0.00    -0.268 N 
ATOM      2  C   UNL     1       9.773  -0.317  23.460  0.00  0.00    +0.084 C 
ATOM      3  C   UNL     1      10.343  -1.479  22.654  0.00  0.00    +0.049 C 
ATOM      4  C   UNL     1      10.922   0.400  24.202  0.00  0.00    +0.049 C 
ATOM      5  N   UNL     1       9.143   0.662  22.523  0.00  0.00    -0.282 NA
ATOM      6  H   UNL     1       9.653   1.545  22.567  0.00  0.00    +0.125 HD
ATOM      7  CA  UNL     1       7.788   0.906  23.060  0.00  0.00    +0.173 C 
ATOM      8  C   UNL     1       7.915   0.464  24.497  0.00  0.00    +0.239 C 
ATOM      9  O   UNL     1       7.458   0.926  25.525  0.00  0.00    -0.273 OA
ENDROOT
BRANCH   1  11
ATOM     10  C   UNL     1       7.351  -2.428  25.783  0.00  0.00    +0.165 C 
ATOM     11  CA  UNL     1       8.724  -1.755  25.402  0.00  0.00    +0.194 C 
ATOM     12  C   UNL     1       9.079  -3.196  24.893  0.00  0.00    +0.240 C 
ATOM     13  O   UNL     1       9.942  -3.722  24.234  0.00  0.00    -0.273 OA
ATOM     14  N   UNL     1       7.901  -3.735  25.350  0.00  0.00    -0.271 N 
ATOM     15  CA  UNL     1       7.051  -4.543  24.428  0.00  0.00    +0.201 C 
ATOM     16  C   UNL     1       6.236  -3.553  23.567  0.00  0.00    +0.042 C 
ATOM     17  C   UNL     1       7.060  -3.007  22.387  0.00  0.00    +0.025 C 
ATOM     18  C   UNL     1       4.904  -4.035  22.981  0.00  0.00    +0.025 C 
ATOM     19  S   UNL     1       5.858  -2.203  24.736  0.00  0.00    -0.127 S 
BRANCH  15  20
ATOM     20  C   UNL     1       6.192  -5.516  25.258  0.00  0.00    +0.327 C 
ATOM     21  OXT UNL     1       5.140  -6.012  24.884  0.00  0.00    -0.249 OA
BRANCH  20  22
ATOM     22  O   UNL     1       6.754  -5.855  26.446  0.00  0.00    -0.479 OA
ATOM     23  H   UNL     1       6.519  -6.777  26.677  0.00  0.00    +0.295 HD
ENDBRANCH  20  22
ENDBRANCH  15  20
ENDBRANCH   1  11
BRANCH   7  24
ATOM     24  C   UNL     1       7.161   2.244  22.788  0.00  0.00    -0.022 A 
ATOM     25  C   UNL     1       5.759   2.355  22.817  0.00  0.00    +0.005 A 
ATOM     26  C   UNL     1       5.140   3.603  22.752  0.00  0.00    +0.000 A 
ATOM     27  C   UNL     1       5.913   4.755  22.645  0.00  0.00    +0.000 A 
ATOM     28  C   UNL     1       7.300   4.657  22.571  0.00  0.00    +0.000 A 
ATOM     29  C   UNL     1       7.920   3.409  22.626  0.00  0.00    +0.005 A 
ENDBRANCH   7  24
TORSDOF 4
ENDMDL
MODEL 6
REMARK VINA RESULT:      -7.0      3.177      5.731
REMARK  Name = 
REMARK  8 active torsions:
REMARK  status: ('A' for Active; 'I' for Inactive)
REMARK    1  A    between atoms: C_4  and  C_5
REMARK    2  A    between atoms: C_4  and  C_6
REMARK    3  A    between atoms: CA_7  and  C_29
REMARK    4  A    between atoms: CA_12  and  N_14
REMARK    5  A    between atoms: CA_17  and  C_23
REMARK    6  A    between atoms: C_20  and  C_21
REMARK    7  A    between atoms: C_20  and  C_22
REMARK    8  A    between atoms: C_29  and  O_30
REMARK                            x       y       z     vdW  Elec       q    Type
REMARK                         _______ _______ _______ _____ _____    ______ ____
ROOT
ATOM      1  N   UNL     1       6.934  -4.579  24.002  0.00  0.00    -0.268 N 
ATOM      2  C   UNL     1       6.338  -4.745  22.696  0.00  0.00    +0.084 C 
ATOM      3  C   UNL     1       4.916  -5.294  22.692  0.00  0.00    +0.049 C 
ATOM      4  C   UNL     1       7.234  -5.645  21.815  0.00  0.00    +0.049 C 
ATOM      5  N   UNL     1       6.333  -3.373  22.104  0.00  0.00    -0.282 NA
ATOM      6  H   UNL     1       6.880  -3.377  21.242  0.00  0.00    +0.125 HD
ATOM      7  CA  UNL     1       7.049  -2.521  23.077  0.00  0.00    +0.173 C 
ATOM      8  C   UNL     1       7.835  -3.526  23.884  0.00  0.00    +0.239 C 
ATOM      9  O   UNL     1       8.961  -3.486  24.341  0.00  0.00    -0.273 OA
ENDROOT
BRANCH   1  11
ATOM     10  C   UNL     1       7.042  -5.040  26.592  0.00  0.00    +0.165 C 
ATOM     11  CA  UNL     1       6.996  -5.572  25.109  0.00  0.00    +0.194 C 
ATOM     12  C   UNL     1       5.636  -6.203  25.574  0.00  0.00    +0.240 C 
ATOM     13  O   UNL     1       4.681  -6.736  25.065  0.00  0.00    -0.273 OA
ATOM     14  N   UNL     1       5.799  -5.796  26.875  0.00  0.00    -0.271 N 
ATOM     15  CA  UNL     1       4.705  -5.047  27.559  0.00  0.00    +0.201 C 
ATOM     16  C   UNL     1       4.808  -3.572  27.111  0.00  0.00    +0.042 C 
ATOM     17  C   UNL     1       4.154  -3.345  25.736  0.00  0.00    +0.025 C 
ATOM     18  C   UNL     1       4.244  -2.495  28.044  0.00  0.00    +0.025 C 
ATOM     19  S   UNL     1       6.609  -3.300  26.994  0.00  0.00    -0.127 S 
BRANCH  15  20
ATOM     20  C   UNL     1       4.824  -5.257  29.080  0.00  0.00    +0.327 C 
ATOM     21  OXT UNL     1       5.872  -5.236  29.708  0.00  0.00    -0.249 OA
BRANCH  20  22
ATOM     22  O   UNL     1       3.626  -5.393  29.704  0.00  0.00    -0.479 OA
ATOM     23  H   UNL     1       3.627  -6.198  30.259  0.00  0.00    +0.295 HD
ENDBRANCH  20  22
ENDBRANCH  15  20
ENDBRANCH   1  11
BRANCH   7  24
ATOM     24  C   UNL     1       7.777  -1.319  22.547  0.00  0.00    -0.022 A 
ATOM     25  C   UNL     1       7.323  -0.037  22.909  0.00  0.00    +0.005 A 
ATOM     26  C   UNL     1       8.069   1.099  22.595  0.00  0.00    +0.000 A 
ATOM     27  C   UNL     1       9.270   0.971  21.903  0.00  0.00    +0.000 A 
ATOM     28  C   UNL     1       9.709  -0.288  21.501  0.00  0.00    +0.000 A 
ATOM     29  C   UNL     1       8.960  -1.424  21.806  0.00  0.00    +0.005 A 
ENDBRANCH   7  24
TORSDOF 4
ENDMDL
MODEL 7
REMARK VINA RESULT:      -7.0      3.002      6.226
REMARK  Name = 
REMARK  8 active torsions:
REMARK  status: ('A' for Active; 'I' for Inactive)
REMARK    1  A    between atoms: C_4  and  C_5
REMARK    2  A    between atoms: C_4  and  C_6
REMARK    3  A    between atoms: CA_7  and  C_29
REMARK    4  A    between atoms: CA_12  and  N_14
REMARK    5  A    between atoms: CA_17  and  C_23
REMARK    6  A    between atoms: C_20  and  C_21
REMARK    7  A    between atoms: C_20  and  C_22
REMARK    8  A    between atoms: C_29  and  O_30
REMARK                            x       y       z     vdW  Elec       q    Type
REMARK                         _______ _______ _______ _____ _____    ______ ____
ROOT
ATOM      1  N   UNL     1       7.475  -2.981  24.231  0.00  0.00    -0.268 N 
ATOM      2  C   UNL     1       8.168  -4.070  24.881  0.00  0.00    +0.084 C 
ATOM      3  C   UNL     1       9.690  -3.976  24.865  0.00  0.00    +0.049 C 
ATOM      4  C   UNL     1       7.734  -5.419  24.266  0.00  0.00    +0.049 C 
ATOM      5  N   UNL     1       7.692  -4.031  26.297  0.00  0.00    -0.282 NA
ATOM      6  H   UNL     1       7.242  -4.917  26.525  0.00  0.00    +0.125 HD
ATOM      7  CA  UNL     1       6.650  -2.983  26.334  0.00  0.00    +0.173 C 
ATOM      8  C   UNL     1       6.252  -2.859  24.883  0.00  0.00    +0.239 C 
ATOM      9  O   UNL     1       5.168  -2.693  24.357  0.00  0.00    -0.273 OA
ENDROOT
BRANCH   1  11
ATOM     10  C   UNL     1       7.338  -0.920  22.598  0.00  0.00    +0.165 C 
ATOM     11  CA  UNL     1       7.723  -2.424  22.873  0.00  0.00    +0.194 C 
ATOM     12  C   UNL     1       9.177  -1.914  22.570  0.00  0.00    +0.240 C 
ATOM     13  O   UNL     1      10.306  -2.326  22.676  0.00  0.00    -0.273 OA
ATOM     14  N   UNL     1       8.751  -0.650  22.241  0.00  0.00    -0.271 N 
ATOM     15  CA  UNL     1       9.387   0.536  22.886  0.00  0.00    +0.201 C 
ATOM     16  C   UNL     1       8.737   0.706  24.276  0.00  0.00    +0.042 C 
ATOM     17  C   UNL     1       9.360  -0.240  25.319  0.00  0.00    +0.025 C 
ATOM     18  C   UNL     1       8.736   2.105  24.904  0.00  0.00    +0.025 C 
ATOM     19  S   UNL     1       6.997   0.243  23.979  0.00  0.00    -0.127 S 
BRANCH  15  20
ATOM     20  C   UNL     1       9.232   1.756  21.959  0.00  0.00    +0.327 C 
ATOM     21  OXT UNL     1       8.166   2.189  21.548  0.00  0.00    -0.249 OA
BRANCH  20  22
ATOM     22  O   UNL     1      10.405   2.385  21.691  0.00  0.00    -0.479 OA
ATOM     23  H   UNL     1      11.151   1.876  22.067  0.00  0.00    +0.295 HD
ENDBRANCH  20  22
ENDBRANCH  15  20
ENDBRANCH   1  11
BRANCH   7  24
ATOM     24  C   UNL     1       5.557  -3.125  27.354  0.00  0.00    -0.022 A 
ATOM     25  C   UNL     1       5.414  -4.351  28.029  0.00  0.00    +0.005 A 
ATOM     26  C   UNL     1       4.539  -4.474  29.109  0.00  0.00    +0.000 A 
ATOM     27  C   UNL     1       3.787  -3.376  29.520  0.00  0.00    +0.000 A 
ATOM     28  C   UNL     1       3.888  -2.169  28.835  0.00  0.00    +0.000 A 
ATOM     29  C   UNL     1       4.754  -2.048  27.749  0.00  0.00    +0.005 A 
ENDBRANCH   7  24
TORSDOF 4
ENDMDL
MODEL 8
REMARK VINA RESULT:      -6.9      2.664      3.798
REMARK  Name = 
REMARK  8 active torsions:
REMARK  status: ('A' for Active; 'I' for Inactive)
REMARK    1  A    between atoms: C_4  and  C_5
REMARK    2  A    between atoms: C_4  and  C_6
REMARK    3  A    between atoms: CA_7  and  C_29
REMARK    4  A    between atoms: CA_12  and  N_14
REMARK    5  A    between atoms: CA_17  and  C_23
REMARK    6  A    between atoms: C_20  and  C_21
REMARK    7  A    between atoms: C_20  and  C_22
REMARK    8  A    between atoms: C_29  and  O_30
REMARK                            x       y       z     vdW  Elec       q    Type
REMARK                         _______ _______ _______ _____ _____    ______ ____
ROOT
ATOM      1  N   UNL     1       8.262  -2.511  24.631  0.00  0.00    -0.268 N 
ATOM      2  C   UNL     1       8.676  -1.942  23.369  0.00  0.00    +0.084 C 
ATOM      3  C   UNL     1       8.113  -2.624  22.128  0.00  0.00    +0.049 C 
ATOM      4  C   UNL     1      10.219  -1.915  23.280  0.00  0.00    +0.049 C 
ATOM      5  N   UNL     1       8.189  -0.529  23.413  0.00  0.00    -0.282 NA
ATOM      6  H   UNL     1       8.985   0.103  23.325  0.00  0.00    +0.125 HD
ATOM      7  CA  UNL     1       7.627  -0.348  24.768  0.00  0.00    +0.173 C 
ATOM      8  C   UNL     1       8.273  -1.466  25.548  0.00  0.00    +0.239 C 
ATOM      9  O   UNL     1       8.708  -1.508  26.683  0.00  0.00    -0.273 OA
ENDROOT
BRANCH   1  11
ATOM     10  C   UNL     1       7.083  -4.512  25.873  0.00  0.00    +0.165 C 
ATOM     11  CA  UNL     1       8.294  -3.943  25.039  0.00  0.00    +0.194 C 
ATOM     12  C   UNL     1       7.816  -4.995  23.976  0.00  0.00    +0.240 C 
ATOM     13  O   UNL     1       8.036  -5.255  22.819  0.00  0.00    -0.273 OA
ATOM     14  N   UNL     1       6.849  -5.511  24.803  0.00  0.00    -0.271 N 
ATOM     15  CA  UNL     1       5.447  -5.644  24.310  0.00  0.00    +0.201 C 
ATOM     16  C   UNL     1       4.781  -4.257  24.439  0.00  0.00    +0.042 C 
ATOM     17  C   UNL     1       5.147  -3.335  23.262  0.00  0.00    +0.025 C 
ATOM     18  C   UNL     1       3.256  -4.201  24.579  0.00  0.00    +0.025 C 
ATOM     19  S   UNL     1       5.492  -3.599  25.986  0.00  0.00    -0.127 S 
BRANCH  15  20
ATOM     20  C   UNL     1       4.740  -6.763  25.098  0.00  0.00    +0.327 C 
ATOM     21  OXT UNL     1       4.709  -6.846  26.317  0.00  0.00    -0.249 OA
BRANCH  20  22
ATOM     22  O   UNL     1       4.062  -7.635  24.309  0.00  0.00    -0.479 OA
ATOM     23  H   UNL     1       4.533  -7.754  23.460  0.00  0.00    +0.295 HD
ENDBRANCH  20  22
ENDBRANCH  15  20
ENDBRANCH   1  11
BRANCH   7  24
ATOM     24  C   UNL     1       7.661   1.034  25.356  0.00  0.00    -0.022 A 
ATOM     25  C   UNL     1       8.478   2.008  24.753  0.00  0.00    +0.005 A 
ATOM     26  C   UNL     1       8.404   3.344  25.147  0.00  0.00    +0.000 A 
ATOM     27  C   UNL     1       7.523   3.722  26.156  0.00  0.00    +0.000 A 
ATOM     28  C   UNL     1       6.740   2.761  26.791  0.00  0.00    +0.000 A 
ATOM     29  C   UNL     1       6.820   1.424  26.405  0.00  0.00    +0.005 A 
ENDBRANCH   7  24
TORSDOF 4
ENDMDL
MODEL 9
REMARK VINA RESULT:      -6.8      2.658      6.633
REMARK  Name = 
REMARK  8 active torsions:
REMARK  status: ('A' for Active; 'I' for Inactive)
REMARK    1  A    between atoms: C_4  and  C_5
REMARK    2  A    between atoms: C_4  and  C_6
REMARK    3  A    between atoms: CA_7  and  C_29
REMARK    4  A    between atoms: CA_12  and  N_14
REMARK    5  A    between atoms: CA_17  and  C_23
REMARK    6  A    between atoms: C_20  and  C_21
REMARK    7  A    between atoms: C_20  and  C_22
REMARK    8  A    between atoms: C_29  and  O_30
REMARK                            x       y       z     vdW  Elec       q    Type
REMARK                         _______ _______ _______ _____ _____    ______ ____
ROOT
ATOM      1  N   UNL     1       8.424  -0.222  23.207  0.00  0.00    -0.268 N 
ATOM      2  C   UNL     1       9.674  -0.720  23.734  0.00  0.00    +0.084 C 
ATOM      3  C   UNL     1      10.741   0.338  23.993  0.00  0.00    +0.049 C 
ATOM      4  C   UNL     1      10.249  -1.807  22.799  0.00  0.00    +0.049 C 
ATOM      5  N   UNL     1       9.307  -1.368  25.030  0.00  0.00    -0.282 NA
ATOM      6  H   UNL     1       9.569  -2.354  24.998  0.00  0.00    +0.125 HD
ATOM      7  CA  UNL     1       7.832  -1.304  25.098  0.00  0.00    +0.173 C 
ATOM      8  C   UNL     1       7.440  -1.096  23.656  0.00  0.00    +0.239 C 
ATOM      9  O   UNL     1       6.519  -1.543  23.000  0.00  0.00    -0.273 OA
ENDROOT
BRANCH   1  11
ATOM     10  C   UNL     1       7.055   1.748  22.120  0.00  0.00    +0.165 C 
ATOM     11  CA  UNL     1       8.223   0.692  22.048  0.00  0.00    +0.194 C 
ATOM     12  C   UNL     1       9.129   1.972  21.989  0.00  0.00    +0.240 C 
ATOM     13  O   UNL     1      10.302   2.239  22.076  0.00  0.00    -0.273 OA
ATOM     14  N   UNL     1       8.055   2.828  21.946  0.00  0.00    -0.271 N 
ATOM     15  CA  UNL     1       7.979   3.968  22.906  0.00  0.00    +0.201 C 
ATOM     16  C   UNL     1       7.448   3.407  24.244  0.00  0.00    +0.042 C 
ATOM     17  C   UNL     1       8.564   2.740  25.068  0.00  0.00    +0.025 C 
ATOM     18  C   UNL     1       6.723   4.370  25.191  0.00  0.00    +0.025 C 
ATOM     19  S   UNL     1       6.233   2.152  23.713  0.00  0.00    -0.127 S 
BRANCH  15  20
ATOM     20  C   UNL     1       7.109   5.083  22.296  0.00  0.00    +0.327 C 
ATOM     21  OXT UNL     1       5.899   5.182  22.438  0.00  0.00    -0.249 OA
BRANCH  20  22
ATOM     22  O   UNL     1       7.825   6.025  21.632  0.00  0.00    -0.479 OA
ATOM     23  H   UNL     1       8.776   5.935  21.843  0.00  0.00    +0.295 HD
ENDBRANCH  20  22
ENDBRANCH  15  20
ENDBRANCH   1  11
BRANCH   7  24
ATOM     24  C   UNL     1       7.124  -2.379  25.873  0.00  0.00    -0.022 A 
ATOM     25  C   UNL     1       6.036  -2.021  26.690  0.00  0.00    +0.005 A 
ATOM     26  C   UNL     1       5.236  -2.999  27.282  0.00  0.00    +0.000 A 
ATOM     27  C   UNL     1       5.520  -4.346  27.075  0.00  0.00    +0.000 A 
ATOM     28  C   UNL     1       6.619  -4.714  26.303  0.00  0.00    +0.000 A 
ATOM     29  C   UNL     1       7.425  -3.738  25.719  0.00  0.00    +0.005 A 
ENDBRANCH   7  24
TORSDOF 4
ENDMDL
