MODEL 1
REMARK VINA RESULT:      -7.7      0.000      0.000
REMARK  Name = 
REMARK  13 active torsions:
REMARK  status: ('A' for Active; 'I' for Inactive)
REMARK    1  A    between atoms: C_1  and  C_2
REMARK    2  A    between atoms: C_2  and  C_3
REMARK    3  A    between atoms: C_3  and  C_4
REMARK    4  A    between atoms: C_6  and  C_30
REMARK    5  A    between atoms: C_7  and  C_27
REMARK    6  A    between atoms: N_8  and  C_9
REMARK    7  A    between atoms: C_9  and  C_10
REMARK    8  A    between atoms: C_13  and  C_16
REMARK    9  A    between atoms: C_17  and  C_22
REMARK   10  A    between atoms: C_27  and  O_28
REMARK   11  A    between atoms: C_30  and  C_31
REMARK   12  A    between atoms: C_30  and  C_32
REMARK   13  A    between atoms: C_30  and  O_33
REMARK                            x       y       z     vdW  Elec       q    Type
REMARK                         _______ _______ _______ _____ _____    ______ ____
ROOT
ATOM      1  C   UNL     1       9.078  -2.443  23.244  0.00  0.00    +0.159 C 
ENDROOT
BRANCH   1   2
ATOM      2  C   UNL     1       9.624  -1.032  23.211  0.00  0.00    -0.028 A 
ATOM      3  C   UNL     1      10.086  -0.414  24.374  0.00  0.00    +0.006 A 
ATOM      4  C   UNL     1      10.350   0.962  24.408  0.00  0.00    +0.009 A 
ATOM      5  C   UNL     1      10.122   1.794  23.298  0.00  0.00    -0.017 A 
ATOM      6  C   UNL     1       9.724   1.155  22.114  0.00  0.00    +0.009 A 
ATOM      7  C   UNL     1       9.471  -0.229  22.070  0.00  0.00    +0.006 A 
BRANCH   5   8
ATOM      8  C   UNL     1      10.276   3.275  23.419  0.00  0.00    -0.007 A 
ATOM      9  C   UNL     1      11.592   3.800  23.496  0.00  0.00    +0.009 A 
ATOM     10  C   UNL     1      11.852   5.165  23.640  0.00  0.00    +0.001 A 
ATOM     11  C   UNL     1      10.801   6.063  23.687  0.00  0.00    +0.001 A 
ATOM     12  C   UNL     1       9.493   5.590  23.616  0.00  0.00    +0.012 A 
ATOM     13  C   UNL     1       9.203   4.208  23.496  0.00  0.00    +0.028 A 
BRANCH  13  14
ATOM     14  C   UNL     1       7.787   3.824  23.519  0.00  0.00    +0.180 A 
ATOM     15  N   UNL     1       7.083   3.398  22.420  0.00  0.00    -0.239 N 
ATOM     16  H   UNL     1       7.389   3.278  21.464  0.00  0.00    +0.192 HD
ATOM     17  N   UNL     1       5.816   3.122  22.747  0.00  0.00    -0.046 NA
ATOM     18  N   UNL     1       5.734   3.386  24.040  0.00  0.00    -0.023 NA
ATOM     19  N   UNL     1       6.939   3.830  24.529  0.00  0.00    -0.108 NA
ENDBRANCH  13  14
ENDBRANCH   5   8
ENDBRANCH   1   2
BRANCH   1  21
ATOM     20  C   UNL     1       6.952  -2.125  24.691  0.00  0.00    +0.111 A 
ATOM     21  N   UNL     1       8.060  -2.815  24.237  0.00  0.00    -0.318 N 
ATOM     22  C   UNL     1       7.977  -4.111  24.765  0.00  0.00    +0.153 A 
ATOM     23  C   UNL     1       7.040  -3.993  25.785  0.00  0.00    +0.105 A 
ATOM     24  N   UNL     1       6.402  -2.778  25.695  0.00  0.00    -0.233 NA
BRANCH  23  25
ATOM     25  C   UNL     1       6.625  -4.986  26.849  0.00  0.00    +0.104 C 
ATOM     26  C   UNL     1       5.767  -6.117  26.264  0.00  0.00    +0.048 C 
ATOM     27  C   UNL     1       5.880  -4.332  28.014  0.00  0.00    +0.048 C 
BRANCH  25  28
ATOM     28  O   UNL     1       7.809  -5.599  27.390  0.00  0.00    -0.383 OA
ATOM     29  H   UNL     1       7.876  -6.483  26.980  0.00  0.00    +0.211 HD
ENDBRANCH  25  28
ENDBRANCH  23  25
BRANCH  22  30
ATOM     30  C   UNL     1       8.720  -5.242  24.240  0.00  0.00    +0.355 C 
ATOM     31  O   UNL     1       8.407  -5.868  23.235  0.00  0.00    -0.243 OA
BRANCH  30  32
ATOM     32  O   UNL     1       9.824  -5.572  24.944  0.00  0.00    -0.476 OA
ATOM     33  H   UNL     1       9.778  -5.367  25.905  0.00  0.00    +0.295 HD
ENDBRANCH  30  32
ENDBRANCH  22  30
BRANCH  20  34
ATOM     34  C   UNL     1       6.438  -0.845  24.107  0.00  0.00    +0.074 C 
BRANCH  34  36
ATOM     35  C   UNL     1       7.023   0.664  26.085  0.00  0.00    +0.004 C 
ATOM     36  C   UNL     1       5.951   0.213  25.103  0.00  0.00    +0.004 C 
ENDBRANCH  34  36
ENDBRANCH  20  34
ENDBRANCH   1  21
TORSDOF 10
ENDMDL
MODEL 2
REMARK VINA RESULT:      -7.6      1.118      1.628
REMARK  Name = 
REMARK  13 active torsions:
REMARK  status: ('A' for Active; 'I' for Inactive)
REMARK    1  A    between atoms: C_1  and  C_2
REMARK    2  A    between atoms: C_2  and  C_3
REMARK    3  A    between atoms: C_3  and  C_4
REMARK    4  A    between atoms: C_6  and  C_30
REMARK    5  A    between atoms: C_7  and  C_27
REMARK    6  A    between atoms: N_8  and  C_9
REMARK    7  A    between atoms: C_9  and  C_10
REMARK    8  A    between atoms: C_13  and  C_16
REMARK    9  A    between atoms: C_17  and  C_22
REMARK   10  A    between atoms: C_27  and  O_28
REMARK   11  A    between atoms: C_30  and  C_31
REMARK   12  A    between atoms: C_30  and  C_32
REMARK   13  A    between atoms: C_30  and  O_33
REMARK                            x       y       z     vdW  Elec       q    Type
REMARK                         _______ _______ _______ _____ _____    ______ ____
ROOT
ATOM      1  C   UNL     1       9.441  -2.752  23.642  0.00  0.00    +0.159 C 
ENDROOT
BRANCH   1   2
ATOM      2  C   UNL     1       9.851  -1.296  23.605  0.00  0.00    -0.028 A 
ATOM      3  C   UNL     1       9.943  -0.547  24.779  0.00  0.00    +0.006 A 
ATOM      4  C   UNL     1      10.069   0.848  24.741  0.00  0.00    +0.009 A 
ATOM      5  C   UNL     1      10.064   1.565  23.531  0.00  0.00    -0.017 A 
ATOM      6  C   UNL     1      10.042   0.800  22.355  0.00  0.00    +0.009 A 
ATOM      7  C   UNL     1       9.930  -0.602  22.388  0.00  0.00    +0.006 A 
BRANCH   5   8
ATOM      8  C   UNL     1      10.052   3.059  23.537  0.00  0.00    -0.007 A 
ATOM      9  C   UNL     1      11.302   3.731  23.533  0.00  0.00    +0.009 A 
ATOM     10  C   UNL     1      11.410   5.124  23.568  0.00  0.00    +0.001 A 
ATOM     11  C   UNL     1      10.265   5.901  23.583  0.00  0.00    +0.001 A 
ATOM     12  C   UNL     1       9.018   5.281  23.590  0.00  0.00    +0.012 A 
ATOM     13  C   UNL     1       8.883   3.871  23.581  0.00  0.00    +0.028 A 
BRANCH  13  14
ATOM     14  C   UNL     1       7.520   3.335  23.677  0.00  0.00    +0.180 A 
ATOM     15  N   UNL     1       6.640   3.264  22.626  0.00  0.00    -0.239 N 
ATOM     16  H   UNL     1       6.762   3.547  21.662  0.00  0.00    +0.192 HD
ATOM     17  N   UNL     1       5.477   2.734  23.016  0.00  0.00    -0.046 NA
ATOM     18  N   UNL     1       5.633   2.486  24.306  0.00  0.00    -0.023 NA
ATOM     19  N   UNL     1       6.884   2.861  24.731  0.00  0.00    -0.108 NA
ENDBRANCH  13  14
ENDBRANCH   5   8
ENDBRANCH   1   2
BRANCH   1  21
ATOM     20  C   UNL     1       6.884  -2.800  24.063  0.00  0.00    +0.111 A 
ATOM     21  N   UNL     1       8.197  -3.148  24.318  0.00  0.00    -0.318 N 
ATOM     22  C   UNL     1       8.168  -4.167  25.282  0.00  0.00    +0.153 A 
ATOM     23  C   UNL     1       6.881  -4.092  25.803  0.00  0.00    +0.105 A 
ATOM     24  N   UNL     1       6.105  -3.273  25.015  0.00  0.00    -0.233 NA
BRANCH  23  25
ATOM     25  C   UNL     1       6.266  -4.800  26.990  0.00  0.00    +0.104 C 
ATOM     26  C   UNL     1       5.544  -6.088  26.569  0.00  0.00    +0.048 C 
ATOM     27  C   UNL     1       5.303  -3.911  27.778  0.00  0.00    +0.048 C 
BRANCH  25  28
ATOM     28  O   UNL     1       7.322  -5.189  27.888  0.00  0.00    -0.383 OA
ATOM     29  H   UNL     1       7.702  -6.013  27.528  0.00  0.00    +0.211 HD
ENDBRANCH  25  28
ENDBRANCH  23  25
BRANCH  22  30
ATOM     30  C   UNL     1       9.283  -5.058  25.544  0.00  0.00    +0.355 C 
ATOM     31  O   UNL     1       9.694  -5.901  24.756  0.00  0.00    -0.243 OA
BRANCH  30  32
ATOM     32  O   UNL     1       9.872  -4.892  26.748  0.00  0.00    -0.476 OA
ATOM     33  H   UNL     1       9.479  -5.424  27.476  0.00  0.00    +0.295 HD
ENDBRANCH  30  32
ENDBRANCH  22  30
BRANCH  20  34
ATOM     34  C   UNL     1       6.417  -2.027  22.869  0.00  0.00    +0.074 C 
BRANCH  34  36
ATOM     35  C   UNL     1       6.238  -4.263  21.643  0.00  0.00    +0.004 C 
ATOM     36  C   UNL     1       5.730  -2.832  21.760  0.00  0.00    +0.004 C 
ENDBRANCH  34  36
ENDBRANCH  20  34
ENDBRANCH   1  21
TORSDOF 10
ENDMDL
MODEL 3
REMARK VINA RESULT:      -7.4      2.148      2.916
REMARK  Name = 
REMARK  13 active torsions:
REMARK  status: ('A' for Active; 'I' for Inactive)
REMARK    1  A    between atoms: C_1  and  C_2
REMARK    2  A    between atoms: C_2  and  C_3
REMARK    3  A    between atoms: C_3  and  C_4
REMARK    4  A    between atoms: C_6  and  C_30
REMARK    5  A    between atoms: C_7  and  C_27
REMARK    6  A    between atoms: N_8  and  C_9
REMARK    7  A    between atoms: C_9  and  C_10
REMARK    8  A    between atoms: C_13  and  C_16
REMARK    9  A    between atoms: C_17  and  C_22
REMARK   10  A    between atoms: C_27  and  O_28
REMARK   11  A    between atoms: C_30  and  C_31
REMARK   12  A    between atoms: C_30  and  C_32
REMARK   13  A    between atoms: C_30  and  O_33
REMARK                            x       y       z     vdW  Elec       q    Type
REMARK                         _______ _______ _______ _____ _____    ______ ____
ROOT
ATOM      1  C   UNL     1       8.289  -4.164  23.269  0.00  0.00    +0.159 C 
ENDROOT
BRANCH   1   2
ATOM      2  C   UNL     1       8.577  -2.688  23.097  0.00  0.00    -0.028 A 
ATOM      3  C   UNL     1       9.791  -2.141  23.514  0.00  0.00    +0.006 A 
ATOM      4  C   UNL     1       9.972  -0.754  23.598  0.00  0.00    +0.009 A 
ATOM      5  C   UNL     1       8.934   0.152  23.314  0.00  0.00    -0.017 A 
ATOM      6  C   UNL     1       7.740  -0.403  22.829  0.00  0.00    +0.009 A 
ATOM      7  C   UNL     1       7.559  -1.795  22.729  0.00  0.00    +0.006 A 
BRANCH   5   8
ATOM      8  C   UNL     1       9.121   1.614  23.556  0.00  0.00    -0.007 A 
ATOM      9  C   UNL     1      10.379   2.184  23.233  0.00  0.00    +0.009 A 
ATOM     10  C   UNL     1      10.673   3.533  23.445  0.00  0.00    +0.001 A 
ATOM     11  C   UNL     1       9.706   4.373  23.968  0.00  0.00    +0.001 A 
ATOM     12  C   UNL     1       8.457   3.854  24.301  0.00  0.00    +0.012 A 
ATOM     13  C   UNL     1       8.144   2.484  24.119  0.00  0.00    +0.028 A 
BRANCH  13  14
ATOM     14  C   UNL     1       6.826   2.038  24.588  0.00  0.00    +0.180 A 
ATOM     15  N   UNL     1       6.603   1.413  25.789  0.00  0.00    -0.239 N 
ATOM     16  H   UNL     1       7.258   1.163  26.518  0.00  0.00    +0.192 HD
ATOM     17  N   UNL     1       5.306   1.124  25.939  0.00  0.00    -0.046 NA
ATOM     18  N   UNL     1       4.730   1.562  24.831  0.00  0.00    -0.023 NA
ATOM     19  N   UNL     1       5.656   2.119  23.983  0.00  0.00    -0.108 NA
ENDBRANCH  13  14
ENDBRANCH   5   8
ENDBRANCH   1   2
BRANCH   1  21
ATOM     20  C   UNL     1       7.072  -4.417  25.543  0.00  0.00    +0.111 A 
ATOM     21  N   UNL     1       7.224  -4.603  24.182  0.00  0.00    -0.318 N 
ATOM     22  C   UNL     1       6.028  -5.164  23.712  0.00  0.00    +0.153 A 
ATOM     23  C   UNL     1       5.398  -5.615  24.867  0.00  0.00    +0.105 A 
ATOM     24  N   UNL     1       6.040  -5.113  25.975  0.00  0.00    -0.233 NA
BRANCH  23  25
ATOM     25  C   UNL     1       4.155  -6.461  25.034  0.00  0.00    +0.104 C 
ATOM     26  C   UNL     1       2.892  -5.704  24.600  0.00  0.00    +0.048 C 
ATOM     27  C   UNL     1       3.975  -6.976  26.463  0.00  0.00    +0.048 C 
BRANCH  25  28
ATOM     28  O   UNL     1       4.267  -7.612  24.177  0.00  0.00    -0.383 OA
ATOM     29  H   UNL     1       3.867  -7.360  23.322  0.00  0.00    +0.211 HD
ENDBRANCH  25  28
ENDBRANCH  23  25
BRANCH  22  30
ATOM     30  C   UNL     1       5.634  -5.165  22.316  0.00  0.00    +0.355 C 
ATOM     31  O   UNL     1       5.266  -4.171  21.701  0.00  0.00    -0.243 OA
BRANCH  30  32
ATOM     32  O   UNL     1       5.710  -6.366  21.705  0.00  0.00    -0.476 OA
ATOM     33  H   UNL     1       5.382  -6.379  20.777  0.00  0.00    +0.295 HD
ENDBRANCH  30  32
ENDBRANCH  22  30
BRANCH  20  34
ATOM     34  C   UNL     1       7.934  -3.532  26.390  0.00  0.00    +0.074 C 
BRANCH  34  36
ATOM     35  C   UNL     1       8.612  -1.120  26.897  0.00  0.00    +0.004 C 
ATOM     36  C   UNL     1       7.483  -2.074  26.534  0.00  0.00    +0.004 C 
ENDBRANCH  34  36
ENDBRANCH  20  34
ENDBRANCH   1  21
TORSDOF 10
ENDMDL
MODEL 4
REMARK VINA RESULT:      -7.4      3.413      8.507
REMARK  Name = 
REMARK  13 active torsions:
REMARK  status: ('A' for Active; 'I' for Inactive)
REMARK    1  A    between atoms: C_1  and  C_2
REMARK    2  A    between atoms: C_2  and  C_3
REMARK    3  A    between atoms: C_3  and  C_4
REMARK    4  A    between atoms: C_6  and  C_30
REMARK    5  A    between atoms: C_7  and  C_27
REMARK    6  A    between atoms: N_8  and  C_9
REMARK    7  A    between atoms: C_9  and  C_10
REMARK    8  A    between atoms: C_13  and  C_16
REMARK    9  A    between atoms: C_17  and  C_22
REMARK   10  A    between atoms: C_27  and  O_28
REMARK   11  A    between atoms: C_30  and  C_31
REMARK   12  A    between atoms: C_30  and  C_32
REMARK   13  A    between atoms: C_30  and  O_33
REMARK                            x       y       z     vdW  Elec       q    Type
REMARK                         _______ _______ _______ _____ _____    ______ ____
ROOT
ATOM      1  C   UNL     1       9.194  -1.391  23.338  0.00  0.00    +0.159 C 
ENDROOT
BRANCH   1   2
ATOM      2  C   UNL     1       8.125  -2.460  23.271  0.00  0.00    -0.028 A 
ATOM      3  C   UNL     1       6.797  -2.130  22.998  0.00  0.00    +0.006 A 
ATOM      4  C   UNL     1       5.765  -3.059  23.184  0.00  0.00    +0.009 A 
ATOM      5  C   UNL     1       6.004  -4.348  23.693  0.00  0.00    -0.017 A 
ATOM      6  C   UNL     1       7.348  -4.695  23.899  0.00  0.00    +0.009 A 
ATOM      7  C   UNL     1       8.389  -3.770  23.700  0.00  0.00    +0.006 A 
BRANCH   5   8
ATOM      8  C   UNL     1       4.864  -5.258  24.015  0.00  0.00    -0.007 A 
ATOM      9  C   UNL     1       3.946  -5.562  22.976  0.00  0.00    +0.009 A 
ATOM     10  C   UNL     1       2.828  -6.376  23.172  0.00  0.00    +0.001 A 
ATOM     11  C   UNL     1       2.599  -6.940  24.414  0.00  0.00    +0.001 A 
ATOM     12  C   UNL     1       3.474  -6.667  25.462  0.00  0.00    +0.012 A 
ATOM     13  C   UNL     1       4.600  -5.823  25.295  0.00  0.00    +0.028 A 
BRANCH  13  14
ATOM     14  C   UNL     1       5.399  -5.540  26.493  0.00  0.00    +0.180 A 
ATOM     15  N   UNL     1       6.394  -6.356  26.971  0.00  0.00    -0.239 N 
ATOM     16  H   UNL     1       6.734  -7.238  26.611  0.00  0.00    +0.192 HD
ATOM     17  N   UNL     1       6.941  -5.840  28.076  0.00  0.00    -0.046 NA
ATOM     18  N   UNL     1       6.282  -4.712  28.286  0.00  0.00    -0.023 NA
ATOM     19  N   UNL     1       5.320  -4.518  27.324  0.00  0.00    -0.108 NA
ENDBRANCH  13  14
ENDBRANCH   5   8
ENDBRANCH   1   2
BRANCH   1  21
ATOM     20  C   UNL     1       8.698   0.317  25.222  0.00  0.00    +0.111 A 
ATOM     21  N   UNL     1       8.882  -0.074  23.909  0.00  0.00    -0.318 N 
ATOM     22  C   UNL     1       8.913   1.097  23.137  0.00  0.00    +0.153 A 
ATOM     23  C   UNL     1       8.377   2.063  23.979  0.00  0.00    +0.105 A 
ATOM     24  N   UNL     1       8.287   1.569  25.260  0.00  0.00    -0.233 NA
BRANCH  23  25
ATOM     25  C   UNL     1       7.979   3.495  23.694  0.00  0.00    +0.104 C 
ATOM     26  C   UNL     1       7.554   4.230  24.973  0.00  0.00    +0.048 C 
ATOM     27  C   UNL     1       6.868   3.606  22.649  0.00  0.00    +0.048 C 
BRANCH  25  28
ATOM     28  O   UNL     1       9.126   4.193  23.174  0.00  0.00    -0.383 OA
ATOM     29  H   UNL     1       9.670   3.526  22.712  0.00  0.00    +0.211 HD
ENDBRANCH  25  28
ENDBRANCH  23  25
BRANCH  22  30
ATOM     30  C   UNL     1       9.455   1.158  21.792  0.00  0.00    +0.355 C 
ATOM     31  O   UNL     1       9.153   0.387  20.889  0.00  0.00    -0.243 OA
BRANCH  30  32
ATOM     32  O   UNL     1      10.338   2.158  21.580  0.00  0.00    -0.476 OA
ATOM     33  H   UNL     1      10.657   2.606  22.396  0.00  0.00    +0.295 HD
ENDBRANCH  30  32
ENDBRANCH  22  30
BRANCH  20  34
ATOM     34  C   UNL     1       8.957  -0.544  26.419  0.00  0.00    +0.074 C 
BRANCH  34  36
ATOM     35  C   UNL     1       6.488  -1.198  26.528  0.00  0.00    +0.004 C 
ATOM     36  C   UNL     1       7.932  -1.649  26.699  0.00  0.00    +0.004 C 
ENDBRANCH  34  36
ENDBRANCH  20  34
ENDBRANCH   1  21
TORSDOF 10
ENDMDL
MODEL 5
REMARK VINA RESULT:      -7.3      3.502      8.653
REMARK  Name = 
REMARK  13 active torsions:
REMARK  status: ('A' for Active; 'I' for Inactive)
REMARK    1  A    between atoms: C_1  and  C_2
REMARK    2  A    between atoms: C_2  and  C_3
REMARK    3  A    between atoms: C_3  and  C_4
REMARK    4  A    between atoms: C_6  and  C_30
REMARK    5  A    between atoms: C_7  and  C_27
REMARK    6  A    between atoms: N_8  and  C_9
REMARK    7  A    between atoms: C_9  and  C_10
REMARK    8  A    between atoms: C_13  and  C_16
REMARK    9  A    between atoms: C_17  and  C_22
REMARK   10  A    between atoms: C_27  and  O_28
REMARK   11  A    between atoms: C_30  and  C_31
REMARK   12  A    between atoms: C_30  and  C_32
REMARK   13  A    between atoms: C_30  and  O_33
REMARK                            x       y       z     vdW  Elec       q    Type
REMARK                         _______ _______ _______ _____ _____    ______ ____
ROOT
ATOM      1  C   UNL     1       8.883  -0.470  25.967  0.00  0.00    +0.159 C 
ENDROOT
BRANCH   1   2
ATOM      2  C   UNL     1       8.065  -1.670  25.540  0.00  0.00    -0.028 A 
ATOM      3  C   UNL     1       6.702  -1.549  25.268  0.00  0.00    +0.006 A 
ATOM      4  C   UNL     1       5.888  -2.680  25.124  0.00  0.00    +0.009 A 
ATOM      5  C   UNL     1       6.386  -3.985  25.290  0.00  0.00    -0.017 A 
ATOM      6  C   UNL     1       7.769  -4.100  25.495  0.00  0.00    +0.009 A 
ATOM      7  C   UNL     1       8.594  -2.967  25.625  0.00  0.00    +0.006 A 
BRANCH   5   8
ATOM      8  C   UNL     1       5.459  -5.156  25.274  0.00  0.00    -0.007 A 
ATOM      9  C   UNL     1       5.063  -5.704  26.521  0.00  0.00    +0.009 A 
ATOM     10  C   UNL     1       4.224  -6.816  26.625  0.00  0.00    +0.001 A 
ATOM     11  C   UNL     1       3.726  -7.410  25.478  0.00  0.00    +0.001 A 
ATOM     12  C   UNL     1       4.091  -6.904  24.233  0.00  0.00    +0.012 A 
ATOM     13  C   UNL     1       4.961  -5.793  24.102  0.00  0.00    +0.028 A 
BRANCH  13  14
ATOM     14  C   UNL     1       5.342  -5.407  22.738  0.00  0.00    +0.180 A 
ATOM     15  N   UNL     1       5.897  -6.261  21.818  0.00  0.00    -0.239 N 
ATOM     16  H   UNL     1       6.129  -7.242  21.906  0.00  0.00    +0.192 HD
ATOM     17  N   UNL     1       6.138  -5.626  20.667  0.00  0.00    -0.046 NA
ATOM     18  N   UNL     1       5.741  -4.382  20.876  0.00  0.00    -0.023 NA
ATOM     19  N   UNL     1       5.257  -4.228  22.152  0.00  0.00    -0.108 NA
ENDBRANCH  13  14
ENDBRANCH   5   8
ENDBRANCH   1   2
BRANCH   1  21
ATOM     20  C   UNL     1       9.839   0.710  23.868  0.00  0.00    +0.111 A 
ATOM     21  N   UNL     1       9.098   0.643  25.033  0.00  0.00    -0.318 N 
ATOM     22  C   UNL     1       8.364   1.836  25.117  0.00  0.00    +0.153 A 
ATOM     23  C   UNL     1       8.994   2.677  24.207  0.00  0.00    +0.105 A 
ATOM     24  N   UNL     1       9.869   1.953  23.431  0.00  0.00    -0.233 NA
BRANCH  23  25
ATOM     25  C   UNL     1       8.797   4.153  23.945  0.00  0.00    +0.104 C 
ATOM     26  C   UNL     1       8.662   4.947  25.252  0.00  0.00    +0.048 C 
ATOM     27  C   UNL     1       7.593   4.442  23.047  0.00  0.00    +0.048 C 
BRANCH  25  28
ATOM     28  O   UNL     1       9.964   4.658  23.270  0.00  0.00    -0.383 OA
ATOM     29  H   UNL     1      10.707   4.569  23.897  0.00  0.00    +0.211 HD
ENDBRANCH  25  28
ENDBRANCH  23  25
BRANCH  22  30
ATOM     30  C   UNL     1       7.200   2.005  25.967  0.00  0.00    +0.355 C 
ATOM     31  O   UNL     1       6.043   1.865  25.590  0.00  0.00    -0.243 OA
BRANCH  30  32
ATOM     32  O   UNL     1       7.475   2.326  27.249  0.00  0.00    -0.476 OA
ATOM     33  H   UNL     1       6.830   2.938  27.669  0.00  0.00    +0.295 HD
ENDBRANCH  30  32
ENDBRANCH  22  30
BRANCH  20  34
ATOM     34  C   UNL     1      10.483  -0.460  23.191  0.00  0.00    +0.074 C 
BRANCH  34  36
ATOM     35  C   UNL     1       8.679  -1.873  22.057  0.00  0.00    +0.004 C 
ATOM     36  C   UNL     1       9.851  -0.919  21.872  0.00  0.00    +0.004 C 
ENDBRANCH  34  36
ENDBRANCH  20  34
ENDBRANCH   1  21
TORSDOF 10
ENDMDL
MODEL 6
REMARK VINA RESULT:      -7.3      3.690      8.585
REMARK  Name = 
REMARK  13 active torsions:
REMARK  status: ('A' for Active; 'I' for Inactive)
REMARK    1  A    between atoms: C_1  and  C_2
REMARK    2  A    between atoms: C_2  and  C_3
REMARK    3  A    between atoms: C_3  and  C_4
REMARK    4  A    between atoms: C_6  and  C_30
REMARK    5  A    between atoms: C_7  and  C_27
REMARK    6  A    between atoms: N_8  and  C_9
REMARK    7  A    between atoms: C_9  and  C_10
REMARK    8  A    between atoms: C_13  and  C_16
REMARK    9  A    between atoms: C_17  and  C_22
REMARK   10  A    between atoms: C_27  and  O_28
REMARK   11  A    between atoms: C_30  and  C_31
REMARK   12  A    between atoms: C_30  and  C_32
REMARK   13  A    between atoms: C_30  and  O_33
REMARK                            x       y       z     vdW  Elec       q    Type
REMARK                         _______ _______ _______ _____ _____    ______ ____
ROOT
ATOM      1  C   UNL     1       9.337   1.268  25.213  0.00  0.00    +0.159 C 
ENDROOT
BRANCH   1   2
ATOM      2  C   UNL     1       8.663  -0.073  25.017  0.00  0.00    -0.028 A 
ATOM      3  C   UNL     1       9.405  -1.254  25.005  0.00  0.00    +0.006 A 
ATOM      4  C   UNL     1       8.839  -2.462  24.575  0.00  0.00    +0.009 A 
ATOM      5  C   UNL     1       7.520  -2.539  24.093  0.00  0.00    -0.017 A 
ATOM      6  C   UNL     1       6.760  -1.363  24.174  0.00  0.00    +0.009 A 
ATOM      7  C   UNL     1       7.319  -0.150  24.619  0.00  0.00    +0.006 A 
BRANCH   5   8
ATOM      8  C   UNL     1       7.002  -3.812  23.507  0.00  0.00    -0.007 A 
ATOM      9  C   UNL     1       6.790  -3.857  22.106  0.00  0.00    +0.009 A 
ATOM     10  C   UNL     1       6.282  -4.984  21.455  0.00  0.00    +0.001 A 
ATOM     11  C   UNL     1       5.989  -6.123  22.184  0.00  0.00    +0.001 A 
ATOM     12  C   UNL     1       6.182  -6.121  23.563  0.00  0.00    +0.012 A 
ATOM     13  C   UNL     1       6.672  -4.982  24.248  0.00  0.00    +0.028 A 
BRANCH  13  14
ATOM     14  C   UNL     1       6.750  -5.072  25.712  0.00  0.00    +0.180 A 
ATOM     15  N   UNL     1       7.710  -5.776  26.393  0.00  0.00    -0.239 N 
ATOM     16  H   UNL     1       8.484  -6.322  26.038  0.00  0.00    +0.192 HD
ATOM     17  N   UNL     1       7.524  -5.676  27.713  0.00  0.00    -0.046 NA
ATOM     18  N   UNL     1       6.447  -4.920  27.848  0.00  0.00    -0.023 NA
ATOM     19  N   UNL     1       5.951  -4.547  26.622  0.00  0.00    -0.108 NA
ENDBRANCH  13  14
ENDBRANCH   5   8
ENDBRANCH   1   2
BRANCH   1  21
ATOM     20  C   UNL     1       9.405   2.518  22.944  0.00  0.00    +0.111 A 
ATOM     21  N   UNL     1       9.069   2.368  24.277  0.00  0.00    -0.318 N 
ATOM     22  C   UNL     1       8.203   3.424  24.599  0.00  0.00    +0.153 A 
ATOM     23  C   UNL     1       8.379   4.326  23.556  0.00  0.00    +0.105 A 
ATOM     24  N   UNL     1       9.091   3.733  22.540  0.00  0.00    -0.233 NA
BRANCH  23  25
ATOM     25  C   UNL     1       7.865   5.739  23.392  0.00  0.00    +0.104 C 
ATOM     26  C   UNL     1       8.476   6.689  24.431  0.00  0.00    +0.048 C 
ATOM     27  C   UNL     1       6.339   5.827  23.457  0.00  0.00    +0.048 C 
BRANCH  25  28
ATOM     28  O   UNL     1       8.265   6.224  22.097  0.00  0.00    -0.383 OA
ATOM     29  H   UNL     1       7.503   6.718  21.738  0.00  0.00    +0.211 HD
ENDBRANCH  25  28
ENDBRANCH  23  25
BRANCH  22  30
ATOM     30  C   UNL     1       7.336   3.425  25.762  0.00  0.00    +0.355 C 
ATOM     31  O   UNL     1       6.211   2.941  25.787  0.00  0.00    -0.243 OA
BRANCH  30  32
ATOM     32  O   UNL     1       7.864   4.001  26.863  0.00  0.00    -0.476 OA
ATOM     33  H   UNL     1       8.643   3.534  27.241  0.00  0.00    +0.295 HD
ENDBRANCH  30  32
ENDBRANCH  22  30
BRANCH  20  34
ATOM     34  C   UNL     1      10.006   1.449  22.084  0.00  0.00    +0.074 C 
BRANCH  34  36
ATOM     35  C   UNL     1       9.457  -0.937  21.350  0.00  0.00    +0.004 C 
ATOM     36  C   UNL     1       9.023   0.523  21.360  0.00  0.00    +0.004 C 
ENDBRANCH  34  36
ENDBRANCH  20  34
ENDBRANCH   1  21
TORSDOF 10
ENDMDL
MODEL 7
REMARK VINA RESULT:      -7.1      3.820      8.910
REMARK  Name = 
REMARK  13 active torsions:
REMARK  status: ('A' for Active; 'I' for Inactive)
REMARK    1  A    between atoms: C_1  and  C_2
REMARK    2  A    between atoms: C_2  and  C_3
REMARK    3  A    between atoms: C_3  and  C_4
REMARK    4  A    between atoms: C_6  and  C_30
REMARK    5  A    between atoms: C_7  and  C_27
REMARK    6  A    between atoms: N_8  and  C_9
REMARK    7  A    between atoms: C_9  and  C_10
REMARK    8  A    between atoms: C_13  and  C_16
REMARK    9  A    between atoms: C_17  and  C_22
REMARK   10  A    between atoms: C_27  and  O_28
REMARK   11  A    between atoms: C_30  and  C_31
REMARK   12  A    between atoms: C_30  and  C_32
REMARK   13  A    between atoms: C_30  and  O_33
REMARK                            x       y       z     vdW  Elec       q    Type
REMARK                         _______ _______ _______ _____ _____    ______ ____
ROOT
ATOM      1  C   UNL     1       7.024   1.421  22.620  0.00  0.00    +0.159 C 
ENDROOT
BRANCH   1   2
ATOM      2  C   UNL     1       6.878   0.065  23.276  0.00  0.00    -0.028 A 
ATOM      3  C   UNL     1       6.766  -1.095  22.509  0.00  0.00    +0.006 A 
ATOM      4  C   UNL     1       6.377  -2.311  23.086  0.00  0.00    +0.009 A 
ATOM      5  C   UNL     1       6.039  -2.418  24.447  0.00  0.00    -0.017 A 
ATOM      6  C   UNL     1       6.221  -1.265  25.224  0.00  0.00    +0.009 A 
ATOM      7  C   UNL     1       6.625  -0.044  24.653  0.00  0.00    +0.006 A 
BRANCH   5   8
ATOM      8  C   UNL     1       5.489  -3.696  24.991  0.00  0.00    -0.007 A 
ATOM      9  C   UNL     1       4.087  -3.784  25.185  0.00  0.00    +0.009 A 
ATOM     10  C   UNL     1       3.468  -4.919  25.715  0.00  0.00    +0.001 A 
ATOM     11  C   UNL     1       4.231  -6.024  26.049  0.00  0.00    +0.001 A 
ATOM     12  C   UNL     1       5.612  -5.979  25.876  0.00  0.00    +0.012 A 
ATOM     13  C   UNL     1       6.265  -4.830  25.365  0.00  0.00    +0.028 A 
BRANCH  13  14
ATOM     14  C   UNL     1       7.731  -4.871  25.310  0.00  0.00    +0.180 A 
ATOM     15  N   UNL     1       8.551  -4.715  26.400  0.00  0.00    -0.239 N 
ATOM     16  H   UNL     1       8.312  -4.555  27.369  0.00  0.00    +0.192 HD
ATOM     17  N   UNL     1       9.836  -4.798  26.042  0.00  0.00    -0.046 NA
ATOM     18  N   UNL     1       9.812  -4.996  24.734  0.00  0.00    -0.023 NA
ATOM     19  N   UNL     1       8.521  -5.032  24.266  0.00  0.00    -0.108 NA
ENDBRANCH  13  14
ENDBRANCH   5   8
ENDBRANCH   1   2
BRANCH   1  21
ATOM     20  C   UNL     1       9.553   1.903  22.911  0.00  0.00    +0.111 A 
ATOM     21  N   UNL     1       8.213   2.242  22.885  0.00  0.00    -0.318 N 
ATOM     22  C   UNL     1       8.146   3.640  22.974  0.00  0.00    +0.153 A 
ATOM     23  C   UNL     1       9.412   4.005  23.420  0.00  0.00    +0.105 A 
ATOM     24  N   UNL     1      10.263   2.928  23.339  0.00  0.00    -0.233 NA
BRANCH  23  25
ATOM     25  C   UNL     1       9.935   5.348  23.878  0.00  0.00    +0.104 C 
ATOM     26  C   UNL     1      11.470   5.383  23.888  0.00  0.00    +0.048 C 
ATOM     27  C   UNL     1       9.408   5.753  25.255  0.00  0.00    +0.048 C 
BRANCH  25  28
ATOM     28  O   UNL     1       9.501   6.351  22.942  0.00  0.00    -0.383 OA
ATOM     29  H   UNL     1       8.864   5.915  22.344  0.00  0.00    +0.211 HD
ENDBRANCH  25  28
ENDBRANCH  23  25
BRANCH  22  30
ATOM     30  C   UNL     1       6.975   4.414  22.605  0.00  0.00    +0.355 C 
ATOM     31  O   UNL     1       5.902   4.366  23.193  0.00  0.00    -0.243 OA
BRANCH  30  32
ATOM     32  O   UNL     1       7.144   5.228  21.541  0.00  0.00    -0.476 OA
ATOM     33  H   UNL     1       6.318   5.637  21.199  0.00  0.00    +0.295 HD
ENDBRANCH  30  32
ENDBRANCH  22  30
BRANCH  20  34
ATOM     34  C   UNL     1      10.112   0.580  22.489  0.00  0.00    +0.074 C 
BRANCH  34  36
ATOM     35  C   UNL     1      10.122  -1.828  23.347  0.00  0.00    +0.004 C 
ATOM     36  C   UNL     1      10.516  -0.382  23.612  0.00  0.00    +0.004 C 
ENDBRANCH  34  36
ENDBRANCH  20  34
ENDBRANCH   1  21
TORSDOF 10
ENDMDL
MODEL 8
REMARK VINA RESULT:      -6.9      4.038      8.524
REMARK  Name = 
REMARK  13 active torsions:
REMARK  status: ('A' for Active; 'I' for Inactive)
REMARK    1  A    between atoms: C_1  and  C_2
REMARK    2  A    between atoms: C_2  and  C_3
REMARK    3  A    between atoms: C_3  and  C_4
REMARK    4  A    between atoms: C_6  and  C_30
REMARK    5  A    between atoms: C_7  and  C_27
REMARK    6  A    between atoms: N_8  and  C_9
REMARK    7  A    between atoms: C_9  and  C_10
REMARK    8  A    between atoms: C_13  and  C_16
REMARK    9  A    between atoms: C_17  and  C_22
REMARK   10  A    between atoms: C_27  and  O_28
REMARK   11  A    between atoms: C_30  and  C_31
REMARK   12  A    between atoms: C_30  and  C_32
REMARK   13  A    between atoms: C_30  and  O_33
REMARK                            x       y       z     vdW  Elec       q    Type
REMARK                         _______ _______ _______ _____ _____    ______ ____
ROOT
ATOM      1  C   UNL     1       7.156   1.891  22.442  0.00  0.00    +0.159 C 
ENDROOT
BRANCH   1   2
ATOM      2  C   UNL     1       6.986   0.507  23.030  0.00  0.00    -0.028 A 
ATOM      3  C   UNL     1       6.428   0.329  24.297  0.00  0.00    +0.006 A 
ATOM      4  C   UNL     1       6.499  -0.906  24.954  0.00  0.00    +0.009 A 
ATOM      5  C   UNL     1       7.170  -2.010  24.397  0.00  0.00    -0.017 A 
ATOM      6  C   UNL     1       7.666  -1.844  23.096  0.00  0.00    +0.009 A 
ATOM      7  C   UNL     1       7.584  -0.609  22.425  0.00  0.00    +0.006 A 
BRANCH   5   8
ATOM      8  C   UNL     1       7.350  -3.263  25.190  0.00  0.00    -0.007 A 
ATOM      9  C   UNL     1       8.481  -3.350  26.042  0.00  0.00    +0.009 A 
ATOM     10  C   UNL     1       8.764  -4.485  26.807  0.00  0.00    +0.001 A 
ATOM     11  C   UNL     1       7.908  -5.571  26.766  0.00  0.00    +0.001 A 
ATOM     12  C   UNL     1       6.787  -5.528  25.941  0.00  0.00    +0.012 A 
ATOM     13  C   UNL     1       6.493  -4.399  25.137  0.00  0.00    +0.028 A 
BRANCH  13  14
ATOM     14  C   UNL     1       5.332  -4.506  24.245  0.00  0.00    +0.180 A 
ATOM     15  N   UNL     1       5.331  -5.191  23.056  0.00  0.00    -0.239 N 
ATOM     16  H   UNL     1       6.075  -5.711  22.610  0.00  0.00    +0.192 HD
ATOM     17  N   UNL     1       4.135  -5.110  22.463  0.00  0.00    -0.046 NA
ATOM     18  N   UNL     1       3.402  -4.369  23.278  0.00  0.00    -0.023 NA
ATOM     19  N   UNL     1       4.129  -3.980  24.377  0.00  0.00    -0.108 NA
ENDBRANCH  13  14
ENDBRANCH   5   8
ENDBRANCH   1   2
BRANCH   1  21
ATOM     20  C   UNL     1       9.565   2.511  23.168  0.00  0.00    +0.111 A 
ATOM     21  N   UNL     1       8.228   2.770  22.928  0.00  0.00    -0.318 N 
ATOM     22  C   UNL     1       8.055   4.157  23.048  0.00  0.00    +0.153 A 
ATOM     23  C   UNL     1       9.202   4.577  23.712  0.00  0.00    +0.105 A 
ATOM     24  N   UNL     1      10.125   3.557  23.741  0.00  0.00    -0.233 NA
BRANCH  23  25
ATOM     25  C   UNL     1       9.553   5.928  24.293  0.00  0.00    +0.104 C 
ATOM     26  C   UNL     1      11.070   6.164  24.302  0.00  0.00    +0.048 C 
ATOM     27  C   UNL     1       8.998   6.130  25.704  0.00  0.00    +0.048 C 
BRANCH  25  28
ATOM     28  O   UNL     1       8.978   6.950  23.458  0.00  0.00    -0.383 OA
ATOM     29  H   UNL     1       8.445   6.487  22.782  0.00  0.00    +0.211 HD
ENDBRANCH  25  28
ENDBRANCH  23  25
BRANCH  22  30
ATOM     30  C   UNL     1       6.912   4.873  22.513  0.00  0.00    +0.355 C 
ATOM     31  O   UNL     1       5.774   4.790  22.957  0.00  0.00    -0.243 OA
BRANCH  30  32
ATOM     32  O   UNL     1       7.187   5.677  21.463  0.00  0.00    -0.476 OA
ATOM     33  H   UNL     1       7.134   6.640  21.655  0.00  0.00    +0.295 HD
ENDBRANCH  30  32
ENDBRANCH  22  30
BRANCH  20  34
ATOM     34  C   UNL     1      10.272   1.242  22.803  0.00  0.00    +0.074 C 
BRANCH  34  36
ATOM     35  C   UNL     1      10.038   0.247  25.146  0.00  0.00    +0.004 C 
ATOM     36  C   UNL     1      10.950   0.485  23.950  0.00  0.00    +0.004 C 
ENDBRANCH  34  36
ENDBRANCH  20  34
ENDBRANCH   1  21
TORSDOF 10
ENDMDL
MODEL 9
REMARK VINA RESULT:      -6.8      2.788      4.807
REMARK  Name = 
REMARK  13 active torsions:
REMARK  status: ('A' for Active; 'I' for Inactive)
REMARK    1  A    between atoms: C_1  and  C_2
REMARK    2  A    between atoms: C_2  and  C_3
REMARK    3  A    between atoms: C_3  and  C_4
REMARK    4  A    between atoms: C_6  and  C_30
REMARK    5  A    between atoms: C_7  and  C_27
REMARK    6  A    between atoms: N_8  and  C_9
REMARK    7  A    between atoms: C_9  and  C_10
REMARK    8  A    between atoms: C_13  and  C_16
REMARK    9  A    between atoms: C_17  and  C_22
REMARK   10  A    between atoms: C_27  and  O_28
REMARK   11  A    between atoms: C_30  and  C_31
REMARK   12  A    between atoms: C_30  and  C_32
REMARK   13  A    between atoms: C_30  and  O_33
REMARK                            x       y       z     vdW  Elec       q    Type
REMARK                         _______ _______ _______ _____ _____    ______ ____
ROOT
ATOM      1  C   UNL     1       6.777  -4.550  26.426  0.00  0.00    +0.159 C 
ENDROOT
BRANCH   1   2
ATOM      2  C   UNL     1       7.065  -3.067  26.343  0.00  0.00    -0.028 A 
ATOM      3  C   UNL     1       6.121  -2.180  25.824  0.00  0.00    +0.006 A 
ATOM      4  C   UNL     1       6.463  -0.860  25.505  0.00  0.00    +0.009 A 
ATOM      5  C   UNL     1       7.775  -0.374  25.647  0.00  0.00    -0.017 A 
ATOM      6  C   UNL     1       8.702  -1.249  26.233  0.00  0.00    +0.009 A 
ATOM      7  C   UNL     1       8.359  -2.572  26.569  0.00  0.00    +0.006 A 
BRANCH   5   8
ATOM      8  C   UNL     1       8.132   0.992  25.159  0.00  0.00    -0.007 A 
ATOM      9  C   UNL     1       7.692   2.104  25.924  0.00  0.00    +0.009 A 
ATOM     10  C   UNL     1       7.943   3.426  25.547  0.00  0.00    +0.001 A 
ATOM     11  C   UNL     1       8.669   3.686  24.398  0.00  0.00    +0.001 A 
ATOM     12  C   UNL     1       9.119   2.623  23.618  0.00  0.00    +0.012 A 
ATOM     13  C   UNL     1       8.855   1.275  23.966  0.00  0.00    +0.028 A 
BRANCH  13  14
ATOM     14  C   UNL     1       9.305   0.247  23.020  0.00  0.00    +0.180 A 
ATOM     15  N   UNL     1      10.349  -0.614  23.251  0.00  0.00    -0.239 N 
ATOM     16  H   UNL     1      10.954  -0.692  24.058  0.00  0.00    +0.192 HD
ATOM     17  N   UNL     1      10.526  -1.435  22.211  0.00  0.00    -0.046 NA
ATOM     18  N   UNL     1       9.601  -1.077  21.336  0.00  0.00    -0.023 NA
ATOM     19  N   UNL     1       8.846  -0.034  21.815  0.00  0.00    -0.108 NA
ENDBRANCH  13  14
ENDBRANCH   5   8
ENDBRANCH   1   2
BRANCH   1  21
ATOM     20  C   UNL     1       6.200  -5.414  24.052  0.00  0.00    +0.111 A 
ATOM     21  N   UNL     1       5.955  -5.198  25.396  0.00  0.00    -0.318 N 
ATOM     22  C   UNL     1       4.786  -5.905  25.714  0.00  0.00    +0.153 A 
ATOM     23  C   UNL     1       4.218  -6.180  24.476  0.00  0.00    +0.105 A 
ATOM     24  N   UNL     1       5.120  -5.901  23.475  0.00  0.00    -0.233 NA
BRANCH  23  25
ATOM     25  C   UNL     1       2.866  -6.766  24.130  0.00  0.00    +0.104 C 
ATOM     26  C   UNL     1       1.720  -5.844  24.572  0.00  0.00    +0.048 C 
ATOM     27  C   UNL     1       2.655  -8.161  24.721  0.00  0.00    +0.048 C 
BRANCH  25  28
ATOM     28  O   UNL     1       2.773  -6.889  22.699  0.00  0.00    -0.383 OA
ATOM     29  H   UNL     1       3.201  -7.736  22.466  0.00  0.00    +0.211 HD
ENDBRANCH  25  28
ENDBRANCH  23  25
BRANCH  22  30
ATOM     30  C   UNL     1       4.399  -6.249  27.070  0.00  0.00    +0.355 C 
ATOM     31  O   UNL     1       3.592  -5.617  27.740  0.00  0.00    -0.243 OA
BRANCH  30  32
ATOM     32  O   UNL     1       4.994  -7.355  27.567  0.00  0.00    -0.476 OA
ATOM     33  H   UNL     1       5.420  -7.235  28.445  0.00  0.00    +0.295 HD
ENDBRANCH  30  32
ENDBRANCH  22  30
BRANCH  20  34
ATOM     34  C   UNL     1       7.507  -5.161  23.367  0.00  0.00    +0.074 C 
BRANCH  34  36
ATOM     35  C   UNL     1       6.618  -3.017  22.296  0.00  0.00    +0.004 C 
ATOM     36  C   UNL     1       7.797  -3.710  22.965  0.00  0.00    +0.004 C 
ENDBRANCH  34  36
ENDBRANCH  20  34
ENDBRANCH   1  21
TORSDOF 10
ENDMDL
