MODEL 1
REMARK VINA RESULT:      -5.6      0.000      0.000
REMARK  Name = 
REMARK  21 active torsions:
REMARK  status: ('A' for Active; 'I' for Inactive)
REMARK    1  A    between atoms: C_1  and  C_2
REMARK    2  A    between atoms: C_2  and  C_3
REMARK    3  A    between atoms: C_2  and  C_4
REMARK    4  A    between atoms: C_2  and  S_5
REMARK    5  A    between atoms: S_5  and  C_8
REMARK    6  A    between atoms: C_8  and  C_9
REMARK    7  A    between atoms: C_9  and  C_11
REMARK    8  A    between atoms: C_9  and  C_18
REMARK    9  A    between atoms: C_11  and  C_12
REMARK   10  A    between atoms: N_20  and  C_21
REMARK   11  A    between atoms: C_21  and  C_23
REMARK   12  A    between atoms: C_21  and  C_29
REMARK   13  A    between atoms: C_23  and  C_24
REMARK   14  A    between atoms: N_31  and  C_32
REMARK   15  A    between atoms: C_32  and  C_34
REMARK   16  A    between atoms: C_32  and  C_41
REMARK   17  A    between atoms: C_34  and  C_35
REMARK   18  A    between atoms: C_41  and  O_43
REMARK   19  A    between atoms: C_41  and  C_44
REMARK   20  A    between atoms: C_44  and  O_46
REMARK   21  A    between atoms: C_44  and  C_47
REMARK                            x       y       z     vdW  Elec       q    Type
REMARK                         _______ _______ _______ _____ _____    ______ ____
ROOT
ATOM      1  C   UNL     1       6.464  -1.945  27.108  0.00  0.00    +0.165 C 
ENDROOT
BRANCH   1   3
ATOM      2  C   UNL     1       7.058   0.445  27.496  0.00  0.00    +0.219 C 
ATOM      3  N   UNL     1       6.277  -0.499  26.875  0.00  0.00    -0.303 N 
ATOM      4  H   UNL     1       5.843  -0.267  25.982  0.00  0.00    +0.149 HD
ATOM      5  O   UNL     1       7.982   0.117  28.236  0.00  0.00    -0.275 OA
BRANCH   2   6
ATOM      6  C   UNL     1       6.674   1.911  27.245  0.00  0.00    +0.100 C 
BRANCH   6   7
ATOM      7  C   UNL     1       6.178   2.078  25.776  0.00  0.00    +0.049 C 
BRANCH   7   8
ATOM      8  C   UNL     1       6.810   3.145  24.911  0.00  0.00    -0.047 A 
ATOM      9  C   UNL     1       6.301   3.501  23.659  0.00  0.00    +0.003 A 
ATOM     10  C   UNL     1       6.926   4.494  22.896  0.00  0.00    +0.000 A 
ATOM     11  C   UNL     1       8.077   5.124  23.363  0.00  0.00    +0.000 A 
ATOM     12  C   UNL     1       8.618   4.753  24.590  0.00  0.00    +0.000 A 
ATOM     13  C   UNL     1       7.992   3.766  25.355  0.00  0.00    +0.003 A 
ENDBRANCH   7   8
ENDBRANCH   6   7
BRANCH   6  14
ATOM     14  C   UNL     1       5.525   2.416  28.134  0.00  0.00    +0.179 C 
BRANCH  14  15
ATOM     15  S   UNL     1       5.778   3.981  28.950  0.00  0.00    -0.025 S 
ATOM     16  O   UNL     1       5.199   3.856  30.274  0.00  0.00    -0.174 OA
ATOM     17  O   UNL     1       7.193   4.283  28.818  0.00  0.00    -0.174 OA
BRANCH  15  19
ATOM     18  C   UNL     1       3.787   4.514  27.085  0.00  0.00    +0.035 C 
ATOM     19  C   UNL     1       4.811   5.214  27.993  0.00  0.00    +0.079 C 
ATOM     20  C   UNL     1       4.095   6.184  28.947  0.00  0.00    +0.035 C 
ATOM     21  C   UNL     1       5.767   6.034  27.101  0.00  0.00    +0.035 C 
ENDBRANCH  15  19
ENDBRANCH  14  15
ENDBRANCH   6  14
ENDBRANCH   2   6
ENDBRANCH   1   3
BRANCH   1  22
ATOM     22  C   UNL     1       7.639  -2.436  26.237  0.00  0.00    +0.234 C 
ATOM     23  N   UNL     1       7.610  -2.114  24.898  0.00  0.00    -0.308 N 
ATOM     24  H   UNL     1       6.733  -1.795  24.504  0.00  0.00    +0.149 HD
ATOM     25  O   UNL     1       8.565  -3.080  26.734  0.00  0.00    -0.274 OA
BRANCH  23  26
ATOM     26  C   UNL     1       8.688  -2.508  23.953  0.00  0.00    +0.104 C 
BRANCH  26  27
ATOM     27  C   UNL     1       8.108  -3.402  22.793  0.00  0.00    +0.163 C 
BRANCH  27  28
ATOM     28  O   UNL     1       7.274  -2.660  21.883  0.00  0.00    -0.387 OA
ATOM     29  H   UNL     1       7.564  -2.819  20.968  0.00  0.00    +0.210 HD
ENDBRANCH  27  28
BRANCH  27  30
ATOM     30  C   UNL     1       7.298  -4.651  23.252  0.00  0.00    +0.148 C 
BRANCH  30  31
ATOM     31  C   UNL     1       7.261  -5.752  22.220  0.00  0.00    +0.020 C 
ATOM     32  C   UNL     1       6.390  -5.643  20.991  0.00  0.00    +0.006 C 
ATOM     33  C   UNL     1       6.040  -6.631  22.062  0.00  0.00    +0.006 C 
ENDBRANCH  30  31
BRANCH  30  34
ATOM     34  O   UNL     1       7.896  -5.168  24.450  0.00  0.00    -0.389 OA
ATOM     35  H   UNL     1       7.353  -5.918  24.739  0.00  0.00    +0.210 HD
ENDBRANCH  30  34
ENDBRANCH  27  30
ENDBRANCH  26  27
BRANCH  26  36
ATOM     36  C   UNL     1       9.376  -1.233  23.390  0.00  0.00    +0.028 C 
BRANCH  36  37
ATOM     37  C   UNL     1       8.786   0.143  23.797  0.00  0.00    -0.009 C 
ATOM     38  C   UNL     1       8.496   1.006  22.548  0.00  0.00    +0.003 C 
ATOM     39  C   UNL     1       9.762   1.518  21.857  0.00  0.00    +0.000 C 
ATOM     40  C   UNL     1      10.675   2.271  22.818  0.00  0.00    +0.000 C 
ATOM     41  C   UNL     1      10.942   1.503  24.110  0.00  0.00    +0.000 C 
ATOM     42  C   UNL     1       9.672   0.952  24.759  0.00  0.00    +0.003 C 
ENDBRANCH  36  37
ENDBRANCH  26  36
ENDBRANCH  23  26
ENDBRANCH   1  22
BRANCH   1  43
ATOM     43  C   UNL     1       5.201  -2.766  26.781  0.00  0.00    +0.086 C 
BRANCH  43  44
ATOM     44  C   UNL     1       5.361  -4.259  26.833  0.00  0.00    +0.038 A 
ATOM     45  N   UNL     1       5.019  -5.121  25.817  0.00  0.00    -0.348 N 
ATOM     46  H   UNL     1       4.682  -4.862  24.896  0.00  0.00    +0.166 HD
ATOM     47  C   UNL     1       5.209  -6.394  26.262  0.00  0.00    +0.196 A 
ATOM     48  N   UNL     1       5.722  -6.408  27.469  0.00  0.00    -0.244 NA
ATOM     49  C   UNL     1       5.830  -5.089  27.830  0.00  0.00    +0.133 A 
ENDBRANCH  43  44
ENDBRANCH   1  43
TORSDOF 18
ENDMDL
MODEL 2
REMARK VINA RESULT:      -5.6      3.302      7.872
REMARK  Name = 
REMARK  21 active torsions:
REMARK  status: ('A' for Active; 'I' for Inactive)
REMARK    1  A    between atoms: C_1  and  C_2
REMARK    2  A    between atoms: C_2  and  C_3
REMARK    3  A    between atoms: C_2  and  C_4
REMARK    4  A    between atoms: C_2  and  S_5
REMARK    5  A    between atoms: S_5  and  C_8
REMARK    6  A    between atoms: C_8  and  C_9
REMARK    7  A    between atoms: C_9  and  C_11
REMARK    8  A    between atoms: C_9  and  C_18
REMARK    9  A    between atoms: C_11  and  C_12
REMARK   10  A    between atoms: N_20  and  C_21
REMARK   11  A    between atoms: C_21  and  C_23
REMARK   12  A    between atoms: C_21  and  C_29
REMARK   13  A    between atoms: C_23  and  C_24
REMARK   14  A    between atoms: N_31  and  C_32
REMARK   15  A    between atoms: C_32  and  C_34
REMARK   16  A    between atoms: C_32  and  C_41
REMARK   17  A    between atoms: C_34  and  C_35
REMARK   18  A    between atoms: C_41  and  O_43
REMARK   19  A    between atoms: C_41  and  C_44
REMARK   20  A    between atoms: C_44  and  O_46
REMARK   21  A    between atoms: C_44  and  C_47
REMARK                            x       y       z     vdW  Elec       q    Type
REMARK                         _______ _______ _______ _____ _____    ______ ____
ROOT
ATOM      1  C   UNL     1       7.875  -4.991  25.389  0.00  0.00    +0.165 C 
ENDROOT
BRANCH   1   3
ATOM      2  C   UNL     1       5.905  -5.904  26.615  0.00  0.00    +0.219 C 
ATOM      3  N   UNL     1       6.429  -5.261  25.520  0.00  0.00    -0.303 N 
ATOM      4  H   UNL     1       5.831  -4.628  24.990  0.00  0.00    +0.149 HD
ATOM      5  O   UNL     1       6.620  -6.237  27.556  0.00  0.00    -0.275 OA
BRANCH   2   6
ATOM      6  C   UNL     1       4.402  -6.215  26.561  0.00  0.00    +0.100 C 
BRANCH   6   7
ATOM      7  C   UNL     1       3.735  -5.812  27.912  0.00  0.00    +0.049 C 
BRANCH   7   8
ATOM      8  C   UNL     1       3.400  -4.358  28.154  0.00  0.00    -0.047 A 
ATOM      9  C   UNL     1       4.361  -3.411  28.521  0.00  0.00    +0.003 A 
ATOM     10  C   UNL     1       3.996  -2.078  28.736  0.00  0.00    +0.000 A 
ATOM     11  C   UNL     1       2.667  -1.680  28.612  0.00  0.00    +0.000 A 
ATOM     12  C   UNL     1       1.693  -2.618  28.287  0.00  0.00    +0.000 A 
ATOM     13  C   UNL     1       2.056  -3.948  28.066  0.00  0.00    +0.003 A 
ENDBRANCH   7   8
ENDBRANCH   6   7
BRANCH   6  14
ATOM     14  C   UNL     1       3.643  -5.437  25.472  0.00  0.00    +0.179 C 
BRANCH  14  15
ATOM     15  S   UNL     1       3.345  -6.299  23.940  0.00  0.00    -0.025 S 
ATOM     16  O   UNL     1       3.116  -5.283  22.932  0.00  0.00    -0.174 OA
ATOM     17  O   UNL     1       4.450  -7.228  23.776  0.00  0.00    -0.174 OA
BRANCH  15  19
ATOM     18  C   UNL     1       0.839  -6.497  25.126  0.00  0.00    +0.035 C 
ATOM     19  C   UNL     1       1.795  -7.250  24.187  0.00  0.00    +0.079 C 
ATOM     20  C   UNL     1       1.111  -7.513  22.835  0.00  0.00    +0.035 C 
ATOM     21  C   UNL     1       2.127  -8.613  24.831  0.00  0.00    +0.035 C 
ENDBRANCH  15  19
ENDBRANCH  14  15
ENDBRANCH   6  14
ENDBRANCH   2   6
ENDBRANCH   1   3
BRANCH   1  22
ATOM     22  C   UNL     1       8.138  -3.518  25.766  0.00  0.00    +0.234 C 
ATOM     23  N   UNL     1       8.844  -2.752  24.865  0.00  0.00    -0.308 N 
ATOM     24  H   UNL     1       9.357  -3.229  24.133  0.00  0.00    +0.149 HD
ATOM     25  O   UNL     1       7.719  -3.057  26.829  0.00  0.00    -0.274 OA
BRANCH  23  26
ATOM     26  C   UNL     1       9.148  -1.316  25.097  0.00  0.00    +0.104 C 
BRANCH  26  27
ATOM     27  C   UNL     1      10.197  -0.795  24.044  0.00  0.00    +0.163 C 
BRANCH  27  28
ATOM     28  O   UNL     1      10.773   0.473  24.414  0.00  0.00    -0.387 OA
ATOM     29  H   UNL     1      10.739   0.580  25.380  0.00  0.00    +0.210 HD
ENDBRANCH  27  28
BRANCH  27  30
ATOM     30  C   UNL     1       9.669  -0.658  22.585  0.00  0.00    +0.148 C 
BRANCH  30  31
ATOM     31  C   UNL     1       9.858   0.724  22.008  0.00  0.00    +0.020 C 
ATOM     32  C   UNL     1       9.082   1.905  22.537  0.00  0.00    +0.006 C 
ATOM     33  C   UNL     1       8.779   1.372  21.170  0.00  0.00    +0.006 C 
ENDBRANCH  30  31
BRANCH  30  34
ATOM     34  O   UNL     1      10.368  -1.598  21.757  0.00  0.00    -0.389 OA
ATOM     35  H   UNL     1       9.876  -1.665  20.923  0.00  0.00    +0.210 HD
ENDBRANCH  30  34
ENDBRANCH  27  30
ENDBRANCH  26  27
BRANCH  26  36
ATOM     36  C   UNL     1       7.832  -0.490  25.035  0.00  0.00    +0.028 C 
BRANCH  36  37
ATOM     37  C   UNL     1       7.547   0.498  26.196  0.00  0.00    -0.009 C 
ATOM     38  C   UNL     1       6.243   0.116  26.934  0.00  0.00    +0.003 C 
ATOM     39  C   UNL     1       4.981   0.388  26.114  0.00  0.00    +0.000 C 
ATOM     40  C   UNL     1       4.910   1.832  25.632  0.00  0.00    +0.000 C 
ATOM     41  C   UNL     1       6.198   2.299  24.960  0.00  0.00    +0.000 C 
ATOM     42  C   UNL     1       7.455   1.971  25.766  0.00  0.00    +0.003 C 
ENDBRANCH  36  37
ENDBRANCH  26  36
ENDBRANCH  23  26
ENDBRANCH   1  22
BRANCH   1  43
ATOM     43  C   UNL     1       8.400  -5.261  23.965  0.00  0.00    +0.086 C 
BRANCH  43  44
ATOM     44  C   UNL     1       7.381  -5.168  22.864  0.00  0.00    +0.038 A 
ATOM     45  N   UNL     1       6.934  -6.231  22.115  0.00  0.00    -0.348 N 
ATOM     46  H   UNL     1       7.179  -7.206  22.248  0.00  0.00    +0.166 HD
ATOM     47  C   UNL     1       6.098  -5.748  21.154  0.00  0.00    +0.196 A 
ATOM     48  N   UNL     1       5.919  -4.455  21.281  0.00  0.00    -0.244 NA
ATOM     49  C   UNL     1       6.701  -4.085  22.345  0.00  0.00    +0.133 A 
ENDBRANCH  43  44
ENDBRANCH   1  43
TORSDOF 18
ENDMDL
MODEL 3
REMARK VINA RESULT:      -5.6      3.374      8.477
REMARK  Name = 
REMARK  21 active torsions:
REMARK  status: ('A' for Active; 'I' for Inactive)
REMARK    1  A    between atoms: C_1  and  C_2
REMARK    2  A    between atoms: C_2  and  C_3
REMARK    3  A    between atoms: C_2  and  C_4
REMARK    4  A    between atoms: C_2  and  S_5
REMARK    5  A    between atoms: S_5  and  C_8
REMARK    6  A    between atoms: C_8  and  C_9
REMARK    7  A    between atoms: C_9  and  C_11
REMARK    8  A    between atoms: C_9  and  C_18
REMARK    9  A    between atoms: C_11  and  C_12
REMARK   10  A    between atoms: N_20  and  C_21
REMARK   11  A    between atoms: C_21  and  C_23
REMARK   12  A    between atoms: C_21  and  C_29
REMARK   13  A    between atoms: C_23  and  C_24
REMARK   14  A    between atoms: N_31  and  C_32
REMARK   15  A    between atoms: C_32  and  C_34
REMARK   16  A    between atoms: C_32  and  C_41
REMARK   17  A    between atoms: C_34  and  C_35
REMARK   18  A    between atoms: C_41  and  O_43
REMARK   19  A    between atoms: C_41  and  C_44
REMARK   20  A    between atoms: C_44  and  O_46
REMARK   21  A    between atoms: C_44  and  C_47
REMARK                            x       y       z     vdW  Elec       q    Type
REMARK                         _______ _______ _______ _____ _____    ______ ____
ROOT
ATOM      1  C   UNL     1       8.408  -3.491  26.266  0.00  0.00    +0.165 C 
ENDROOT
BRANCH   1   3
ATOM      2  C   UNL     1       6.833  -5.369  26.730  0.00  0.00    +0.219 C 
ATOM      3  N   UNL     1       7.153  -4.233  26.025  0.00  0.00    -0.303 N 
ATOM      4  H   UNL     1       6.400  -3.673  25.628  0.00  0.00    +0.149 HD
ATOM      5  O   UNL     1       7.560  -5.784  27.628  0.00  0.00    -0.275 OA
BRANCH   2   6
ATOM      6  C   UNL     1       5.552  -6.096  26.293  0.00  0.00    +0.100 C 
BRANCH   6   7
ATOM      7  C   UNL     1       4.794  -6.620  27.550  0.00  0.00    +0.049 C 
BRANCH   7   8
ATOM      8  C   UNL     1       4.086  -5.624  28.441  0.00  0.00    -0.047 A 
ATOM      9  C   UNL     1       4.761  -4.832  29.375  0.00  0.00    +0.003 A 
ATOM     10  C   UNL     1       4.058  -3.929  30.179  0.00  0.00    +0.000 A 
ATOM     11  C   UNL     1       2.672  -3.822  30.077  0.00  0.00    +0.000 A 
ATOM     12  C   UNL     1       1.982  -4.632  29.180  0.00  0.00    +0.000 A 
ATOM     13  C   UNL     1       2.683  -5.530  28.374  0.00  0.00    +0.003 A 
ENDBRANCH   7   8
ENDBRANCH   6   7
BRANCH   6  14
ATOM     14  C   UNL     1       4.551  -5.200  25.543  0.00  0.00    +0.179 C 
BRANCH  14  15
ATOM     15  S   UNL     1       3.816  -5.886  24.071  0.00  0.00    -0.025 S 
ATOM     16  O   UNL     1       4.226  -5.037  22.970  0.00  0.00    -0.174 OA
ATOM     17  O   UNL     1       4.176  -7.294  24.056  0.00  0.00    -0.174 OA
BRANCH  15  19
ATOM     18  C   UNL     1       1.283  -5.753  22.935  0.00  0.00    +0.035 C 
ATOM     19  C   UNL     1       2.000  -5.734  24.294  0.00  0.00    +0.079 C 
ATOM     20  C   UNL     1       1.477  -6.874  25.184  0.00  0.00    +0.035 C 
ATOM     21  C   UNL     1       1.680  -4.395  24.990  0.00  0.00    +0.035 C 
ENDBRANCH  15  19
ENDBRANCH  14  15
ENDBRANCH   6  14
ENDBRANCH   2   6
ENDBRANCH   1   3
BRANCH   1  22
ATOM     22  C   UNL     1       8.084  -1.984  26.330  0.00  0.00    +0.234 C 
ATOM     23  N   UNL     1       6.899  -1.568  25.764  0.00  0.00    -0.308 N 
ATOM     24  H   UNL     1       6.423  -2.204  25.134  0.00  0.00    +0.149 HD
ATOM     25  O   UNL     1       8.858  -1.196  26.878  0.00  0.00    -0.274 OA
BRANCH  23  26
ATOM     26  C   UNL     1       6.458  -0.149  25.774  0.00  0.00    +0.104 C 
BRANCH  26  27
ATOM     27  C   UNL     1       6.399   0.423  24.308  0.00  0.00    +0.163 C 
BRANCH  27  28
ATOM     28  O   UNL     1       6.099  -0.589  23.328  0.00  0.00    -0.387 OA
ATOM     29  H   UNL     1       6.922  -0.898  22.913  0.00  0.00    +0.210 HD
ENDBRANCH  27  28
BRANCH  27  30
ATOM     30  C   UNL     1       7.679   1.170  23.829  0.00  0.00    +0.148 C 
BRANCH  30  31
ATOM     31  C   UNL     1       7.491   2.662  23.707  0.00  0.00    +0.020 C 
ATOM     32  C   UNL     1       6.175   3.251  23.260  0.00  0.00    +0.006 C 
ATOM     33  C   UNL     1       7.366   3.324  22.353  0.00  0.00    +0.006 C 
ENDBRANCH  30  31
BRANCH  30  34
ATOM     34  O   UNL     1       8.733   0.917  24.769  0.00  0.00    -0.389 OA
ATOM     35  H   UNL     1       8.320   0.565  25.574  0.00  0.00    +0.210 HD
ENDBRANCH  30  34
ENDBRANCH  27  30
ENDBRANCH  26  27
BRANCH  26  36
ATOM     36  C   UNL     1       5.075  -0.040  26.477  0.00  0.00    +0.028 C 
BRANCH  36  37
ATOM     37  C   UNL     1       4.725  -1.106  27.548  0.00  0.00    -0.009 C 
ATOM     38  C   UNL     1       3.537  -1.979  27.084  0.00  0.00    +0.003 C 
ATOM     39  C   UNL     1       2.201  -1.235  27.088  0.00  0.00    +0.000 C 
ATOM     40  C   UNL     1       1.897  -0.606  28.443  0.00  0.00    +0.000 C 
ATOM     41  C   UNL     1       3.063   0.210  28.995  0.00  0.00    +0.000 C 
ATOM     42  C   UNL     1       4.400  -0.528  28.934  0.00  0.00    +0.003 C 
ENDBRANCH  36  37
ENDBRANCH  26  36
ENDBRANCH  23  26
ENDBRANCH   1  22
BRANCH   1  43
ATOM     43  C   UNL     1       9.465  -3.747  25.174  0.00  0.00    +0.086 C 
BRANCH  43  44
ATOM     44  C   UNL     1       9.283  -2.976  23.896  0.00  0.00    +0.038 A 
ATOM     45  N   UNL     1      10.082  -1.935  23.486  0.00  0.00    -0.348 N 
ATOM     46  H   UNL     1      10.919  -1.601  23.950  0.00  0.00    +0.166 HD
ATOM     47  C   UNL     1       9.553  -1.423  22.341  0.00  0.00    +0.196 A 
ATOM     48  N   UNL     1       8.509  -2.112  21.946  0.00  0.00    -0.244 NA
ATOM     49  C   UNL     1       8.338  -3.085  22.897  0.00  0.00    +0.133 A 
ENDBRANCH  43  44
ENDBRANCH   1  43
TORSDOF 18
ENDMDL
MODEL 4
REMARK VINA RESULT:      -5.6      3.114      8.356
REMARK  Name = 
REMARK  21 active torsions:
REMARK  status: ('A' for Active; 'I' for Inactive)
REMARK    1  A    between atoms: C_1  and  C_2
REMARK    2  A    between atoms: C_2  and  C_3
REMARK    3  A    between atoms: C_2  and  C_4
REMARK    4  A    between atoms: C_2  and  S_5
REMARK    5  A    between atoms: S_5  and  C_8
REMARK    6  A    between atoms: C_8  and  C_9
REMARK    7  A    between atoms: C_9  and  C_11
REMARK    8  A    between atoms: C_9  and  C_18
REMARK    9  A    between atoms: C_11  and  C_12
REMARK   10  A    between atoms: N_20  and  C_21
REMARK   11  A    between atoms: C_21  and  C_23
REMARK   12  A    between atoms: C_21  and  C_29
REMARK   13  A    between atoms: C_23  and  C_24
REMARK   14  A    between atoms: N_31  and  C_32
REMARK   15  A    between atoms: C_32  and  C_34
REMARK   16  A    between atoms: C_32  and  C_41
REMARK   17  A    between atoms: C_34  and  C_35
REMARK   18  A    between atoms: C_41  and  O_43
REMARK   19  A    between atoms: C_41  and  C_44
REMARK   20  A    between atoms: C_44  and  O_46
REMARK   21  A    between atoms: C_44  and  C_47
REMARK                            x       y       z     vdW  Elec       q    Type
REMARK                         _______ _______ _______ _____ _____    ______ ____
ROOT
ATOM      1  C   UNL     1       8.424   0.710  25.582  0.00  0.00    +0.165 C 
ENDROOT
BRANCH   1   3
ATOM      2  C   UNL     1       6.890  -1.191  26.084  0.00  0.00    +0.219 C 
ATOM      3  N   UNL     1       7.608  -0.452  25.175  0.00  0.00    -0.303 N 
ATOM      4  H   UNL     1       7.298  -0.431  24.204  0.00  0.00    +0.149 HD
ATOM      5  O   UNL     1       6.861  -0.880  27.271  0.00  0.00    -0.275 OA
BRANCH   2   6
ATOM      6  C   UNL     1       6.181  -2.436  25.531  0.00  0.00    +0.100 C 
BRANCH   6   7
ATOM      7  C   UNL     1       7.230  -3.395  24.890  0.00  0.00    +0.049 C 
BRANCH   7   8
ATOM      8  C   UNL     1       6.913  -4.035  23.557  0.00  0.00    -0.047 A 
ATOM      9  C   UNL     1       6.103  -3.421  22.598  0.00  0.00    +0.003 A 
ATOM     10  C   UNL     1       5.838  -4.059  21.382  0.00  0.00    +0.000 A 
ATOM     11  C   UNL     1       6.357  -5.325  21.118  0.00  0.00    +0.000 A 
ATOM     12  C   UNL     1       7.133  -5.965  22.080  0.00  0.00    +0.000 A 
ATOM     13  C   UNL     1       7.403  -5.327  23.292  0.00  0.00    +0.003 A 
ENDBRANCH   7   8
ENDBRANCH   6   7
BRANCH   6  14
ATOM     14  C   UNL     1       5.454  -3.267  26.603  0.00  0.00    +0.179 C 
BRANCH  14  15
ATOM     15  S   UNL     1       3.787  -3.774  26.223  0.00  0.00    -0.025 S 
ATOM     16  O   UNL     1       3.024  -3.637  27.448  0.00  0.00    -0.174 OA
ATOM     17  O   UNL     1       3.391  -3.016  25.049  0.00  0.00    -0.174 OA
BRANCH  15  19
ATOM     18  C   UNL     1       3.731  -5.746  24.265  0.00  0.00    +0.035 C 
ATOM     19  C   UNL     1       3.887  -5.553  25.782  0.00  0.00    +0.079 C 
ATOM     20  C   UNL     1       5.225  -6.144  26.255  0.00  0.00    +0.035 C 
ATOM     21  C   UNL     1       2.747  -6.320  26.485  0.00  0.00    +0.035 C 
ENDBRANCH  15  19
ENDBRANCH  14  15
ENDBRANCH   6  14
ENDBRANCH   2   6
ENDBRANCH   1   3
BRANCH   1  22
ATOM     22  C   UNL     1       7.650   2.000  25.239  0.00  0.00    +0.234 C 
ATOM     23  N   UNL     1       7.239   2.161  23.934  0.00  0.00    -0.308 N 
ATOM     24  H   UNL     1       7.659   1.571  23.226  0.00  0.00    +0.149 HD
ATOM     25  O   UNL     1       7.407   2.839  26.109  0.00  0.00    -0.274 OA
BRANCH  23  26
ATOM     26  C   UNL     1       6.470   3.347  23.475  0.00  0.00    +0.104 C 
BRANCH  26  27
ATOM     27  C   UNL     1       7.236   4.091  22.317  0.00  0.00    +0.163 C 
BRANCH  27  28
ATOM     28  O   UNL     1       8.502   3.479  22.006  0.00  0.00    -0.387 OA
ATOM     29  H   UNL     1       8.806   3.778  21.131  0.00  0.00    +0.210 HD
ENDBRANCH  27  28
BRANCH  27  30
ATOM     30  C   UNL     1       7.498   5.608  22.555  0.00  0.00    +0.148 C 
BRANCH  30  31
ATOM     31  C   UNL     1       8.813   5.887  23.241  0.00  0.00    +0.020 C 
ATOM     32  C   UNL     1       8.988   5.647  24.722  0.00  0.00    +0.006 C 
ATOM     33  C   UNL     1       8.961   7.051  24.196  0.00  0.00    +0.006 C 
ENDBRANCH  30  31
BRANCH  30  34
ATOM     34  O   UNL     1       7.495   6.276  21.285  0.00  0.00    -0.389 OA
ATOM     35  H   UNL     1       8.122   7.014  21.349  0.00  0.00    +0.210 HD
ENDBRANCH  30  34
ENDBRANCH  27  30
ENDBRANCH  26  27
BRANCH  26  36
ATOM     36  C   UNL     1       5.053   2.900  23.015  0.00  0.00    +0.028 C 
BRANCH  36  37
ATOM     37  C   UNL     1       3.831   3.574  23.692  0.00  0.00    -0.009 C 
ATOM     38  C   UNL     1       2.529   3.243  22.927  0.00  0.00    +0.003 C 
ATOM     39  C   UNL     1       2.429   3.943  21.571  0.00  0.00    +0.000 C 
ATOM     40  C   UNL     1       2.601   5.453  21.689  0.00  0.00    +0.000 C 
ATOM     41  C   UNL     1       3.831   5.849  22.502  0.00  0.00    +0.000 C 
ATOM     42  C   UNL     1       3.946   5.101  23.830  0.00  0.00    +0.003 C 
ENDBRANCH  36  37
ENDBRANCH  26  36
ENDBRANCH  23  26
ENDBRANCH   1  22
BRANCH   1  43
ATOM     43  C   UNL     1       9.802   0.736  24.893  0.00  0.00    +0.086 C 
BRANCH  43  44
ATOM     44  C   UNL     1       9.909  -0.050  23.616  0.00  0.00    +0.038 A 
ATOM     45  N   UNL     1       9.653   0.452  22.361  0.00  0.00    -0.348 N 
ATOM     46  H   UNL     1       9.428   1.413  22.133  0.00  0.00    +0.166 HD
ATOM     47  C   UNL     1       9.752  -0.572  21.469  0.00  0.00    +0.196 A 
ATOM     48  N   UNL     1      10.129  -1.684  22.056  0.00  0.00    -0.244 NA
ATOM     49  C   UNL     1      10.239  -1.370  23.386  0.00  0.00    +0.133 A 
ENDBRANCH  43  44
ENDBRANCH   1  43
TORSDOF 18
ENDMDL
MODEL 5
REMARK VINA RESULT:      -5.5      3.255      6.465
REMARK  Name = 
REMARK  21 active torsions:
REMARK  status: ('A' for Active; 'I' for Inactive)
REMARK    1  A    between atoms: C_1  and  C_2
REMARK    2  A    between atoms: C_2  and  C_3
REMARK    3  A    between atoms: C_2  and  C_4
REMARK    4  A    between atoms: C_2  and  S_5
REMARK    5  A    between atoms: S_5  and  C_8
REMARK    6  A    between atoms: C_8  and  C_9
REMARK    7  A    between atoms: C_9  and  C_11
REMARK    8  A    between atoms: C_9  and  C_18
REMARK    9  A    between atoms: C_11  and  C_12
REMARK   10  A    between atoms: N_20  and  C_21
REMARK   11  A    between atoms: C_21  and  C_23
REMARK   12  A    between atoms: C_21  and  C_29
REMARK   13  A    between atoms: C_23  and  C_24
REMARK   14  A    between atoms: N_31  and  C_32
REMARK   15  A    between atoms: C_32  and  C_34
REMARK   16  A    between atoms: C_32  and  C_41
REMARK   17  A    between atoms: C_34  and  C_35
REMARK   18  A    between atoms: C_41  and  O_43
REMARK   19  A    between atoms: C_41  and  C_44
REMARK   20  A    between atoms: C_44  and  O_46
REMARK   21  A    between atoms: C_44  and  C_47
REMARK                            x       y       z     vdW  Elec       q    Type
REMARK                         _______ _______ _______ _____ _____    ______ ____
ROOT
ATOM      1  C   UNL     1       6.938  -4.514  22.502  0.00  0.00    +0.165 C 
ENDROOT
BRANCH   1   3
ATOM      2  C   UNL     1       7.632  -2.138  22.807  0.00  0.00    +0.219 C 
ATOM      3  N   UNL     1       6.801  -3.183  23.129  0.00  0.00    -0.303 N 
ATOM      4  H   UNL     1       5.867  -2.978  23.482  0.00  0.00    +0.149 HD
ATOM      5  O   UNL     1       8.496  -2.259  21.943  0.00  0.00    -0.275 OA
BRANCH   2   6
ATOM      6  C   UNL     1       7.442  -0.849  23.621  0.00  0.00    +0.100 C 
BRANCH   6   7
ATOM      7  C   UNL     1       7.181  -1.208  25.115  0.00  0.00    +0.049 C 
BRANCH   7   8
ATOM      8  C   UNL     1       6.284  -0.307  25.934  0.00  0.00    -0.047 A 
ATOM      9  C   UNL     1       5.371   0.579  25.355  0.00  0.00    +0.003 A 
ATOM     10  C   UNL     1       4.567   1.394  26.159  0.00  0.00    +0.000 A 
ATOM     11  C   UNL     1       4.681   1.352  27.547  0.00  0.00    +0.000 A 
ATOM     12  C   UNL     1       5.613   0.504  28.136  0.00  0.00    +0.000 A 
ATOM     13  C   UNL     1       6.413  -0.314  27.335  0.00  0.00    +0.003 A 
ENDBRANCH   7   8
ENDBRANCH   6   7
BRANCH   6  14
ATOM     14  C   UNL     1       8.672   0.075  23.621  0.00  0.00    +0.179 C 
BRANCH  14  15
ATOM     15  S   UNL     1       8.618   1.472  22.514  0.00  0.00    -0.025 S 
ATOM     16  O   UNL     1       9.777   1.360  21.650  0.00  0.00    -0.174 OA
ATOM     17  O   UNL     1       7.289   1.473  21.926  0.00  0.00    -0.174 OA
BRANCH  15  19
ATOM     18  C   UNL     1       7.970   4.128  23.018  0.00  0.00    +0.035 C 
ATOM     19  C   UNL     1       8.806   2.962  23.569  0.00  0.00    +0.079 C 
ATOM     20  C   UNL     1       8.386   2.646  25.014  0.00  0.00    +0.035 C 
ATOM     21  C   UNL     1      10.288   3.396  23.583  0.00  0.00    +0.035 C 
ENDBRANCH  15  19
ENDBRANCH  14  15
ENDBRANCH   6  14
ENDBRANCH   2   6
ENDBRANCH   1   3
BRANCH   1  22
ATOM     22  C   UNL     1       5.545  -5.174  22.435  0.00  0.00    +0.234 C 
ATOM     23  N   UNL     1       4.660  -4.884  23.450  0.00  0.00    -0.308 N 
ATOM     24  H   UNL     1       5.027  -4.464  24.296  0.00  0.00    +0.149 HD
ATOM     25  O   UNL     1       5.246  -5.920  21.501  0.00  0.00    -0.274 OA
BRANCH  23  26
ATOM     26  C   UNL     1       3.281  -5.437  23.496  0.00  0.00    +0.104 C 
BRANCH  26  27
ATOM     27  C   UNL     1       3.276  -6.856  24.179  0.00  0.00    +0.163 C 
BRANCH  27  28
ATOM     28  O   UNL     1       4.555  -7.513  24.106  0.00  0.00    -0.387 OA
ATOM     29  H   UNL     1       4.496  -8.282  23.513  0.00  0.00    +0.210 HD
ENDBRANCH  27  28
BRANCH  27  30
ATOM     30  C   UNL     1       2.208  -7.854  23.640  0.00  0.00    +0.148 C 
BRANCH  30  31
ATOM     31  C   UNL     1       0.937  -7.868  24.453  0.00  0.00    +0.020 C 
ATOM     32  C   UNL     1       0.971  -8.023  25.955  0.00  0.00    +0.006 C 
ATOM     33  C   UNL     1       0.444  -9.140  25.106  0.00  0.00    +0.006 C 
ENDBRANCH  30  31
BRANCH  30  34
ATOM     34  O   UNL     1       1.884  -7.490  22.291  0.00  0.00    -0.389 OA
ATOM     35  H   UNL     1       2.351  -8.109  21.707  0.00  0.00    +0.210 HD
ENDBRANCH  30  34
ENDBRANCH  27  30
ENDBRANCH  26  27
BRANCH  26  36
ATOM     36  C   UNL     1       2.350  -4.446  24.249  0.00  0.00    +0.028 C 
BRANCH  36  37
ATOM     37  C   UNL     1       2.240  -4.590  25.790  0.00  0.00    -0.009 C 
ATOM     38  C   UNL     1       0.935  -3.946  26.309  0.00  0.00    +0.003 C 
ATOM     39  C   UNL     1       0.945  -2.418  26.243  0.00  0.00    +0.000 C 
ATOM     40  C   UNL     1       2.150  -1.820  26.960  0.00  0.00    +0.000 C 
ATOM     41  C   UNL     1       3.469  -2.467  26.547  0.00  0.00    +0.000 C 
ATOM     42  C   UNL     1       3.425  -3.995  26.566  0.00  0.00    +0.003 C 
ENDBRANCH  36  37
ENDBRANCH  26  36
ENDBRANCH  23  26
ENDBRANCH   1  22
BRANCH   1  43
ATOM     43  C   UNL     1       7.909  -5.432  23.271  0.00  0.00    +0.086 C 
BRANCH  43  44
ATOM     44  C   UNL     1       8.100  -5.108  24.726  0.00  0.00    +0.038 A 
ATOM     45  N   UNL     1       7.132  -5.241  25.694  0.00  0.00    -0.348 N 
ATOM     46  H   UNL     1       6.204  -5.629  25.567  0.00  0.00    +0.166 HD
ATOM     47  C   UNL     1       7.635  -4.758  26.863  0.00  0.00    +0.196 A 
ATOM     48  N   UNL     1       8.888  -4.392  26.730  0.00  0.00    -0.244 NA
ATOM     49  C   UNL     1       9.191  -4.614  25.411  0.00  0.00    +0.133 A 
ENDBRANCH  43  44
ENDBRANCH   1  43
TORSDOF 18
ENDMDL
MODEL 6
REMARK VINA RESULT:      -5.5      3.212      8.106
REMARK  Name = 
REMARK  21 active torsions:
REMARK  status: ('A' for Active; 'I' for Inactive)
REMARK    1  A    between atoms: C_1  and  C_2
REMARK    2  A    between atoms: C_2  and  C_3
REMARK    3  A    between atoms: C_2  and  C_4
REMARK    4  A    between atoms: C_2  and  S_5
REMARK    5  A    between atoms: S_5  and  C_8
REMARK    6  A    between atoms: C_8  and  C_9
REMARK    7  A    between atoms: C_9  and  C_11
REMARK    8  A    between atoms: C_9  and  C_18
REMARK    9  A    between atoms: C_11  and  C_12
REMARK   10  A    between atoms: N_20  and  C_21
REMARK   11  A    between atoms: C_21  and  C_23
REMARK   12  A    between atoms: C_21  and  C_29
REMARK   13  A    between atoms: C_23  and  C_24
REMARK   14  A    between atoms: N_31  and  C_32
REMARK   15  A    between atoms: C_32  and  C_34
REMARK   16  A    between atoms: C_32  and  C_41
REMARK   17  A    between atoms: C_34  and  C_35
REMARK   18  A    between atoms: C_41  and  O_43
REMARK   19  A    between atoms: C_41  and  C_44
REMARK   20  A    between atoms: C_44  and  O_46
REMARK   21  A    between atoms: C_44  and  C_47
REMARK                            x       y       z     vdW  Elec       q    Type
REMARK                         _______ _______ _______ _____ _____    ______ ____
ROOT
ATOM      1  C   UNL     1       7.657  -4.563  25.478  0.00  0.00    +0.165 C 
ENDROOT
BRANCH   1   3
ATOM      2  C   UNL     1       6.310  -5.936  27.065  0.00  0.00    +0.219 C 
ATOM      3  N   UNL     1       6.430  -5.292  25.857  0.00  0.00    -0.303 N 
ATOM      4  H   UNL     1       5.585  -4.971  25.385  0.00  0.00    +0.149 HD
ATOM      5  O   UNL     1       7.208  -5.887  27.901  0.00  0.00    -0.275 OA
BRANCH   2   6
ATOM      6  C   UNL     1       5.021  -6.745  27.274  0.00  0.00    +0.100 C 
BRANCH   6   7
ATOM      7  C   UNL     1       4.621  -6.711  28.780  0.00  0.00    +0.049 C 
BRANCH   7   8
ATOM      8  C   UNL     1       3.850  -5.520  29.302  0.00  0.00    -0.047 A 
ATOM      9  C   UNL     1       4.455  -4.288  29.571  0.00  0.00    +0.003 A 
ATOM     10  C   UNL     1       3.697  -3.218  30.057  0.00  0.00    +0.000 A 
ATOM     11  C   UNL     1       2.334  -3.371  30.303  0.00  0.00    +0.000 A 
ATOM     12  C   UNL     1       1.726  -4.602  30.078  0.00  0.00    +0.000 A 
ATOM     13  C   UNL     1       2.481  -5.669  29.587  0.00  0.00    +0.003 A 
ENDBRANCH   7   8
ENDBRANCH   6   7
BRANCH   6  14
ATOM     14  C   UNL     1       3.808  -6.195  26.505  0.00  0.00    +0.179 C 
BRANCH  14  15
ATOM     15  S   UNL     1       3.370  -7.041  24.998  0.00  0.00    -0.025 S 
ATOM     16  O   UNL     1       4.614  -7.338  24.314  0.00  0.00    -0.174 OA
ATOM     17  O   UNL     1       2.492  -8.132  25.384  0.00  0.00    -0.174 OA
BRANCH  15  19
ATOM     18  C   UNL     1       3.318  -4.670  23.547  0.00  0.00    +0.035 C 
ATOM     19  C   UNL     1       2.418  -5.832  23.997  0.00  0.00    +0.079 C 
ATOM     20  C   UNL     1       1.799  -6.526  22.773  0.00  0.00    +0.035 C 
ATOM     21  C   UNL     1       1.271  -5.251  24.851  0.00  0.00    +0.035 C 
ENDBRANCH  15  19
ENDBRANCH  14  15
ENDBRANCH   6  14
ENDBRANCH   2   6
ENDBRANCH   1   3
BRANCH   1  22
ATOM     22  C   UNL     1       7.323  -3.060  25.367  0.00  0.00    +0.234 C 
ATOM     23  N   UNL     1       8.382  -2.180  25.315  0.00  0.00    -0.308 N 
ATOM     24  H   UNL     1       9.296  -2.519  25.591  0.00  0.00    +0.149 HD
ATOM     25  O   UNL     1       6.153  -2.678  25.317  0.00  0.00    -0.274 OA
BRANCH  23  26
ATOM     26  C   UNL     1       8.200  -0.711  25.188  0.00  0.00    +0.104 C 
BRANCH  26  27
ATOM     27  C   UNL     1       8.472   0.002  26.566  0.00  0.00    +0.163 C 
BRANCH  27  28
ATOM     28  O   UNL     1       9.182  -0.838  27.496  0.00  0.00    -0.387 OA
ATOM     29  H   UNL     1       9.097  -0.478  28.396  0.00  0.00    +0.210 HD
ENDBRANCH  27  28
BRANCH  27  30
ATOM     30  C   UNL     1       7.208   0.543  27.300  0.00  0.00    +0.148 C 
BRANCH  30  31
ATOM     31  C   UNL     1       6.623   1.775  26.654  0.00  0.00    +0.020 C 
ATOM     32  C   UNL     1       7.511   2.859  26.091  0.00  0.00    +0.006 C 
ATOM     33  C   UNL     1       6.711   3.125  27.331  0.00  0.00    +0.006 C 
ENDBRANCH  30  31
BRANCH  30  34
ATOM     34  O   UNL     1       6.210  -0.487  27.309  0.00  0.00    -0.389 OA
ATOM     35  H   UNL     1       6.646  -1.306  27.591  0.00  0.00    +0.210 HD
ENDBRANCH  30  34
ENDBRANCH  27  30
ENDBRANCH  26  27
BRANCH  26  36
ATOM     36  C   UNL     1       9.141  -0.165  24.078  0.00  0.00    +0.028 C 
BRANCH  36  37
ATOM     37  C   UNL     1       8.620  -0.189  22.617  0.00  0.00    -0.009 C 
ATOM     38  C   UNL     1       9.399   0.818  21.741  0.00  0.00    +0.003 C 
ATOM     39  C   UNL     1       9.069   2.278  22.056  0.00  0.00    +0.000 C 
ATOM     40  C   UNL     1       7.573   2.559  21.977  0.00  0.00    +0.000 C 
ATOM     41  C   UNL     1       6.737   1.551  22.762  0.00  0.00    +0.000 C 
ATOM     42  C   UNL     1       7.116   0.098  22.476  0.00  0.00    +0.003 C 
ENDBRANCH  36  37
ENDBRANCH  26  36
ENDBRANCH  23  26
ENDBRANCH   1  22
BRANCH   1  43
ATOM     43  C   UNL     1       8.252  -5.060  24.145  0.00  0.00    +0.086 C 
BRANCH  43  44
ATOM     44  C   UNL     1       7.308  -5.080  22.976  0.00  0.00    +0.038 A 
ATOM     45  N   UNL     1       6.743  -6.215  22.443  0.00  0.00    -0.348 N 
ATOM     46  H   UNL     1       6.835  -7.158  22.802  0.00  0.00    +0.166 HD
ATOM     47  C   UNL     1       6.032  -5.853  21.339  0.00  0.00    +0.196 A 
ATOM     48  N   UNL     1       6.040  -4.552  21.169  0.00  0.00    -0.244 NA
ATOM     49  C   UNL     1       6.820  -4.061  22.185  0.00  0.00    +0.133 A 
ENDBRANCH  43  44
ENDBRANCH   1  43
TORSDOF 18
ENDMDL
MODEL 7
REMARK VINA RESULT:      -5.5      3.263      7.228
REMARK  Name = 
REMARK  21 active torsions:
REMARK  status: ('A' for Active; 'I' for Inactive)
REMARK    1  A    between atoms: C_1  and  C_2
REMARK    2  A    between atoms: C_2  and  C_3
REMARK    3  A    between atoms: C_2  and  C_4
REMARK    4  A    between atoms: C_2  and  S_5
REMARK    5  A    between atoms: S_5  and  C_8
REMARK    6  A    between atoms: C_8  and  C_9
REMARK    7  A    between atoms: C_9  and  C_11
REMARK    8  A    between atoms: C_9  and  C_18
REMARK    9  A    between atoms: C_11  and  C_12
REMARK   10  A    between atoms: N_20  and  C_21
REMARK   11  A    between atoms: C_21  and  C_23
REMARK   12  A    between atoms: C_21  and  C_29
REMARK   13  A    between atoms: C_23  and  C_24
REMARK   14  A    between atoms: N_31  and  C_32
REMARK   15  A    between atoms: C_32  and  C_34
REMARK   16  A    between atoms: C_32  and  C_41
REMARK   17  A    between atoms: C_34  and  C_35
REMARK   18  A    between atoms: C_41  and  O_43
REMARK   19  A    between atoms: C_41  and  C_44
REMARK   20  A    between atoms: C_44  and  O_46
REMARK   21  A    between atoms: C_44  and  C_47
REMARK                            x       y       z     vdW  Elec       q    Type
REMARK                         _______ _______ _______ _____ _____    ______ ____
ROOT
ATOM      1  C   UNL     1       8.276  -4.225  25.441  0.00  0.00    +0.165 C 
ENDROOT
BRANCH   1   3
ATOM      2  C   UNL     1       6.699  -4.906  27.249  0.00  0.00    +0.219 C 
ATOM      3  N   UNL     1       6.990  -4.120  26.160  0.00  0.00    -0.303 N 
ATOM      4  H   UNL     1       6.527  -3.216  26.068  0.00  0.00    +0.149 HD
ATOM      5  O   UNL     1       7.524  -5.696  27.699  0.00  0.00    -0.275 OA
BRANCH   2   6
ATOM      6  C   UNL     1       5.281  -4.765  27.824  0.00  0.00    +0.100 C 
BRANCH   6   7
ATOM      7  C   UNL     1       4.430  -3.845  26.897  0.00  0.00    +0.049 C 
BRANCH   7   8
ATOM      8  C   UNL     1       3.694  -2.675  27.509  0.00  0.00    -0.047 A 
ATOM      9  C   UNL     1       4.043  -2.127  28.748  0.00  0.00    +0.003 A 
ATOM     10  C   UNL     1       3.326  -1.046  29.271  0.00  0.00    +0.000 A 
ATOM     11  C   UNL     1       2.240  -0.515  28.579  0.00  0.00    +0.000 A 
ATOM     12  C   UNL     1       1.857  -1.075  27.364  0.00  0.00    +0.000 A 
ATOM     13  C   UNL     1       2.575  -2.150  26.837  0.00  0.00    +0.003 A 
ENDBRANCH   7   8
ENDBRANCH   6   7
BRANCH   6  14
ATOM     14  C   UNL     1       4.511  -6.094  27.916  0.00  0.00    +0.179 C 
BRANCH  14  15
ATOM     15  S   UNL     1       3.438  -6.295  29.326  0.00  0.00    -0.025 S 
ATOM     16  O   UNL     1       3.581  -7.670  29.762  0.00  0.00    -0.174 OA
ATOM     17  O   UNL     1       3.768  -5.219  30.245  0.00  0.00    -0.174 OA
BRANCH  15  19
ATOM     18  C   UNL     1       1.165  -4.701  29.186  0.00  0.00    +0.035 C 
ATOM     19  C   UNL     1       1.729  -6.046  28.702  0.00  0.00    +0.079 C 
ATOM     20  C   UNL     1       1.712  -6.105  27.165  0.00  0.00    +0.035 C 
ATOM     21  C   UNL     1       0.819  -7.171  29.237  0.00  0.00    +0.035 C 
ENDBRANCH  15  19
ENDBRANCH  14  15
ENDBRANCH   6  14
ENDBRANCH   2   6
ENDBRANCH   1   3
BRANCH   1  22
ATOM     22  C   UNL     1       8.693  -2.817  24.970  0.00  0.00    +0.234 C 
ATOM     23  N   UNL     1       7.859  -1.770  25.294  0.00  0.00    -0.308 N 
ATOM     24  H   UNL     1       6.918  -1.988  25.599  0.00  0.00    +0.149 HD
ATOM     25  O   UNL     1       9.739  -2.648  24.340  0.00  0.00    -0.274 OA
BRANCH  23  26
ATOM     26  C   UNL     1       8.153  -0.362  24.918  0.00  0.00    +0.104 C 
BRANCH  26  27
ATOM     27  C   UNL     1       7.510  -0.015  23.523  0.00  0.00    +0.163 C 
BRANCH  27  28
ATOM     28  O   UNL     1       6.424  -0.895  23.177  0.00  0.00    -0.387 OA
ATOM     29  H   UNL     1       5.801  -0.957  23.921  0.00  0.00    +0.210 HD
ENDBRANCH  27  28
BRANCH  27  30
ATOM     30  C   UNL     1       8.497   0.003  22.318  0.00  0.00    +0.148 C 
BRANCH  30  31
ATOM     31  C   UNL     1       9.824   0.647  22.640  0.00  0.00    +0.020 C 
ATOM     32  C   UNL     1       9.895   1.955  23.391  0.00  0.00    +0.006 C 
ATOM     33  C   UNL     1      10.265   1.913  21.939  0.00  0.00    +0.006 C 
ENDBRANCH  30  31
BRANCH  30  34
ATOM     34  O   UNL     1       8.735  -1.350  21.903  0.00  0.00    -0.389 OA
ATOM     35  H   UNL     1       9.694  -1.453  21.801  0.00  0.00    +0.210 HD
ENDBRANCH  30  34
ENDBRANCH  27  30
ENDBRANCH  26  27
BRANCH  26  36
ATOM     36  C   UNL     1       7.633   0.591  26.030  0.00  0.00    +0.028 C 
BRANCH  36  37
ATOM     37  C   UNL     1       6.455   0.096  26.911  0.00  0.00    -0.009 C 
ATOM     38  C   UNL     1       5.101   0.363  26.215  0.00  0.00    +0.003 C 
ATOM     39  C   UNL     1       4.722   1.844  26.175  0.00  0.00    +0.000 C 
ATOM     40  C   UNL     1       4.737   2.479  27.561  0.00  0.00    +0.000 C 
ATOM     41  C   UNL     1       6.021   2.189  28.334  0.00  0.00    +0.000 C 
ATOM     42  C   UNL     1       6.415   0.712  28.318  0.00  0.00    +0.003 C 
ENDBRANCH  36  37
ENDBRANCH  26  36
ENDBRANCH  23  26
ENDBRANCH   1  22
BRANCH   1  43
ATOM     43  C   UNL     1       8.200  -5.174  24.229  0.00  0.00    +0.086 C 
BRANCH  43  44
ATOM     44  C   UNL     1       7.144  -4.848  23.210  0.00  0.00    +0.038 A 
ATOM     45  N   UNL     1       7.214  -3.810  22.311  0.00  0.00    -0.348 N 
ATOM     46  H   UNL     1       7.999  -3.183  22.177  0.00  0.00    +0.166 HD
ATOM     47  C   UNL     1       6.038  -3.766  21.625  0.00  0.00    +0.196 A 
ATOM     48  N   UNL     1       5.245  -4.753  21.970  0.00  0.00    -0.244 NA
ATOM     49  C   UNL     1       5.925  -5.437  22.945  0.00  0.00    +0.133 A 
ENDBRANCH  43  44
ENDBRANCH   1  43
TORSDOF 18
ENDMDL
MODEL 8
REMARK VINA RESULT:      -5.5      3.088      7.441
REMARK  Name = 
REMARK  21 active torsions:
REMARK  status: ('A' for Active; 'I' for Inactive)
REMARK    1  A    between atoms: C_1  and  C_2
REMARK    2  A    between atoms: C_2  and  C_3
REMARK    3  A    between atoms: C_2  and  C_4
REMARK    4  A    between atoms: C_2  and  S_5
REMARK    5  A    between atoms: S_5  and  C_8
REMARK    6  A    between atoms: C_8  and  C_9
REMARK    7  A    between atoms: C_9  and  C_11
REMARK    8  A    between atoms: C_9  and  C_18
REMARK    9  A    between atoms: C_11  and  C_12
REMARK   10  A    between atoms: N_20  and  C_21
REMARK   11  A    between atoms: C_21  and  C_23
REMARK   12  A    between atoms: C_21  and  C_29
REMARK   13  A    between atoms: C_23  and  C_24
REMARK   14  A    between atoms: N_31  and  C_32
REMARK   15  A    between atoms: C_32  and  C_34
REMARK   16  A    between atoms: C_32  and  C_41
REMARK   17  A    between atoms: C_34  and  C_35
REMARK   18  A    between atoms: C_41  and  O_43
REMARK   19  A    between atoms: C_41  and  C_44
REMARK   20  A    between atoms: C_44  and  O_46
REMARK   21  A    between atoms: C_44  and  C_47
REMARK                            x       y       z     vdW  Elec       q    Type
REMARK                         _______ _______ _______ _____ _____    ______ ____
ROOT
ATOM      1  C   UNL     1       8.355  -2.659  24.086  0.00  0.00    +0.165 C 
ENDROOT
BRANCH   1   3
ATOM      2  C   UNL     1       7.453  -3.662  26.184  0.00  0.00    +0.219 C 
ATOM      3  N   UNL     1       7.255  -2.939  25.033  0.00  0.00    -0.303 N 
ATOM      4  H   UNL     1       6.488  -2.268  24.999  0.00  0.00    +0.149 HD
ATOM      5  O   UNL     1       8.570  -4.065  26.495  0.00  0.00    -0.275 OA
BRANCH   2   6
ATOM      6  C   UNL     1       6.196  -3.969  27.012  0.00  0.00    +0.100 C 
BRANCH   6   7
ATOM      7  C   UNL     1       4.969  -3.235  26.392  0.00  0.00    +0.049 C 
BRANCH   7   8
ATOM      8  C   UNL     1       4.195  -2.258  27.248  0.00  0.00    -0.047 A 
ATOM      9  C   UNL     1       4.651  -1.820  28.495  0.00  0.00    +0.003 A 
ATOM     10  C   UNL     1       3.894  -0.918  29.249  0.00  0.00    +0.000 A 
ATOM     11  C   UNL     1       2.664  -0.461  28.780  0.00  0.00    +0.000 A 
ATOM     12  C   UNL     1       2.179  -0.918  27.559  0.00  0.00    +0.000 A 
ATOM     13  C   UNL     1       2.936  -1.815  26.803  0.00  0.00    +0.003 A 
ENDBRANCH   7   8
ENDBRANCH   6   7
BRANCH   6  14
ATOM     14  C   UNL     1       5.820  -5.460  27.046  0.00  0.00    +0.179 C 
BRANCH  14  15
ATOM     15  S   UNL     1       5.434  -6.147  28.645  0.00  0.00    -0.025 S 
ATOM     16  O   UNL     1       5.876  -7.528  28.619  0.00  0.00    -0.174 OA
ATOM     17  O   UNL     1       6.001  -5.237  29.626  0.00  0.00    -0.174 OA
BRANCH  15  19
ATOM     18  C   UNL     1       3.087  -7.379  29.484  0.00  0.00    +0.035 C 
ATOM     19  C   UNL     1       3.604  -6.112  28.783  0.00  0.00    +0.079 C 
ATOM     20  C   UNL     1       3.153  -4.860  29.554  0.00  0.00    +0.035 C 
ATOM     21  C   UNL     1       2.985  -6.057  27.371  0.00  0.00    +0.035 C 
ENDBRANCH  15  19
ENDBRANCH  14  15
ENDBRANCH   6  14
ENDBRANCH   2   6
ENDBRANCH   1   3
BRANCH   1  22
ATOM     22  C   UNL     1       8.743  -1.171  24.207  0.00  0.00    +0.234 C 
ATOM     23  N   UNL     1       7.726  -0.245  24.130  0.00  0.00    -0.308 N 
ATOM     24  H   UNL     1       6.833  -0.549  23.762  0.00  0.00    +0.149 HD
ATOM     25  O   UNL     1       9.918  -0.839  24.377  0.00  0.00    -0.274 OA
BRANCH  23  26
ATOM     26  C   UNL     1       7.961   1.217  24.251  0.00  0.00    +0.104 C 
BRANCH  26  27
ATOM     27  C   UNL     1       7.101   2.006  23.194  0.00  0.00    +0.163 C 
BRANCH  27  28
ATOM     28  O   UNL     1       6.359   1.135  22.320  0.00  0.00    -0.387 OA
ATOM     29  H   UNL     1       6.969   0.531  21.862  0.00  0.00    +0.210 HD
ENDBRANCH  27  28
BRANCH  27  30
ATOM     30  C   UNL     1       7.893   3.002  22.296  0.00  0.00    +0.148 C 
BRANCH  30  31
ATOM     31  C   UNL     1       7.976   4.394  22.874  0.00  0.00    +0.020 C 
ATOM     32  C   UNL     1       6.841   4.972  23.686  0.00  0.00    +0.006 C 
ATOM     33  C   UNL     1       7.129   5.519  22.320  0.00  0.00    +0.006 C 
ENDBRANCH  30  31
BRANCH  30  34
ATOM     34  O   UNL     1       9.225   2.500  22.122  0.00  0.00    -0.389 OA
ATOM     35  H   UNL     1       9.816   3.268  22.070  0.00  0.00    +0.210 HD
ENDBRANCH  30  34
ENDBRANCH  27  30
ENDBRANCH  26  27
BRANCH  26  36
ATOM     36  C   UNL     1       7.634   1.678  25.700  0.00  0.00    +0.028 C 
BRANCH  36  37
ATOM     37  C   UNL     1       6.732   0.755  26.562  0.00  0.00    -0.009 C 
ATOM     38  C   UNL     1       5.246   1.155  26.421  0.00  0.00    +0.003 C 
ATOM     39  C   UNL     1       4.907   2.479  27.108  0.00  0.00    +0.000 C 
ATOM     40  C   UNL     1       5.318   2.486  28.576  0.00  0.00    +0.000 C 
ATOM     41  C   UNL     1       6.758   2.026  28.792  0.00  0.00    +0.000 C 
ATOM     42  C   UNL     1       7.096   0.731  28.055  0.00  0.00    +0.003 C 
ENDBRANCH  36  37
ENDBRANCH  26  36
ENDBRANCH  23  26
ENDBRANCH   1  22
BRANCH   1  43
ATOM     43  C   UNL     1       7.973  -2.977  22.626  0.00  0.00    +0.086 C 
BRANCH  43  44
ATOM     44  C   UNL     1       7.056  -4.152  22.432  0.00  0.00    +0.038 A 
ATOM     45  N   UNL     1       7.410  -5.466  22.630  0.00  0.00    -0.348 N 
ATOM     46  H   UNL     1       8.297  -5.802  22.988  0.00  0.00    +0.166 HD
ATOM     47  C   UNL     1       6.358  -6.247  22.259  0.00  0.00    +0.196 A 
ATOM     48  N   UNL     1       5.324  -5.521  21.905  0.00  0.00    -0.244 NA
ATOM     49  C   UNL     1       5.742  -4.219  22.019  0.00  0.00    +0.133 A 
ENDBRANCH  43  44
ENDBRANCH   1  43
TORSDOF 18
ENDMDL
MODEL 9
REMARK VINA RESULT:      -5.5      3.141      6.633
REMARK  Name = 
REMARK  21 active torsions:
REMARK  status: ('A' for Active; 'I' for Inactive)
REMARK    1  A    between atoms: C_1  and  C_2
REMARK    2  A    between atoms: C_2  and  C_3
REMARK    3  A    between atoms: C_2  and  C_4
REMARK    4  A    between atoms: C_2  and  S_5
REMARK    5  A    between atoms: S_5  and  C_8
REMARK    6  A    between atoms: C_8  and  C_9
REMARK    7  A    between atoms: C_9  and  C_11
REMARK    8  A    between atoms: C_9  and  C_18
REMARK    9  A    between atoms: C_11  and  C_12
REMARK   10  A    between atoms: N_20  and  C_21
REMARK   11  A    between atoms: C_21  and  C_23
REMARK   12  A    between atoms: C_21  and  C_29
REMARK   13  A    between atoms: C_23  and  C_24
REMARK   14  A    between atoms: N_31  and  C_32
REMARK   15  A    between atoms: C_32  and  C_34
REMARK   16  A    between atoms: C_32  and  C_41
REMARK   17  A    between atoms: C_34  and  C_35
REMARK   18  A    between atoms: C_41  and  O_43
REMARK   19  A    between atoms: C_41  and  C_44
REMARK   20  A    between atoms: C_44  and  O_46
REMARK   21  A    between atoms: C_44  and  C_47
REMARK                            x       y       z     vdW  Elec       q    Type
REMARK                         _______ _______ _______ _____ _____    ______ ____
ROOT
ATOM      1  C   UNL     1       5.144  -4.529  23.456  0.00  0.00    +0.165 C 
ENDROOT
BRANCH   1   3
ATOM      2  C   UNL     1       6.337  -2.385  23.009  0.00  0.00    +0.219 C 
ATOM      3  N   UNL     1       5.617  -3.188  23.859  0.00  0.00    -0.303 N 
ATOM      4  H   UNL     1       5.070  -2.753  24.602  0.00  0.00    +0.149 HD
ATOM      5  O   UNL     1       6.574  -2.733  21.856  0.00  0.00    -0.275 OA
BRANCH   2   6
ATOM      6  C   UNL     1       6.856  -1.067  23.604  0.00  0.00    +0.100 C 
BRANCH   6   7
ATOM      7  C   UNL     1       7.036  -1.223  25.144  0.00  0.00    +0.049 C 
BRANCH   7   8
ATOM      8  C   UNL     1       6.487  -0.147  26.054  0.00  0.00    -0.047 A 
ATOM      9  C   UNL     1       6.929   0.029  27.369  0.00  0.00    +0.003 A 
ATOM     10  C   UNL     1       6.386   1.038  28.170  0.00  0.00    +0.000 A 
ATOM     11  C   UNL     1       5.379   1.866  27.679  0.00  0.00    +0.000 A 
ATOM     12  C   UNL     1       4.901   1.678  26.386  0.00  0.00    +0.000 A 
ATOM     13  C   UNL     1       5.447   0.675  25.583  0.00  0.00    +0.003 A 
ENDBRANCH   7   8
ENDBRANCH   6   7
BRANCH   6  14
ATOM     14  C   UNL     1       8.232  -0.638  23.064  0.00  0.00    +0.179 C 
BRANCH  14  15
ATOM     15  S   UNL     1       8.416   1.082  22.631  0.00  0.00    -0.025 S 
ATOM     16  O   UNL     1       9.180   1.119  21.399  0.00  0.00    -0.174 OA
ATOM     17  O   UNL     1       7.080   1.652  22.657  0.00  0.00    -0.174 OA
BRANCH  15  19
ATOM     18  C   UNL     1       8.531   2.689  24.896  0.00  0.00    +0.035 C 
ATOM     19  C   UNL     1       9.416   1.837  23.972  0.00  0.00    +0.079 C 
ATOM     20  C   UNL     1      10.129   0.743  24.783  0.00  0.00    +0.035 C 
ATOM     21  C   UNL     1      10.492   2.755  23.354  0.00  0.00    +0.035 C 
ENDBRANCH  15  19
ENDBRANCH  14  15
ENDBRANCH   6  14
ENDBRANCH   2   6
ENDBRANCH   1   3
BRANCH   1  22
ATOM     22  C   UNL     1       3.866  -4.861  24.254  0.00  0.00    +0.234 C 
ATOM     23  N   UNL     1       3.841  -4.502  25.584  0.00  0.00    -0.308 N 
ATOM     24  H   UNL     1       4.720  -4.268  26.031  0.00  0.00    +0.149 HD
ATOM     25  O   UNL     1       2.911  -5.417  23.709  0.00  0.00    -0.274 OA
BRANCH  23  26
ATOM     26  C   UNL     1       2.666  -4.747  26.460  0.00  0.00    +0.104 C 
BRANCH  26  27
ATOM     27  C   UNL     1       2.970  -5.901  27.487  0.00  0.00    +0.163 C 
BRANCH  27  28
ATOM     28  O   UNL     1       2.285  -5.724  28.741  0.00  0.00    -0.387 OA
ATOM     29  H   UNL     1       1.754  -6.514  28.940  0.00  0.00    +0.210 HD
ENDBRANCH  27  28
BRANCH  27  30
ATOM     30  C   UNL     1       4.478  -6.130  27.808  0.00  0.00    +0.148 C 
BRANCH  30  31
ATOM     31  C   UNL     1       4.737  -6.457  29.258  0.00  0.00    +0.020 C 
ATOM     32  C   UNL     1       5.199  -5.397  30.228  0.00  0.00    +0.006 C 
ATOM     33  C   UNL     1       6.145  -6.482  29.811  0.00  0.00    +0.006 C 
ENDBRANCH  30  31
BRANCH  30  34
ATOM     34  O   UNL     1       4.956  -7.216  27.002  0.00  0.00    -0.389 OA
ATOM     35  H   UNL     1       5.653  -7.663  27.509  0.00  0.00    +0.210 HD
ENDBRANCH  30  34
ENDBRANCH  27  30
ENDBRANCH  26  27
BRANCH  26  36
ATOM     36  C   UNL     1       2.280  -3.430  27.191  0.00  0.00    +0.028 C 
BRANCH  36  37
ATOM     37  C   UNL     1       3.263  -2.235  27.088  0.00  0.00    -0.009 C 
ATOM     38  C   UNL     1       4.351  -2.323  28.182  0.00  0.00    +0.003 C 
ATOM     39  C   UNL     1       3.821  -2.036  29.588  0.00  0.00    +0.000 C 
ATOM     40  C   UNL     1       3.102  -0.695  29.668  0.00  0.00    +0.000 C 
ATOM     41  C   UNL     1       2.063  -0.511  28.564  0.00  0.00    +0.000 C 
ATOM     42  C   UNL     1       2.592  -0.854  27.172  0.00  0.00    +0.003 C 
ENDBRANCH  36  37
ENDBRANCH  26  36
ENDBRANCH  23  26
ENDBRANCH   1  22
BRANCH   1  43
ATOM     43  C   UNL     1       6.202  -5.625  23.694  0.00  0.00    +0.086 C 
BRANCH  43  44
ATOM     44  C   UNL     1       7.304  -5.272  24.653  0.00  0.00    +0.038 A 
ATOM     45  N   UNL     1       7.197  -5.319  26.024  0.00  0.00    -0.348 N 
ATOM     46  H   UNL     1       6.400  -5.653  26.553  0.00  0.00    +0.166 HD
ATOM     47  C   UNL     1       8.354  -4.834  26.554  0.00  0.00    +0.196 A 
ATOM     48  N   UNL     1       9.227  -4.549  25.617  0.00  0.00    -0.244 NA
ATOM     49  C   UNL     1       8.591  -4.825  24.434  0.00  0.00    +0.133 A 
ENDBRANCH  43  44
ENDBRANCH   1  43
TORSDOF 18
ENDMDL
