MODEL 1
REMARK VINA RESULT:      -5.9      0.000      0.000
REMARK  Name = 
REMARK  16 active torsions:
REMARK  status: ('A' for Active; 'I' for Inactive)
REMARK    1  A    between atoms: C_2  and  O_3
REMARK    2  A    between atoms: C_2  and  C_4
REMARK    3  A    between atoms: C_2  and  C_9
REMARK    4  A    between atoms: C_4  and  C_5
REMARK    5  A    between atoms: C_5  and  C_6
REMARK    6  A    between atoms: C_6  and  C_7
REMARK    7  A    between atoms: C_7  and  C_8
REMARK    8  A    between atoms: C_10  and  C_11
REMARK    9  A    between atoms: C_16  and  O_18
REMARK   10  A    between atoms: C_19  and  C_21
REMARK   11  A    between atoms: C_21  and  C_22
REMARK   12  A    between atoms: C_23  and  C_24
REMARK   13  A    between atoms: C_24  and  C_25
REMARK   14  A    between atoms: C_25  and  C_26
REMARK   15  A    between atoms: C_26  and  C_27
REMARK   16  A    between atoms: C_27  and  O_28
REMARK                            x       y       z     vdW  Elec       q    Type
REMARK                         _______ _______ _______ _____ _____    ______ ____
ROOT
ATOM      1  C   UNL     1       8.027  -3.097  24.873  0.00  0.00    +0.084 C 
ATOM      2  C   UNL     1       7.753  -3.490  26.342  0.00  0.00    +0.036 C 
ATOM      3  C   UNL     1       8.706  -4.667  26.671  0.00  0.00    +0.126 C 
ATOM      4  C   UNL     1       9.680  -4.847  25.514  0.00  0.00    +0.106 C 
ATOM      5  C   UNL     1       9.423  -3.648  24.660  0.00  0.00    +0.143 C 
ATOM      6  O   UNL     1      10.229  -3.238  23.834  0.00  0.00    -0.297 OA
ENDROOT
BRANCH   1   8
ATOM      7  C   UNL     1       8.532  -0.683  25.387  0.00  0.00    +0.000 C 
ATOM      8  C   UNL     1       7.955  -1.616  24.605  0.00  0.00    -0.017 C 
BRANCH   7   9
ATOM      9  C   UNL     1       8.396   0.798  25.158  0.00  0.00    +0.137 C 
BRANCH   9  10
ATOM     10  O   UNL     1       8.086   1.400  26.411  0.00  0.00    -0.388 OA
ATOM     11  H   UNL     1       8.876   1.348  26.971  0.00  0.00    +0.210 HD
ENDBRANCH   9  10
BRANCH   9  12
ATOM     12  C   UNL     1       9.665   1.454  24.604  0.00  0.00    +0.035 C 
BRANCH  12  13
ATOM     13  C   UNL     1       9.394   2.347  23.392  0.00  0.00    +0.003 C 
BRANCH  13  14
ATOM     14  C   UNL     1      10.015   1.754  22.130  0.00  0.00    -0.000 C 
BRANCH  14  15
ATOM     15  C   UNL     1       9.064   0.767  21.455  0.00  0.00    -0.003 C 
ATOM     16  C   UNL     1       9.634  -0.644  21.484  0.00  0.00    +0.004 C 
ENDBRANCH  14  15
ENDBRANCH  13  14
ENDBRANCH  12  13
ENDBRANCH   9  12
ENDBRANCH   7   9
ENDBRANCH   1   8
BRANCH   3  17
ATOM     17  O   UNL     1       8.016  -5.893  26.873  0.00  0.00    -0.391 OA
ATOM     18  H   UNL     1       7.137  -5.810  26.462  0.00  0.00    +0.210 HD
ENDBRANCH   3  17
BRANCH   2  19
ATOM     19  C   UNL     1       6.257  -3.782  26.542  0.00  0.00    +0.034 C 
BRANCH  19  20
ATOM     20  C   UNL     1       5.358  -2.646  26.131  0.00  0.00    -0.031 C 
ATOM     21  C   UNL     1       4.357  -2.697  25.246  0.00  0.00    -0.031 C 
BRANCH  21  22
ATOM     22  C   UNL     1       3.949  -3.902  24.455  0.00  0.00    +0.027 C 
BRANCH  22  23
ATOM     23  C   UNL     1       4.719  -4.010  23.141  0.00  0.00    +0.015 C 
BRANCH  23  24
ATOM     24  C   UNL     1       5.544  -5.294  23.128  0.00  0.00    +0.121 C 
BRANCH  24  25
ATOM     25  C   UNL     1       6.303  -5.465  21.839  0.00  0.00    +0.305 C 
ATOM     26  O   UNL     1       5.939  -5.070  20.743  0.00  0.00    -0.251 OA
BRANCH  25  27
ATOM     27  O   UNL     1       7.475  -6.116  22.024  0.00  0.00    -0.481 OA
ATOM     28  H   UNL     1       7.997  -6.222  21.205  0.00  0.00    +0.295 HD
ENDBRANCH  25  27
ENDBRANCH  24  25
ENDBRANCH  23  24
ENDBRANCH  22  23
ENDBRANCH  21  22
ENDBRANCH  19  20
ENDBRANCH   2  19
TORSDOF 15
ENDMDL
MODEL 2
REMARK VINA RESULT:      -5.8      1.821      5.868
REMARK  Name = 
REMARK  16 active torsions:
REMARK  status: ('A' for Active; 'I' for Inactive)
REMARK    1  A    between atoms: C_2  and  O_3
REMARK    2  A    between atoms: C_2  and  C_4
REMARK    3  A    between atoms: C_2  and  C_9
REMARK    4  A    between atoms: C_4  and  C_5
REMARK    5  A    between atoms: C_5  and  C_6
REMARK    6  A    between atoms: C_6  and  C_7
REMARK    7  A    between atoms: C_7  and  C_8
REMARK    8  A    between atoms: C_10  and  C_11
REMARK    9  A    between atoms: C_16  and  O_18
REMARK   10  A    between atoms: C_19  and  C_21
REMARK   11  A    between atoms: C_21  and  C_22
REMARK   12  A    between atoms: C_23  and  C_24
REMARK   13  A    between atoms: C_24  and  C_25
REMARK   14  A    between atoms: C_25  and  C_26
REMARK   15  A    between atoms: C_26  and  C_27
REMARK   16  A    between atoms: C_27  and  O_28
REMARK                            x       y       z     vdW  Elec       q    Type
REMARK                         _______ _______ _______ _____ _____    ______ ____
ROOT
ATOM      1  C   UNL     1       8.972  -1.744  23.388  0.00  0.00    +0.084 C 
ATOM      2  C   UNL     1       8.417  -0.774  24.455  0.00  0.00    +0.036 C 
ATOM      3  C   UNL     1       9.085   0.600  24.195  0.00  0.00    +0.126 C 
ATOM      4  C   UNL     1       9.856   0.530  22.884  0.00  0.00    +0.106 C 
ATOM      5  C   UNL     1       9.439  -0.785  22.310  0.00  0.00    +0.143 C 
ATOM      6  O   UNL     1       9.553  -1.056  21.122  0.00  0.00    -0.297 OA
ENDROOT
BRANCH   1   8
ATOM      7  C   UNL     1       6.659  -2.452  22.684  0.00  0.00    +0.000 C 
ATOM      8  C   UNL     1       7.964  -2.735  22.869  0.00  0.00    -0.017 C 
BRANCH   7   9
ATOM      9  C   UNL     1       5.641  -3.464  22.235  0.00  0.00    +0.137 C 
BRANCH   9  10
ATOM     10  O   UNL     1       5.564  -3.395  20.814  0.00  0.00    -0.388 OA
ATOM     11  H   UNL     1       5.965  -2.557  20.534  0.00  0.00    +0.210 HD
ENDBRANCH   9  10
BRANCH   9  12
ATOM     12  C   UNL     1       5.986  -4.903  22.634  0.00  0.00    +0.035 C 
BRANCH  12  13
ATOM     13  C   UNL     1       4.751  -5.789  22.793  0.00  0.00    +0.003 C 
BRANCH  13  14
ATOM     14  C   UNL     1       4.189  -5.689  24.210  0.00  0.00    -0.000 C 
BRANCH  14  15
ATOM     15  C   UNL     1       4.447  -6.970  25.001  0.00  0.00    -0.003 C 
ATOM     16  C   UNL     1       4.123  -6.774  26.474  0.00  0.00    +0.004 C 
ENDBRANCH  14  15
ENDBRANCH  13  14
ENDBRANCH  12  13
ENDBRANCH   9  12
ENDBRANCH   7   9
ENDBRANCH   1   8
BRANCH   3  17
ATOM     17  O   UNL     1       9.986   0.978  25.227  0.00  0.00    -0.391 OA
ATOM     18  H   UNL     1      10.452   0.175  25.524  0.00  0.00    +0.210 HD
ENDBRANCH   3  17
BRANCH   2  19
ATOM     19  C   UNL     1       8.637  -1.353  25.863  0.00  0.00    +0.034 C 
BRANCH  19  20
ATOM     20  C   UNL     1       7.443  -1.210  26.769  0.00  0.00    -0.031 C 
ATOM     21  C   UNL     1       6.422  -2.066  26.890  0.00  0.00    -0.031 C 
BRANCH  21  22
ATOM     22  C   UNL     1       6.248  -3.335  26.113  0.00  0.00    +0.027 C 
BRANCH  22  23
ATOM     23  C   UNL     1       7.009  -4.498  26.741  0.00  0.00    +0.015 C 
BRANCH  23  24
ATOM     24  C   UNL     1       7.808  -5.234  25.669  0.00  0.00    +0.121 C 
BRANCH  24  25
ATOM     25  C   UNL     1       9.284  -4.957  25.775  0.00  0.00    +0.305 C 
ATOM     26  O   UNL     1      10.066  -4.907  24.839  0.00  0.00    -0.251 OA
BRANCH  25  27
ATOM     27  O   UNL     1       9.671  -4.752  27.055  0.00  0.00    -0.481 OA
ATOM     28  H   UNL     1       9.891  -5.575  27.533  0.00  0.00    +0.295 HD
ENDBRANCH  25  27
ENDBRANCH  24  25
ENDBRANCH  23  24
ENDBRANCH  22  23
ENDBRANCH  21  22
ENDBRANCH  19  20
ENDBRANCH   2  19
TORSDOF 15
ENDMDL
MODEL 3
REMARK VINA RESULT:      -5.8      2.213      6.451
REMARK  Name = 
REMARK  16 active torsions:
REMARK  status: ('A' for Active; 'I' for Inactive)
REMARK    1  A    between atoms: C_2  and  O_3
REMARK    2  A    between atoms: C_2  and  C_4
REMARK    3  A    between atoms: C_2  and  C_9
REMARK    4  A    between atoms: C_4  and  C_5
REMARK    5  A    between atoms: C_5  and  C_6
REMARK    6  A    between atoms: C_6  and  C_7
REMARK    7  A    between atoms: C_7  and  C_8
REMARK    8  A    between atoms: C_10  and  C_11
REMARK    9  A    between atoms: C_16  and  O_18
REMARK   10  A    between atoms: C_19  and  C_21
REMARK   11  A    between atoms: C_21  and  C_22
REMARK   12  A    between atoms: C_23  and  C_24
REMARK   13  A    between atoms: C_24  and  C_25
REMARK   14  A    between atoms: C_25  and  C_26
REMARK   15  A    between atoms: C_26  and  C_27
REMARK   16  A    between atoms: C_27  and  O_28
REMARK                            x       y       z     vdW  Elec       q    Type
REMARK                         _______ _______ _______ _____ _____    ______ ____
ROOT
ATOM      1  C   UNL     1       5.871  -0.899  25.199  0.00  0.00    +0.084 C 
ATOM      2  C   UNL     1       7.235  -0.901  25.924  0.00  0.00    +0.036 C 
ATOM      3  C   UNL     1       7.067  -0.020  27.188  0.00  0.00    +0.126 C 
ATOM      4  C   UNL     1       5.595   0.333  27.347  0.00  0.00    +0.106 C 
ATOM      5  C   UNL     1       4.924  -0.523  26.322  0.00  0.00    +0.143 C 
ATOM      6  O   UNL     1       3.732  -0.799  26.365  0.00  0.00    -0.297 OA
ENDROOT
BRANCH   1   8
ATOM      7  C   UNL     1       5.750  -2.522  23.276  0.00  0.00    +0.000 C 
ATOM      8  C   UNL     1       5.505  -2.215  24.565  0.00  0.00    -0.017 C 
BRANCH   7   9
ATOM      9  C   UNL     1       5.317  -3.808  22.626  0.00  0.00    +0.137 C 
BRANCH   9  10
ATOM     10  O   UNL     1       5.642  -3.721  21.243  0.00  0.00    -0.388 OA
ATOM     11  H   UNL     1       5.350  -4.542  20.815  0.00  0.00    +0.210 HD
ENDBRANCH   9  10
BRANCH   9  12
ATOM     12  C   UNL     1       5.998  -5.051  23.209  0.00  0.00    +0.035 C 
BRANCH  12  13
ATOM     13  C   UNL     1       7.507  -5.074  22.964  0.00  0.00    +0.003 C 
BRANCH  13  14
ATOM     14  C   UNL     1       8.271  -5.156  24.283  0.00  0.00    -0.000 C 
BRANCH  14  15
ATOM     15  C   UNL     1       7.317  -5.178  25.476  0.00  0.00    -0.003 C 
ATOM     16  C   UNL     1       7.926  -4.463  26.673  0.00  0.00    +0.004 C 
ENDBRANCH  14  15
ENDBRANCH  13  14
ENDBRANCH  12  13
ENDBRANCH   9  12
ENDBRANCH   7   9
ENDBRANCH   1   8
BRANCH   3  17
ATOM     17  O   UNL     1       7.815   1.187  27.120  0.00  0.00    -0.391 OA
ATOM     18  H   UNL     1       8.740   0.953  26.926  0.00  0.00    +0.210 HD
ENDBRANCH   3  17
BRANCH   2  19
ATOM     19  C   UNL     1       8.349  -0.458  24.959  0.00  0.00    +0.034 C 
BRANCH  19  20
ATOM     20  C   UNL     1       9.342  -1.544  24.643  0.00  0.00    -0.031 C 
ATOM     21  C   UNL     1       9.659  -2.011  23.430  0.00  0.00    -0.031 C 
BRANCH  21  22
ATOM     22  C   UNL     1       9.053  -1.563  22.135  0.00  0.00    +0.027 C 
BRANCH  22  23
ATOM     23  C   UNL     1       9.799  -0.374  21.537  0.00  0.00    +0.015 C 
BRANCH  23  24
ATOM     24  C   UNL     1       8.878   0.842  21.483  0.00  0.00    +0.121 C 
BRANCH  24  25
ATOM     25  C   UNL     1       9.412   1.993  22.293  0.00  0.00    +0.305 C 
ATOM     26  O   UNL     1      10.364   1.943  23.056  0.00  0.00    -0.251 OA
BRANCH  25  27
ATOM     27  O   UNL     1       8.714   3.132  22.077  0.00  0.00    -0.481 OA
ATOM     28  H   UNL     1       7.756   2.985  21.952  0.00  0.00    +0.295 HD
ENDBRANCH  25  27
ENDBRANCH  24  25
ENDBRANCH  23  24
ENDBRANCH  22  23
ENDBRANCH  21  22
ENDBRANCH  19  20
ENDBRANCH   2  19
TORSDOF 15
ENDMDL
MODEL 4
REMARK VINA RESULT:      -5.8      3.091      7.986
REMARK  Name = 
REMARK  16 active torsions:
REMARK  status: ('A' for Active; 'I' for Inactive)
REMARK    1  A    between atoms: C_2  and  O_3
REMARK    2  A    between atoms: C_2  and  C_4
REMARK    3  A    between atoms: C_2  and  C_9
REMARK    4  A    between atoms: C_4  and  C_5
REMARK    5  A    between atoms: C_5  and  C_6
REMARK    6  A    between atoms: C_6  and  C_7
REMARK    7  A    between atoms: C_7  and  C_8
REMARK    8  A    between atoms: C_10  and  C_11
REMARK    9  A    between atoms: C_16  and  O_18
REMARK   10  A    between atoms: C_19  and  C_21
REMARK   11  A    between atoms: C_21  and  C_22
REMARK   12  A    between atoms: C_23  and  C_24
REMARK   13  A    between atoms: C_24  and  C_25
REMARK   14  A    between atoms: C_25  and  C_26
REMARK   15  A    between atoms: C_26  and  C_27
REMARK   16  A    between atoms: C_27  and  O_28
REMARK                            x       y       z     vdW  Elec       q    Type
REMARK                         _______ _______ _______ _____ _____    ______ ____
ROOT
ATOM      1  C   UNL     1      10.042  -0.195  23.690  0.00  0.00    +0.084 C 
ATOM      2  C   UNL     1       9.054   0.982  23.527  0.00  0.00    +0.036 C 
ATOM      3  C   UNL     1       8.806   1.144  22.006  0.00  0.00    +0.126 C 
ATOM      4  C   UNL     1       9.448  -0.027  21.276  0.00  0.00    +0.106 C 
ATOM      5  C   UNL     1       9.850  -0.944  22.386  0.00  0.00    +0.143 C 
ATOM      6  O   UNL     1      10.073  -2.135  22.213  0.00  0.00    -0.297 OA
ENDROOT
BRANCH   1   8
ATOM      7  C   UNL     1       8.614  -1.718  25.100  0.00  0.00    +0.000 C 
ATOM      8  C   UNL     1       9.774  -1.066  24.889  0.00  0.00    -0.017 C 
BRANCH   7   9
ATOM      9  C   UNL     1       8.323  -2.527  26.335  0.00  0.00    +0.137 C 
BRANCH   9  10
ATOM     10  O   UNL     1       6.946  -2.350  26.650  0.00  0.00    -0.388 OA
ATOM     11  H   UNL     1       6.722  -2.963  27.367  0.00  0.00    +0.210 HD
ENDBRANCH   9  10
BRANCH   9  12
ATOM     12  C   UNL     1       8.596  -4.026  26.167  0.00  0.00    +0.035 C 
BRANCH  12  13
ATOM     13  C   UNL     1       8.544  -4.480  24.708  0.00  0.00    +0.003 C 
BRANCH  13  14
ATOM     14  C   UNL     1       7.163  -5.030  24.359  0.00  0.00    -0.000 C 
BRANCH  14  15
ATOM     15  C   UNL     1       6.800  -4.734  22.904  0.00  0.00    -0.003 C 
ATOM     16  C   UNL     1       7.186  -5.895  22.000  0.00  0.00    +0.004 C 
ENDBRANCH  14  15
ENDBRANCH  13  14
ENDBRANCH  12  13
ENDBRANCH   9  12
ENDBRANCH   7   9
ENDBRANCH   1   8
BRANCH   3  17
ATOM     17  O   UNL     1       9.349   2.351  21.486  0.00  0.00    -0.391 OA
ATOM     18  H   UNL     1       8.628   2.834  21.043  0.00  0.00    +0.210 HD
ENDBRANCH   3  17
BRANCH   2  19
ATOM     19  C   UNL     1       9.597   2.232  24.240  0.00  0.00    +0.034 C 
BRANCH  19  20
ATOM     20  C   UNL     1       8.545   3.005  24.990  0.00  0.00    -0.031 C 
ATOM     21  C   UNL     1       8.135   4.253  24.736  0.00  0.00    -0.031 C 
BRANCH  21  22
ATOM     22  C   UNL     1       8.674   5.149  23.663  0.00  0.00    +0.027 C 
BRANCH  22  23
ATOM     23  C   UNL     1       9.837   6.002  24.163  0.00  0.00    +0.015 C 
BRANCH  23  24
ATOM     24  C   UNL     1      11.125   5.584  23.459  0.00  0.00    +0.121 C 
BRANCH  24  25
ATOM     25  C   UNL     1      12.350   6.065  24.190  0.00  0.00    +0.305 C 
ATOM     26  O   UNL     1      12.353   6.800  25.165  0.00  0.00    -0.251 OA
BRANCH  25  27
ATOM     27  O   UNL     1      13.489   5.578  23.646  0.00  0.00    -0.481 OA
ATOM     28  H   UNL     1      14.227   5.505  24.282  0.00  0.00    +0.295 HD
ENDBRANCH  25  27
ENDBRANCH  24  25
ENDBRANCH  23  24
ENDBRANCH  22  23
ENDBRANCH  21  22
ENDBRANCH  19  20
ENDBRANCH   2  19
TORSDOF 15
ENDMDL
MODEL 5
REMARK VINA RESULT:      -5.8      2.226      4.817
REMARK  Name = 
REMARK  16 active torsions:
REMARK  status: ('A' for Active; 'I' for Inactive)
REMARK    1  A    between atoms: C_2  and  O_3
REMARK    2  A    between atoms: C_2  and  C_4
REMARK    3  A    between atoms: C_2  and  C_9
REMARK    4  A    between atoms: C_4  and  C_5
REMARK    5  A    between atoms: C_5  and  C_6
REMARK    6  A    between atoms: C_6  and  C_7
REMARK    7  A    between atoms: C_7  and  C_8
REMARK    8  A    between atoms: C_10  and  C_11
REMARK    9  A    between atoms: C_16  and  O_18
REMARK   10  A    between atoms: C_19  and  C_21
REMARK   11  A    between atoms: C_21  and  C_22
REMARK   12  A    between atoms: C_23  and  C_24
REMARK   13  A    between atoms: C_24  and  C_25
REMARK   14  A    between atoms: C_25  and  C_26
REMARK   15  A    between atoms: C_26  and  C_27
REMARK   16  A    between atoms: C_27  and  O_28
REMARK                            x       y       z     vdW  Elec       q    Type
REMARK                         _______ _______ _______ _____ _____    ______ ____
ROOT
ATOM      1  C   UNL     1       7.721  -4.326  25.628  0.00  0.00    +0.084 C 
ATOM      2  C   UNL     1       6.664  -4.163  24.513  0.00  0.00    +0.036 C 
ATOM      3  C   UNL     1       5.591  -5.255  24.756  0.00  0.00    +0.126 C 
ATOM      4  C   UNL     1       5.867  -5.924  26.096  0.00  0.00    +0.106 C 
ATOM      5  C   UNL     1       6.936  -5.067  26.693  0.00  0.00    +0.143 C 
ATOM      6  O   UNL     1       7.181  -5.054  27.893  0.00  0.00    -0.297 OA
ENDROOT
BRANCH   1   8
ATOM      7  C   UNL     1       7.670  -1.836  26.005  0.00  0.00    +0.000 C 
ATOM      8  C   UNL     1       8.285  -3.027  26.140  0.00  0.00    -0.017 C 
BRANCH   7   9
ATOM      9  C   UNL     1       8.270  -0.531  26.453  0.00  0.00    +0.137 C 
BRANCH   9  10
ATOM     10  O   UNL     1       9.602  -0.477  25.951  0.00  0.00    -0.388 OA
ATOM     11  H   UNL     1      10.037  -1.317  26.167  0.00  0.00    +0.210 HD
ENDBRANCH   9  10
BRANCH   9  12
ATOM     12  C   UNL     1       7.510   0.701  25.949  0.00  0.00    +0.035 C 
BRANCH  12  13
ATOM     13  C   UNL     1       6.821   0.468  24.605  0.00  0.00    +0.003 C 
BRANCH  13  14
ATOM     14  C   UNL     1       6.293   1.779  24.029  0.00  0.00    -0.000 C 
BRANCH  14  15
ATOM     15  C   UNL     1       6.517   1.852  22.519  0.00  0.00    -0.003 C 
ATOM     16  C   UNL     1       6.817   3.278  22.081  0.00  0.00    +0.004 C 
ENDBRANCH  14  15
ENDBRANCH  13  14
ENDBRANCH  12  13
ENDBRANCH   9  12
ENDBRANCH   7   9
ENDBRANCH   1   8
BRANCH   3  17
ATOM     17  O   UNL     1       5.586  -6.256  23.746  0.00  0.00    -0.391 OA
ATOM     18  H   UNL     1       4.751  -6.752  23.824  0.00  0.00    +0.210 HD
ENDBRANCH   3  17
BRANCH   2  19
ATOM     19  C   UNL     1       7.340  -4.204  23.132  0.00  0.00    +0.034 C 
BRANCH  19  20
ATOM     20  C   UNL     1       7.248  -2.906  22.376  0.00  0.00    -0.031 C 
ATOM     21  C   UNL     1       8.205  -1.979  22.256  0.00  0.00    -0.031 C 
BRANCH  21  22
ATOM     22  C   UNL     1       9.562  -2.037  22.889  0.00  0.00    +0.027 C 
BRANCH  22  23
ATOM     23  C   UNL     1      10.524  -1.026  22.271  0.00  0.00    +0.015 C 
BRANCH  23  24
ATOM     24  C   UNL     1       9.748   0.191  21.775  0.00  0.00    +0.121 C 
BRANCH  24  25
ATOM     25  C   UNL     1      10.104   1.438  22.539  0.00  0.00    +0.305 C 
ATOM     26  O   UNL     1      10.225   1.518  23.751  0.00  0.00    -0.251 OA
BRANCH  25  27
ATOM     27  O   UNL     1      10.291   2.499  21.720  0.00  0.00    -0.481 OA
ATOM     28  H   UNL     1       9.498   3.059  21.618  0.00  0.00    +0.295 HD
ENDBRANCH  25  27
ENDBRANCH  24  25
ENDBRANCH  23  24
ENDBRANCH  22  23
ENDBRANCH  21  22
ENDBRANCH  19  20
ENDBRANCH   2  19
TORSDOF 15
ENDMDL
MODEL 6
REMARK VINA RESULT:      -5.8      1.778      5.847
REMARK  Name = 
REMARK  16 active torsions:
REMARK  status: ('A' for Active; 'I' for Inactive)
REMARK    1  A    between atoms: C_2  and  O_3
REMARK    2  A    between atoms: C_2  and  C_4
REMARK    3  A    between atoms: C_2  and  C_9
REMARK    4  A    between atoms: C_4  and  C_5
REMARK    5  A    between atoms: C_5  and  C_6
REMARK    6  A    between atoms: C_6  and  C_7
REMARK    7  A    between atoms: C_7  and  C_8
REMARK    8  A    between atoms: C_10  and  C_11
REMARK    9  A    between atoms: C_16  and  O_18
REMARK   10  A    between atoms: C_19  and  C_21
REMARK   11  A    between atoms: C_21  and  C_22
REMARK   12  A    between atoms: C_23  and  C_24
REMARK   13  A    between atoms: C_24  and  C_25
REMARK   14  A    between atoms: C_25  and  C_26
REMARK   15  A    between atoms: C_26  and  C_27
REMARK   16  A    between atoms: C_27  and  O_28
REMARK                            x       y       z     vdW  Elec       q    Type
REMARK                         _______ _______ _______ _____ _____    ______ ____
ROOT
ATOM      1  C   UNL     1       9.038  -1.422  23.628  0.00  0.00    +0.084 C 
ATOM      2  C   UNL     1       7.823  -0.507  23.359  0.00  0.00    +0.036 C 
ATOM      3  C   UNL     1       8.351   0.703  22.547  0.00  0.00    +0.126 C 
ATOM      4  C   UNL     1       9.795   0.432  22.147  0.00  0.00    +0.106 C 
ATOM      5  C   UNL     1       9.995  -0.998  22.532  0.00  0.00    +0.143 C 
ATOM      6  O   UNL     1      10.889  -1.691  22.063  0.00  0.00    -0.297 OA
ENDROOT
BRANCH   1   8
ATOM      7  C   UNL     1       7.706  -3.421  22.867  0.00  0.00    +0.000 C 
ATOM      8  C   UNL     1       8.728  -2.895  23.571  0.00  0.00    -0.017 C 
BRANCH   7   9
ATOM      9  C   UNL     1       7.355  -4.884  22.872  0.00  0.00    +0.137 C 
BRANCH   9  10
ATOM     10  O   UNL     1       8.402  -5.575  23.547  0.00  0.00    -0.388 OA
ATOM     11  H   UNL     1       8.158  -6.512  23.596  0.00  0.00    +0.210 HD
ENDBRANCH   9  10
BRANCH   9  12
ATOM     12  C   UNL     1       6.031  -5.197  23.578  0.00  0.00    +0.035 C 
BRANCH  12  13
ATOM     13  C   UNL     1       4.974  -4.113  23.369  0.00  0.00    +0.003 C 
BRANCH  13  14
ATOM     14  C   UNL     1       3.570  -4.672  23.588  0.00  0.00    -0.000 C 
BRANCH  14  15
ATOM     15  C   UNL     1       2.878  -3.987  24.765  0.00  0.00    -0.003 C 
ATOM     16  C   UNL     1       2.790  -4.921  25.963  0.00  0.00    +0.004 C 
ENDBRANCH  14  15
ENDBRANCH  13  14
ENDBRANCH  12  13
ENDBRANCH   9  12
ENDBRANCH   7   9
ENDBRANCH   1   8
BRANCH   3  17
ATOM     17  O   UNL     1       8.307   1.919  23.281  0.00  0.00    -0.391 OA
ATOM     18  H   UNL     1       9.214   2.120  23.576  0.00  0.00    +0.210 HD
ENDBRANCH   3  17
BRANCH   2  19
ATOM     19  C   UNL     1       7.122  -0.153  24.682  0.00  0.00    +0.034 C 
BRANCH  19  20
ATOM     20  C   UNL     1       5.711  -0.669  24.775  0.00  0.00    -0.031 C 
ATOM     21  C   UNL     1       5.198  -1.426  25.751  0.00  0.00    -0.031 C 
BRANCH  21  22
ATOM     22  C   UNL     1       5.946  -1.944  26.941  0.00  0.00    +0.027 C 
BRANCH  22  23
ATOM     23  C   UNL     1       6.047  -3.467  26.933  0.00  0.00    +0.015 C 
BRANCH  23  24
ATOM     24  C   UNL     1       7.496  -3.889  26.702  0.00  0.00    +0.121 C 
BRANCH  24  25
ATOM     25  C   UNL     1       7.737  -5.322  27.095  0.00  0.00    +0.305 C 
ATOM     26  O   UNL     1       7.187  -5.909  28.014  0.00  0.00    -0.251 OA
BRANCH  25  27
ATOM     27  O   UNL     1       8.649  -5.921  26.294  0.00  0.00    -0.481 OA
ATOM     28  H   UNL     1       9.271  -5.295  25.874  0.00  0.00    +0.295 HD
ENDBRANCH  25  27
ENDBRANCH  24  25
ENDBRANCH  23  24
ENDBRANCH  22  23
ENDBRANCH  21  22
ENDBRANCH  19  20
ENDBRANCH   2  19
TORSDOF 15
ENDMDL
MODEL 7
REMARK VINA RESULT:      -5.7      2.613      4.894
REMARK  Name = 
REMARK  16 active torsions:
REMARK  status: ('A' for Active; 'I' for Inactive)
REMARK    1  A    between atoms: C_2  and  O_3
REMARK    2  A    between atoms: C_2  and  C_4
REMARK    3  A    between atoms: C_2  and  C_9
REMARK    4  A    between atoms: C_4  and  C_5
REMARK    5  A    between atoms: C_5  and  C_6
REMARK    6  A    between atoms: C_6  and  C_7
REMARK    7  A    between atoms: C_7  and  C_8
REMARK    8  A    between atoms: C_10  and  C_11
REMARK    9  A    between atoms: C_16  and  O_18
REMARK   10  A    between atoms: C_19  and  C_21
REMARK   11  A    between atoms: C_21  and  C_22
REMARK   12  A    between atoms: C_23  and  C_24
REMARK   13  A    between atoms: C_24  and  C_25
REMARK   14  A    between atoms: C_25  and  C_26
REMARK   15  A    between atoms: C_26  and  C_27
REMARK   16  A    between atoms: C_27  and  O_28
REMARK                            x       y       z     vdW  Elec       q    Type
REMARK                         _______ _______ _______ _____ _____    ______ ____
ROOT
ATOM      1  C   UNL     1       9.073   1.143  23.496  0.00  0.00    +0.084 C 
ATOM      2  C   UNL     1      10.247   0.213  23.875  0.00  0.00    +0.036 C 
ATOM      3  C   UNL     1      10.343  -0.858  22.759  0.00  0.00    +0.126 C 
ATOM      4  C   UNL     1       9.402  -0.471  21.627  0.00  0.00    +0.106 C 
ATOM      5  C   UNL     1       8.961   0.906  22.003  0.00  0.00    +0.143 C 
ATOM      6  O   UNL     1       8.489   1.695  21.193  0.00  0.00    -0.297 OA
ENDROOT
BRANCH   1   8
ATOM      7  C   UNL     1       8.336   3.429  24.256  0.00  0.00    +0.000 C 
ATOM      8  C   UNL     1       9.303   2.595  23.825  0.00  0.00    -0.017 C 
BRANCH   7   9
ATOM      9  C   UNL     1       8.553   4.896  24.512  0.00  0.00    +0.137 C 
BRANCH   9  10
ATOM     10  O   UNL     1       8.738   5.064  25.914  0.00  0.00    -0.388 OA
ATOM     11  H   UNL     1       8.828   6.013  26.092  0.00  0.00    +0.210 HD
ENDBRANCH   9  10
BRANCH   9  12
ATOM     12  C   UNL     1       9.773   5.474  23.787  0.00  0.00    +0.035 C 
BRANCH  12  13
ATOM     13  C   UNL     1      10.616   6.387  24.676  0.00  0.00    +0.003 C 
BRANCH  13  14
ATOM     14  C   UNL     1      12.102   6.234  24.360  0.00  0.00    -0.000 C 
BRANCH  14  15
ATOM     15  C   UNL     1      12.344   5.090  23.376  0.00  0.00    -0.003 C 
ATOM     16  C   UNL     1      13.252   5.534  22.238  0.00  0.00    +0.004 C 
ENDBRANCH  14  15
ENDBRANCH  13  14
ENDBRANCH  12  13
ENDBRANCH   9  12
ENDBRANCH   7   9
ENDBRANCH   1   8
BRANCH   3  17
ATOM     17  O   UNL     1       9.991  -2.158  23.213  0.00  0.00    -0.391 OA
ATOM     18  H   UNL     1      10.653  -2.783  22.865  0.00  0.00    +0.210 HD
ENDBRANCH   3  17
BRANCH   2  19
ATOM     19  C   UNL     1      10.048  -0.338  25.298  0.00  0.00    +0.034 C 
BRANCH  19  20
ATOM     20  C   UNL     1       8.652  -0.153  25.828  0.00  0.00    -0.031 C 
ATOM     21  C   UNL     1       7.703  -1.091  25.930  0.00  0.00    -0.031 C 
BRANCH  21  22
ATOM     22  C   UNL     1       7.836  -2.519  25.499  0.00  0.00    +0.027 C 
BRANCH  22  23
ATOM     23  C   UNL     1       8.445  -3.391  26.594  0.00  0.00    +0.015 C 
BRANCH  23  24
ATOM     24  C   UNL     1       8.400  -4.858  26.172  0.00  0.00    +0.121 C 
BRANCH  24  25
ATOM     25  C   UNL     1       9.029  -5.077  24.822  0.00  0.00    +0.305 C 
ATOM     26  O   UNL     1       8.429  -5.344  23.793  0.00  0.00    -0.251 OA
BRANCH  25  27
ATOM     27  O   UNL     1      10.375  -4.936  24.861  0.00  0.00    -0.481 OA
ATOM     28  H   UNL     1      10.861  -5.758  24.657  0.00  0.00    +0.295 HD
ENDBRANCH  25  27
ENDBRANCH  24  25
ENDBRANCH  23  24
ENDBRANCH  22  23
ENDBRANCH  21  22
ENDBRANCH  19  20
ENDBRANCH   2  19
TORSDOF 15
ENDMDL
MODEL 8
REMARK VINA RESULT:      -5.6      2.690      5.125
REMARK  Name = 
REMARK  16 active torsions:
REMARK  status: ('A' for Active; 'I' for Inactive)
REMARK    1  A    between atoms: C_2  and  O_3
REMARK    2  A    between atoms: C_2  and  C_4
REMARK    3  A    between atoms: C_2  and  C_9
REMARK    4  A    between atoms: C_4  and  C_5
REMARK    5  A    between atoms: C_5  and  C_6
REMARK    6  A    between atoms: C_6  and  C_7
REMARK    7  A    between atoms: C_7  and  C_8
REMARK    8  A    between atoms: C_10  and  C_11
REMARK    9  A    between atoms: C_16  and  O_18
REMARK   10  A    between atoms: C_19  and  C_21
REMARK   11  A    between atoms: C_21  and  C_22
REMARK   12  A    between atoms: C_23  and  C_24
REMARK   13  A    between atoms: C_24  and  C_25
REMARK   14  A    between atoms: C_25  and  C_26
REMARK   15  A    between atoms: C_26  and  C_27
REMARK   16  A    between atoms: C_27  and  O_28
REMARK                            x       y       z     vdW  Elec       q    Type
REMARK                         _______ _______ _______ _____ _____    ______ ____
ROOT
ATOM      1  C   UNL     1       9.250   1.195  23.210  0.00  0.00    +0.084 C 
ATOM      2  C   UNL     1      10.373   0.253  23.699  0.00  0.00    +0.036 C 
ATOM      3  C   UNL     1      10.374  -0.968  22.744  0.00  0.00    +0.126 C 
ATOM      4  C   UNL     1       9.432  -0.684  21.583  0.00  0.00    +0.106 C 
ATOM      5  C   UNL     1       9.087   0.759  21.767  0.00  0.00    +0.143 C 
ATOM      6  O   UNL     1       8.645   1.455  20.862  0.00  0.00    -0.297 OA
ENDROOT
BRANCH   1   8
ATOM      7  C   UNL     1      10.832   3.144  23.419  0.00  0.00    +0.000 C 
ATOM      8  C   UNL     1       9.578   2.660  23.326  0.00  0.00    -0.017 C 
BRANCH   7   9
ATOM      9  C   UNL     1      11.151   4.602  23.609  0.00  0.00    +0.137 C 
BRANCH   9  10
ATOM     10  O   UNL     1      11.996   5.000  22.534  0.00  0.00    -0.388 OA
ATOM     11  H   UNL     1      11.439   5.138  21.751  0.00  0.00    +0.210 HD
ENDBRANCH   9  10
BRANCH   9  12
ATOM     12  C   UNL     1       9.915   5.508  23.617  0.00  0.00    +0.035 C 
BRANCH  12  13
ATOM     13  C   UNL     1       9.579   6.044  25.009  0.00  0.00    +0.003 C 
BRANCH  13  14
ATOM     14  C   UNL     1       8.112   5.793  25.349  0.00  0.00    -0.000 C 
BRANCH  14  15
ATOM     15  C   UNL     1       7.915   4.410  25.968  0.00  0.00    -0.003 C 
ATOM     16  C   UNL     1       6.678   3.730  25.398  0.00  0.00    +0.004 C 
ENDBRANCH  14  15
ENDBRANCH  13  14
ENDBRANCH  12  13
ENDBRANCH   9  12
ENDBRANCH   7   9
ENDBRANCH   1   8
BRANCH   3  17
ATOM     17  O   UNL     1       9.954  -2.166  23.383  0.00  0.00    -0.391 OA
ATOM     18  H   UNL     1      10.331  -2.172  24.281  0.00  0.00    +0.210 HD
ENDBRANCH   3  17
BRANCH   2  19
ATOM     19  C   UNL     1      10.175  -0.079  25.188  0.00  0.00    +0.034 C 
BRANCH  19  20
ATOM     20  C   UNL     1       8.740  -0.008  25.638  0.00  0.00    -0.031 C 
ATOM     21  C   UNL     1       8.047  -0.968  26.261  0.00  0.00    -0.031 C 
BRANCH  21  22
ATOM     22  C   UNL     1       8.560  -2.332  26.607  0.00  0.00    +0.027 C 
BRANCH  22  23
ATOM     23  C   UNL     1       7.545  -3.424  26.280  0.00  0.00    +0.015 C 
BRANCH  23  24
ATOM     24  C   UNL     1       8.197  -4.797  26.422  0.00  0.00    +0.121 C 
BRANCH  24  25
ATOM     25  C   UNL     1       9.138  -5.096  25.286  0.00  0.00    +0.305 C 
ATOM     26  O   UNL     1       8.901  -4.919  24.101  0.00  0.00    -0.251 OA
BRANCH  25  27
ATOM     27  O   UNL     1      10.319  -5.592  25.723  0.00  0.00    -0.481 OA
ATOM     28  H   UNL     1      11.018  -5.595  25.041  0.00  0.00    +0.295 HD
ENDBRANCH  25  27
ENDBRANCH  24  25
ENDBRANCH  23  24
ENDBRANCH  22  23
ENDBRANCH  21  22
ENDBRANCH  19  20
ENDBRANCH   2  19
TORSDOF 15
ENDMDL
MODEL 9
REMARK VINA RESULT:      -5.5      2.228      4.875
REMARK  Name = 
REMARK  16 active torsions:
REMARK  status: ('A' for Active; 'I' for Inactive)
REMARK    1  A    between atoms: C_2  and  O_3
REMARK    2  A    between atoms: C_2  and  C_4
REMARK    3  A    between atoms: C_2  and  C_9
REMARK    4  A    between atoms: C_4  and  C_5
REMARK    5  A    between atoms: C_5  and  C_6
REMARK    6  A    between atoms: C_6  and  C_7
REMARK    7  A    between atoms: C_7  and  C_8
REMARK    8  A    between atoms: C_10  and  C_11
REMARK    9  A    between atoms: C_16  and  O_18
REMARK   10  A    between atoms: C_19  and  C_21
REMARK   11  A    between atoms: C_21  and  C_22
REMARK   12  A    between atoms: C_23  and  C_24
REMARK   13  A    between atoms: C_24  and  C_25
REMARK   14  A    between atoms: C_25  and  C_26
REMARK   15  A    between atoms: C_26  and  C_27
REMARK   16  A    between atoms: C_27  and  O_28
REMARK                            x       y       z     vdW  Elec       q    Type
REMARK                         _______ _______ _______ _____ _____    ______ ____
ROOT
ATOM      1  C   UNL     1       7.574  -3.364  24.557  0.00  0.00    +0.084 C 
ATOM      2  C   UNL     1       8.053  -3.159  26.011  0.00  0.00    +0.036 C 
ATOM      3  C   UNL     1       7.869  -4.517  26.734  0.00  0.00    +0.126 C 
ATOM      4  C   UNL     1       7.494  -5.574  25.705  0.00  0.00    +0.106 C 
ATOM      5  C   UNL     1       7.689  -4.868  24.402  0.00  0.00    +0.143 C 
ATOM      6  O   UNL     1       7.835  -5.462  23.341  0.00  0.00    -0.297 OA
ENDROOT
BRANCH   1   8
ATOM      7  C   UNL     1       9.685  -2.300  23.686  0.00  0.00    +0.000 C 
ATOM      8  C   UNL     1       8.387  -2.624  23.527  0.00  0.00    -0.017 C 
BRANCH   7   9
ATOM      9  C   UNL     1      10.473  -1.496  22.688  0.00  0.00    +0.137 C 
BRANCH   9  10
ATOM     10  O   UNL     1       9.939  -1.773  21.397  0.00  0.00    -0.388 OA
ATOM     11  H   UNL     1      10.422  -1.233  20.752  0.00  0.00    +0.210 HD
ENDBRANCH   9  10
BRANCH   9  12
ATOM     12  C   UNL     1      10.409   0.016  22.927  0.00  0.00    +0.035 C 
BRANCH  12  13
ATOM     13  C   UNL     1       9.602   0.754  21.859  0.00  0.00    +0.003 C 
BRANCH  13  14
ATOM     14  C   UNL     1       9.599   2.258  22.123  0.00  0.00    -0.000 C 
BRANCH  14  15
ATOM     15  C   UNL     1       9.977   2.568  23.570  0.00  0.00    -0.003 C 
ATOM     16  C   UNL     1      10.169   4.064  23.774  0.00  0.00    +0.004 C 
ENDBRANCH  14  15
ENDBRANCH  13  14
ENDBRANCH  12  13
ENDBRANCH   9  12
ENDBRANCH   7   9
ENDBRANCH   1   8
BRANCH   3  17
ATOM     17  O   UNL     1       6.854  -4.478  27.729  0.00  0.00    -0.391 OA
ATOM     18  H   UNL     1       7.211  -4.896  28.534  0.00  0.00    +0.210 HD
ENDBRANCH   3  17
BRANCH   2  19
ATOM     19  C   UNL     1       7.314  -1.971  26.650  0.00  0.00    +0.034 C 
BRANCH  19  20
ATOM     20  C   UNL     1       8.134  -0.710  26.710  0.00  0.00    -0.031 C 
ATOM     21  C   UNL     1       8.043   0.345  25.893  0.00  0.00    -0.031 C 
BRANCH  21  22
ATOM     22  C   UNL     1       7.117   0.466  24.721  0.00  0.00    +0.027 C 
BRANCH  22  23
ATOM     23  C   UNL     1       6.390   1.808  24.703  0.00  0.00    +0.015 C 
BRANCH  23  24
ATOM     24  C   UNL     1       6.101   2.221  23.262  0.00  0.00    +0.121 C 
BRANCH  24  25
ATOM     25  C   UNL     1       6.319   3.694  23.042  0.00  0.00    +0.305 C 
ATOM     26  O   UNL     1       6.697   4.490  23.886  0.00  0.00    -0.251 OA
BRANCH  25  27
ATOM     27  O   UNL     1       6.052   4.061  21.767  0.00  0.00    -0.481 OA
ATOM     28  H   UNL     1       6.412   3.445  21.100  0.00  0.00    +0.295 HD
ENDBRANCH  25  27
ENDBRANCH  24  25
ENDBRANCH  23  24
ENDBRANCH  22  23
ENDBRANCH  21  22
ENDBRANCH  19  20
ENDBRANCH   2  19
TORSDOF 15
ENDMDL
