MODEL 1
REMARK VINA RESULT:      -7.3      0.000      0.000
REMARK  Name = 
REMARK  3 active torsions:
REMARK  status: ('A' for Active; 'I' for Inactive)
REMARK    1  A    between atoms: N_4  and  C_5
REMARK    2  A    between atoms: C_5  and  C_6
REMARK    3  A    between atoms: C_6  and  C_7
REMARK                            x       y       z     vdW  Elec       q    Type
REMARK                         _______ _______ _______ _____ _____    ______ ____
ROOT
ATOM      1  O   UNL     1       6.398  -4.616  21.509  0.00  0.00    -0.266 OA
ATOM      2  C   UNL     1       6.885  -4.487  22.627  0.00  0.00    +0.271 A 
ATOM      3  C   UNL     1       6.328  -5.187  23.795  0.00  0.00    +0.053 A 
ATOM      4  C   UNL     1       5.182  -5.986  23.656  0.00  0.00    +0.014 A 
ATOM      5  C   UNL     1       4.622  -6.607  24.776  0.00  0.00    +0.001 A 
ATOM      6  C   UNL     1       5.205  -6.443  26.031  0.00  0.00    +0.001 A 
ATOM      7  C   UNL     1       6.350  -5.660  26.167  0.00  0.00    +0.014 A 
ATOM      8  C   UNL     1       6.909  -5.029  25.047  0.00  0.00    +0.053 A 
ATOM      9  C   UNL     1       8.099  -4.174  25.220  0.00  0.00    +0.274 A 
ATOM     10  O   UNL     1       8.533  -3.987  26.353  0.00  0.00    -0.266 OA
ATOM     11  N   UNL     1       8.659  -3.628  24.071  0.00  0.00    -0.249 N 
ATOM     12  N   UNL     1       7.960  -3.661  22.853  0.00  0.00    -0.260 N 
ATOM     13  H   UNL     1       8.369  -3.221  22.035  0.00  0.00    +0.190 HD
ENDROOT
BRANCH  11  14
ATOM     14  C   UNL     1       9.659  -2.557  24.149  0.00  0.00    +0.150 C 
BRANCH  14  15
ATOM     15  C   UNL     1       9.997  -1.917  22.794  0.00  0.00    +0.058 C 
BRANCH  15  16
ATOM     16  C   UNL     1      10.107  -0.415  22.891  0.00  0.00    -0.046 A 
ATOM     17  C   UNL     1       9.755   0.395  21.804  0.00  0.00    +0.004 A 
ATOM     18  C   UNL     1       9.861   1.783  21.898  0.00  0.00    +0.000 A 
ATOM     19  C   UNL     1      10.315   2.373  23.077  0.00  0.00    +0.000 A 
ATOM     20  C   UNL     1      10.664   1.575  24.165  0.00  0.00    +0.000 A 
ATOM     21  C   UNL     1      10.558   0.188  24.075  0.00  0.00    +0.004 A 
ENDBRANCH  15  16
ENDBRANCH  14  15
ENDBRANCH  11  14
TORSDOF 3
ENDMDL
MODEL 2
REMARK VINA RESULT:      -7.1      2.157      3.014
REMARK  Name = 
REMARK  3 active torsions:
REMARK  status: ('A' for Active; 'I' for Inactive)
REMARK    1  A    between atoms: N_4  and  C_5
REMARK    2  A    between atoms: C_5  and  C_6
REMARK    3  A    between atoms: C_6  and  C_7
REMARK                            x       y       z     vdW  Elec       q    Type
REMARK                         _______ _______ _______ _____ _____    ______ ____
ROOT
ATOM      1  O   UNL     1       9.523  -5.417  24.775  0.00  0.00    -0.266 OA
ATOM      2  C   UNL     1       8.740  -4.519  24.482  0.00  0.00    +0.271 A 
ATOM      3  C   UNL     1       7.764  -4.674  23.391  0.00  0.00    +0.053 A 
ATOM      4  C   UNL     1       7.746  -5.850  22.625  0.00  0.00    +0.014 A 
ATOM      5  C   UNL     1       6.855  -5.974  21.556  0.00  0.00    +0.001 A 
ATOM      6  C   UNL     1       5.977  -4.936  21.253  0.00  0.00    +0.001 A 
ATOM      7  C   UNL     1       5.986  -3.773  22.021  0.00  0.00    +0.014 A 
ATOM      8  C   UNL     1       6.884  -3.642  23.090  0.00  0.00    +0.053 A 
ATOM      9  C   UNL     1       6.904  -2.388  23.867  0.00  0.00    +0.274 A 
ATOM     10  O   UNL     1       6.174  -1.465  23.518  0.00  0.00    -0.266 OA
ATOM     11  N   UNL     1       7.761  -2.332  24.960  0.00  0.00    -0.249 N 
ATOM     12  N   UNL     1       8.753  -3.312  25.137  0.00  0.00    -0.260 N 
ATOM     13  H   UNL     1       9.395  -3.230  25.919  0.00  0.00    +0.190 HD
ENDROOT
BRANCH  11  14
ATOM     14  C   UNL     1       8.061  -1.060  25.625  0.00  0.00    +0.150 C 
BRANCH  14  15
ATOM     15  C   UNL     1       9.517  -0.597  25.461  0.00  0.00    +0.058 C 
BRANCH  15  16
ATOM     16  C   UNL     1       9.697   0.282  24.248  0.00  0.00    -0.046 A 
ATOM     17  C   UNL     1       9.819   1.670  24.388  0.00  0.00    +0.004 A 
ATOM     18  C   UNL     1       9.982   2.478  23.262  0.00  0.00    +0.000 A 
ATOM     19  C   UNL     1      10.031   1.909  21.991  0.00  0.00    +0.000 A 
ATOM     20  C   UNL     1       9.916   0.528  21.843  0.00  0.00    +0.000 A 
ATOM     21  C   UNL     1       9.753  -0.284  22.965  0.00  0.00    +0.004 A 
ENDBRANCH  15  16
ENDBRANCH  14  15
ENDBRANCH  11  14
TORSDOF 3
ENDMDL
MODEL 3
REMARK VINA RESULT:      -7.0      1.037      2.611
REMARK  Name = 
REMARK  3 active torsions:
REMARK  status: ('A' for Active; 'I' for Inactive)
REMARK    1  A    between atoms: N_4  and  C_5
REMARK    2  A    between atoms: C_5  and  C_6
REMARK    3  A    between atoms: C_6  and  C_7
REMARK                            x       y       z     vdW  Elec       q    Type
REMARK                         _______ _______ _______ _____ _____    ______ ____
ROOT
ATOM      1  O   UNL     1       7.572  -5.537  27.489  0.00  0.00    -0.266 OA
ATOM      2  C   UNL     1       7.498  -5.109  26.342  0.00  0.00    +0.271 A 
ATOM      3  C   UNL     1       6.388  -5.482  25.451  0.00  0.00    +0.053 A 
ATOM      4  C   UNL     1       5.409  -6.387  25.888  0.00  0.00    +0.014 A 
ATOM      5  C   UNL     1       4.385  -6.782  25.022  0.00  0.00    +0.001 A 
ATOM      6  C   UNL     1       4.329  -6.272  23.727  0.00  0.00    +0.001 A 
ATOM      7  C   UNL     1       5.295  -5.364  23.296  0.00  0.00    +0.014 A 
ATOM      8  C   UNL     1       6.328  -4.972  24.160  0.00  0.00    +0.053 A 
ATOM      9  C   UNL     1       7.361  -4.039  23.672  0.00  0.00    +0.274 A 
ATOM     10  O   UNL     1       7.324  -3.677  22.500  0.00  0.00    -0.266 OA
ATOM     11  N   UNL     1       8.323  -3.624  24.585  0.00  0.00    -0.249 N 
ATOM     12  N   UNL     1       8.462  -4.280  25.820  0.00  0.00    -0.260 N 
ATOM     13  H   UNL     1       9.198  -3.989  26.456  0.00  0.00    +0.190 HD
ENDROOT
BRANCH  11  14
ATOM     14  C   UNL     1       9.538  -2.929  24.146  0.00  0.00    +0.150 C 
BRANCH  14  15
ATOM     15  C   UNL     1       9.752  -1.562  24.813  0.00  0.00    +0.058 C 
BRANCH  15  16
ATOM     16  C   UNL     1       9.808  -0.443  23.803  0.00  0.00    -0.046 A 
ATOM     17  C   UNL     1      10.229   0.837  24.183  0.00  0.00    +0.004 A 
ATOM     18  C   UNL     1      10.276   1.870  23.245  0.00  0.00    +0.000 A 
ATOM     19  C   UNL     1       9.908   1.632  21.922  0.00  0.00    +0.000 A 
ATOM     20  C   UNL     1       9.491   0.360  21.534  0.00  0.00    +0.000 A 
ATOM     21  C   UNL     1       9.444  -0.674  22.468  0.00  0.00    +0.004 A 
ENDBRANCH  15  16
ENDBRANCH  14  15
ENDBRANCH  11  14
TORSDOF 3
ENDMDL
MODEL 4
REMARK VINA RESULT:      -7.0      2.384      6.726
REMARK  Name = 
REMARK  3 active torsions:
REMARK  status: ('A' for Active; 'I' for Inactive)
REMARK    1  A    between atoms: N_4  and  C_5
REMARK    2  A    between atoms: C_5  and  C_6
REMARK    3  A    between atoms: C_6  and  C_7
REMARK                            x       y       z     vdW  Elec       q    Type
REMARK                         _______ _______ _______ _____ _____    ______ ____
ROOT
ATOM      1  O   UNL     1       8.075   0.404  26.538  0.00  0.00    -0.266 OA
ATOM      2  C   UNL     1       8.633  -0.098  25.569  0.00  0.00    +0.271 A 
ATOM      3  C   UNL     1       9.082   0.719  24.430  0.00  0.00    +0.053 A 
ATOM      4  C   UNL     1       8.829   2.099  24.412  0.00  0.00    +0.014 A 
ATOM      5  C   UNL     1       9.208   2.864  23.305  0.00  0.00    +0.001 A 
ATOM      6  C   UNL     1       9.844   2.262  22.223  0.00  0.00    +0.001 A 
ATOM      7  C   UNL     1      10.106   0.893  22.246  0.00  0.00    +0.014 A 
ATOM      8  C   UNL     1       9.721   0.121  23.350  0.00  0.00    +0.053 A 
ATOM      9  C   UNL     1       9.974  -1.333  23.338  0.00  0.00    +0.274 A 
ATOM     10  O   UNL     1      10.461  -1.840  22.333  0.00  0.00    -0.266 OA
ATOM     11  N   UNL     1       9.639  -2.044  24.485  0.00  0.00    -0.249 N 
ATOM     12  N   UNL     1       8.845  -1.453  25.483  0.00  0.00    -0.260 N 
ATOM     13  H   UNL     1       8.577  -2.003  26.293  0.00  0.00    +0.190 HD
ENDROOT
BRANCH  11  14
ATOM     14  C   UNL     1       9.589  -3.510  24.481  0.00  0.00    +0.150 C 
BRANCH  14  15
ATOM     15  C   UNL     1       8.192  -4.089  24.750  0.00  0.00    +0.058 C 
BRANCH  15  16
ATOM     16  C   UNL     1       7.468  -4.435  23.472  0.00  0.00    -0.046 A 
ATOM     17  C   UNL     1       6.684  -3.478  22.818  0.00  0.00    +0.004 A 
ATOM     18  C   UNL     1       6.014  -3.804  21.638  0.00  0.00    +0.000 A 
ATOM     19  C   UNL     1       6.125  -5.085  21.100  0.00  0.00    +0.000 A 
ATOM     20  C   UNL     1       6.907  -6.044  21.742  0.00  0.00    +0.000 A 
ATOM     21  C   UNL     1       7.579  -5.721  22.921  0.00  0.00    +0.004 A 
ENDBRANCH  15  16
ENDBRANCH  14  15
ENDBRANCH  11  14
TORSDOF 3
ENDMDL
MODEL 5
REMARK VINA RESULT:      -6.9      2.142      6.433
REMARK  Name = 
REMARK  3 active torsions:
REMARK  status: ('A' for Active; 'I' for Inactive)
REMARK    1  A    between atoms: N_4  and  C_5
REMARK    2  A    between atoms: C_5  and  C_6
REMARK    3  A    between atoms: C_6  and  C_7
REMARK                            x       y       z     vdW  Elec       q    Type
REMARK                         _______ _______ _______ _____ _____    ______ ____
ROOT
ATOM      1  O   UNL     1      10.908  -1.820  22.267  0.00  0.00    -0.266 OA
ATOM      2  C   UNL     1       9.845  -1.639  22.852  0.00  0.00    +0.271 A 
ATOM      3  C   UNL     1       8.981  -0.489  22.541  0.00  0.00    +0.053 A 
ATOM      4  C   UNL     1       9.389   0.461  21.593  0.00  0.00    +0.014 A 
ATOM      5  C   UNL     1       8.593   1.581  21.338  0.00  0.00    +0.001 A 
ATOM      6  C   UNL     1       7.389   1.752  22.017  0.00  0.00    +0.001 A 
ATOM      7  C   UNL     1       6.978   0.802  22.950  0.00  0.00    +0.014 A 
ATOM      8  C   UNL     1       7.778  -0.318  23.215  0.00  0.00    +0.053 A 
ATOM      9  C   UNL     1       7.342  -1.292  24.233  0.00  0.00    +0.274 A 
ATOM     10  O   UNL     1       6.318  -1.064  24.869  0.00  0.00    -0.266 OA
ATOM     11  N   UNL     1       8.133  -2.422  24.409  0.00  0.00    -0.249 N 
ATOM     12  N   UNL     1       9.419  -2.486  23.846  0.00  0.00    -0.260 N 
ATOM     13  H   UNL     1       9.995  -3.303  24.021  0.00  0.00    +0.190 HD
ENDROOT
BRANCH  11  14
ATOM     14  C   UNL     1       7.949  -3.304  25.567  0.00  0.00    +0.150 C 
BRANCH  14  15
ATOM     15  C   UNL     1       8.022  -4.801  25.230  0.00  0.00    +0.058 C 
BRANCH  15  16
ATOM     16  C   UNL     1       7.152  -5.158  24.050  0.00  0.00    -0.046 A 
ATOM     17  C   UNL     1       5.757  -5.079  24.146  0.00  0.00    +0.004 A 
ATOM     18  C   UNL     1       4.957  -5.414  23.052  0.00  0.00    +0.000 A 
ATOM     19  C   UNL     1       5.542  -5.823  21.856  0.00  0.00    +0.000 A 
ATOM     20  C   UNL     1       6.929  -5.900  21.749  0.00  0.00    +0.000 A 
ATOM     21  C   UNL     1       7.732  -5.566  22.839  0.00  0.00    +0.004 A 
ENDBRANCH  15  16
ENDBRANCH  14  15
ENDBRANCH  11  14
TORSDOF 3
ENDMDL
MODEL 6
REMARK VINA RESULT:      -6.6      1.612      7.156
REMARK  Name = 
REMARK  3 active torsions:
REMARK  status: ('A' for Active; 'I' for Inactive)
REMARK    1  A    between atoms: N_4  and  C_5
REMARK    2  A    between atoms: C_5  and  C_6
REMARK    3  A    between atoms: C_6  and  C_7
REMARK                            x       y       z     vdW  Elec       q    Type
REMARK                         _______ _______ _______ _____ _____    ______ ____
ROOT
ATOM      1  O   UNL     1       9.239  -0.381  26.545  0.00  0.00    -0.266 OA
ATOM      2  C   UNL     1       9.160  -0.747  25.377  0.00  0.00    +0.271 A 
ATOM      3  C   UNL     1       9.539   0.141  24.265  0.00  0.00    +0.053 A 
ATOM      4  C   UNL     1       9.955   1.455  24.525  0.00  0.00    +0.014 A 
ATOM      5  C   UNL     1      10.263   2.313  23.466  0.00  0.00    +0.001 A 
ATOM      6  C   UNL     1      10.166   1.864  22.151  0.00  0.00    +0.001 A 
ATOM      7  C   UNL     1       9.764   0.554  21.893  0.00  0.00    +0.014 A 
ATOM      8  C   UNL     1       9.447  -0.307  22.953  0.00  0.00    +0.053 A 
ATOM      9  C   UNL     1       8.988  -1.677  22.656  0.00  0.00    +0.274 A 
ATOM     10  O   UNL     1       8.836  -2.009  21.485  0.00  0.00    -0.266 OA
ATOM     11  N   UNL     1       8.754  -2.515  23.741  0.00  0.00    -0.249 N 
ATOM     12  N   UNL     1       8.688  -1.993  25.043  0.00  0.00    -0.260 N 
ATOM     13  H   UNL     1       8.475  -2.616  25.816  0.00  0.00    +0.190 HD
ENDROOT
BRANCH  11  14
ATOM     14  C   UNL     1       8.041  -3.787  23.577  0.00  0.00    +0.150 C 
BRANCH  14  15
ATOM     15  C   UNL     1       8.484  -4.883  24.558  0.00  0.00    +0.058 C 
BRANCH  15  16
ATOM     16  C   UNL     1       7.386  -5.254  25.524  0.00  0.00    -0.046 A 
ATOM     17  C   UNL     1       6.106  -5.578  25.056  0.00  0.00    +0.004 A 
ATOM     18  C   UNL     1       5.094  -5.918  25.954  0.00  0.00    +0.000 A 
ATOM     19  C   UNL     1       5.351  -5.941  27.324  0.00  0.00    +0.000 A 
ATOM     20  C   UNL     1       6.622  -5.624  27.799  0.00  0.00    +0.000 A 
ATOM     21  C   UNL     1       7.637  -5.285  26.904  0.00  0.00    +0.004 A 
ENDBRANCH  15  16
ENDBRANCH  14  15
ENDBRANCH  11  14
TORSDOF 3
ENDMDL
MODEL 7
REMARK VINA RESULT:      -6.6      1.782      2.334
REMARK  Name = 
REMARK  3 active torsions:
REMARK  status: ('A' for Active; 'I' for Inactive)
REMARK    1  A    between atoms: N_4  and  C_5
REMARK    2  A    between atoms: C_5  and  C_6
REMARK    3  A    between atoms: C_6  and  C_7
REMARK                            x       y       z     vdW  Elec       q    Type
REMARK                         _______ _______ _______ _____ _____    ______ ____
ROOT
ATOM      1  O   UNL     1       5.026  -1.289  24.996  0.00  0.00    -0.266 OA
ATOM      2  C   UNL     1       5.726  -2.212  24.592  0.00  0.00    +0.271 A 
ATOM      3  C   UNL     1       5.191  -3.575  24.443  0.00  0.00    +0.053 A 
ATOM      4  C   UNL     1       3.867  -3.856  24.813  0.00  0.00    +0.014 A 
ATOM      5  C   UNL     1       3.378  -5.162  24.721  0.00  0.00    +0.001 A 
ATOM      6  C   UNL     1       4.199  -6.185  24.254  0.00  0.00    +0.001 A 
ATOM      7  C   UNL     1       5.510  -5.904  23.874  0.00  0.00    +0.014 A 
ATOM      8  C   UNL     1       6.007  -4.597  23.973  0.00  0.00    +0.053 A 
ATOM      9  C   UNL     1       7.409  -4.328  23.601  0.00  0.00    +0.274 A 
ATOM     10  O   UNL     1       8.124  -5.270  23.273  0.00  0.00    -0.266 OA
ATOM     11  N   UNL     1       7.835  -3.006  23.648  0.00  0.00    -0.249 N 
ATOM     12  N   UNL     1       7.052  -2.027  24.284  0.00  0.00    -0.260 N 
ATOM     13  H   UNL     1       7.400  -1.076  24.343  0.00  0.00    +0.190 HD
ENDROOT
BRANCH  11  14
ATOM     14  C   UNL     1       9.259  -2.664  23.569  0.00  0.00    +0.150 C 
BRANCH  14  15
ATOM     15  C   UNL     1       9.626  -1.785  22.363  0.00  0.00    +0.058 C 
BRANCH  15  16
ATOM     16  C   UNL     1       9.915  -0.361  22.768  0.00  0.00    -0.046 A 
ATOM     17  C   UNL     1      10.313  -0.061  24.077  0.00  0.00    +0.004 A 
ATOM     18  C   UNL     1      10.576   1.258  24.447  0.00  0.00    +0.000 A 
ATOM     19  C   UNL     1      10.449   2.286  23.514  0.00  0.00    +0.000 A 
ATOM     20  C   UNL     1      10.058   1.997  22.208  0.00  0.00    +0.000 A 
ATOM     21  C   UNL     1       9.795   0.680  21.834  0.00  0.00    +0.004 A 
ENDBRANCH  15  16
ENDBRANCH  14  15
ENDBRANCH  11  14
TORSDOF 3
ENDMDL
MODEL 8
REMARK VINA RESULT:      -6.5      2.247      6.446
REMARK  Name = 
REMARK  3 active torsions:
REMARK  status: ('A' for Active; 'I' for Inactive)
REMARK    1  A    between atoms: N_4  and  C_5
REMARK    2  A    between atoms: C_5  and  C_6
REMARK    3  A    between atoms: C_6  and  C_7
REMARK                            x       y       z     vdW  Elec       q    Type
REMARK                         _______ _______ _______ _____ _____    ______ ____
ROOT
ATOM      1  O   UNL     1       5.513   0.277  24.718  0.00  0.00    -0.266 OA
ATOM      2  C   UNL     1       6.405  -0.276  24.085  0.00  0.00    +0.271 A 
ATOM      3  C   UNL     1       7.757   0.297  23.999  0.00  0.00    +0.053 A 
ATOM      4  C   UNL     1       8.039   1.530  24.606  0.00  0.00    +0.014 A 
ATOM      5  C   UNL     1       9.309   2.099  24.478  0.00  0.00    +0.001 A 
ATOM      6  C   UNL     1      10.301   1.440  23.755  0.00  0.00    +0.001 A 
ATOM      7  C   UNL     1      10.025   0.210  23.162  0.00  0.00    +0.014 A 
ATOM      8  C   UNL     1       8.750  -0.360  23.281  0.00  0.00    +0.053 A 
ATOM      9  C   UNL     1       8.468  -1.645  22.614  0.00  0.00    +0.274 A 
ATOM     10  O   UNL     1       9.342  -2.154  21.918  0.00  0.00    -0.266 OA
ATOM     11  N   UNL     1       7.212  -2.205  22.821  0.00  0.00    -0.249 N 
ATOM     12  N   UNL     1       6.181  -1.447  23.400  0.00  0.00    -0.260 N 
ATOM     13  H   UNL     1       5.261  -1.861  23.505  0.00  0.00    +0.190 HD
ENDROOT
BRANCH  11  14
ATOM     14  C   UNL     1       6.734  -3.321  21.997  0.00  0.00    +0.150 C 
BRANCH  14  15
ATOM     15  C   UNL     1       7.341  -4.681  22.374  0.00  0.00    +0.058 C 
BRANCH  15  16
ATOM     16  C   UNL     1       7.354  -4.899  23.867  0.00  0.00    -0.046 A 
ATOM     17  C   UNL     1       6.161  -5.136  24.562  0.00  0.00    +0.004 A 
ATOM     18  C   UNL     1       6.179  -5.334  25.943  0.00  0.00    +0.000 A 
ATOM     19  C   UNL     1       7.385  -5.303  26.640  0.00  0.00    +0.000 A 
ATOM     20  C   UNL     1       8.578  -5.073  25.957  0.00  0.00    +0.000 A 
ATOM     21  C   UNL     1       8.565  -4.875  24.576  0.00  0.00    +0.004 A 
ENDBRANCH  15  16
ENDBRANCH  14  15
ENDBRANCH  11  14
TORSDOF 3
ENDMDL
MODEL 9
REMARK VINA RESULT:      -6.4      2.198      7.186
REMARK  Name = 
REMARK  3 active torsions:
REMARK  status: ('A' for Active; 'I' for Inactive)
REMARK    1  A    between atoms: N_4  and  C_5
REMARK    2  A    between atoms: C_5  and  C_6
REMARK    3  A    between atoms: C_6  and  C_7
REMARK                            x       y       z     vdW  Elec       q    Type
REMARK                         _______ _______ _______ _____ _____    ______ ____
ROOT
ATOM      1  O   UNL     1       5.744   0.731  24.388  0.00  0.00    -0.266 OA
ATOM      2  C   UNL     1       6.582   0.112  23.742  0.00  0.00    +0.271 A 
ATOM      3  C   UNL     1       7.812   0.758  23.257  0.00  0.00    +0.053 A 
ATOM      4  C   UNL     1       8.025   2.126  23.486  0.00  0.00    +0.014 A 
ATOM      5  C   UNL     1       9.168   2.750  22.979  0.00  0.00    +0.001 A 
ATOM      6  C   UNL     1      10.102   2.015  22.252  0.00  0.00    +0.001 A 
ATOM      7  C   UNL     1       9.897   0.653  22.034  0.00  0.00    +0.014 A 
ATOM      8  C   UNL     1       8.747   0.026  22.535  0.00  0.00    +0.053 A 
ATOM      9  C   UNL     1       8.531  -1.407  22.262  0.00  0.00    +0.274 A 
ATOM     10  O   UNL     1       9.333  -2.001  21.548  0.00  0.00    -0.266 OA
ATOM     11  N   UNL     1       7.413  -2.001  22.839  0.00  0.00    -0.249 N 
ATOM     12  N   UNL     1       6.404  -1.211  23.413  0.00  0.00    -0.260 N 
ATOM     13  H   UNL     1       5.577  -1.661  23.792  0.00  0.00    +0.190 HD
ENDROOT
BRANCH  11  14
ATOM     14  C   UNL     1       6.956  -3.329  22.415  0.00  0.00    +0.150 C 
BRANCH  14  15
ATOM     15  C   UNL     1       7.596  -4.488  23.193  0.00  0.00    +0.058 C 
BRANCH  15  16
ATOM     16  C   UNL     1       6.579  -5.254  24.003  0.00  0.00    -0.046 A 
ATOM     17  C   UNL     1       5.565  -5.981  23.368  0.00  0.00    +0.004 A 
ATOM     18  C   UNL     1       4.626  -6.685  24.122  0.00  0.00    +0.000 A 
ATOM     19  C   UNL     1       4.694  -6.674  25.514  0.00  0.00    +0.000 A 
ATOM     20  C   UNL     1       5.703  -5.957  26.156  0.00  0.00    +0.000 A 
ATOM     21  C   UNL     1       6.644  -5.253  25.405  0.00  0.00    +0.004 A 
ENDBRANCH  15  16
ENDBRANCH  14  15
ENDBRANCH  11  14
TORSDOF 3
ENDMDL
