MODEL 1
REMARK VINA RESULT:      -6.1      0.000      0.000
REMARK  Name = 
REMARK  7 active torsions:
REMARK  status: ('A' for Active; 'I' for Inactive)
REMARK    1  A    between atoms: C_2  and  C_3
REMARK    2  A    between atoms: C_3  and  S_4
REMARK    3  A    between atoms: S_4  and  C_5
REMARK    4  A    between atoms: C_7  and  N_9
REMARK    5  A    between atoms: C_13  and  N_14
REMARK    6  A    between atoms: C_19  and  O_21
REMARK    7  A    between atoms: C_22  and  O_24
REMARK                            x       y       z     vdW  Elec       q    Type
REMARK                         _______ _______ _______ _____ _____    ______ ____
ROOT
ATOM      1  C   UNL     1       6.441  -4.306  24.629  0.00  0.00    +0.162 C 
ATOM      2  C   UNL     1       6.473  -5.091  23.318  0.00  0.00    +0.177 C 
ATOM      3  C   UNL     1       6.747  -4.043  22.235  0.00  0.00    +0.195 C 
ATOM      4  C   UNL     1       6.843  -2.722  23.009  0.00  0.00    +0.252 C 
ATOM      5  O   UNL     1       7.164  -3.098  24.361  0.00  0.00    -0.347 OA
ENDROOT
BRANCH   4   6
ATOM      6  N   UNL     1       7.827  -1.744  22.564  0.00  0.00    -0.303 N 
ATOM      7  C   UNL     1       7.714  -0.373  22.611  0.00  0.00    +0.148 A 
ATOM      8  C   UNL     1       8.932   0.168  22.209  0.00  0.00    +0.058 A 
ATOM      9  C   UNL     1       9.032   1.566  22.186  0.00  0.00    +0.129 A 
ATOM     10  N   UNL     1       7.954   2.301  22.515  0.00  0.00    -0.220 NA
ATOM     11  C   UNL     1       6.834   1.653  22.883  0.00  0.00    +0.225 A 
ATOM     12  C   UNL     1       9.800  -0.917  21.920  0.00  0.00    +0.033 A 
ATOM     13  N   UNL     1       6.624   0.324  22.984  0.00  0.00    -0.218 NA
ATOM     14  C   UNL     1       9.101  -2.077  22.148  0.00  0.00    +0.091 A 
BRANCH   9  15
ATOM     15  N   UNL     1      10.194   2.242  21.846  0.00  0.00    -0.343 N 
ATOM     16  H   UNL     1      10.618   1.861  21.009  0.00  0.00    +0.144 HD
ATOM     17  H   UNL     1      10.812   2.466  22.613  0.00  0.00    +0.144 HD
ENDBRANCH   9  15
ENDBRANCH   4   6
BRANCH   2  18
ATOM     18  O   UNL     1       5.247  -5.790  23.111  0.00  0.00    -0.386 OA
ATOM     19  H   UNL     1       5.502  -6.666  22.749  0.00  0.00    +0.210 HD
ENDBRANCH   2  18
BRANCH   3  20
ATOM     20  O   UNL     1       5.693  -4.047  21.263  0.00  0.00    -0.385 OA
ATOM     21  H   UNL     1       4.874  -4.238  21.768  0.00  0.00    +0.210 HD
ENDBRANCH   3  20
BRANCH   1  22
ATOM     22  C   UNL     1       7.091  -5.078  25.781  0.00  0.00    +0.103 C 
BRANCH  22  23
ATOM     23  S   UNL     1       8.615  -4.246  26.360  0.00  0.00    -0.161 S 
ATOM     24  C   UNL     1       9.818  -5.162  25.369  0.00  0.00    +0.084 C 
ENDBRANCH  22  23
ENDBRANCH   1  22
TORSDOF 6
ENDMDL
MODEL 2
REMARK VINA RESULT:      -6.0      2.233      3.094
REMARK  Name = 
REMARK  7 active torsions:
REMARK  status: ('A' for Active; 'I' for Inactive)
REMARK    1  A    between atoms: C_2  and  C_3
REMARK    2  A    between atoms: C_3  and  S_4
REMARK    3  A    between atoms: S_4  and  C_5
REMARK    4  A    between atoms: C_7  and  N_9
REMARK    5  A    between atoms: C_13  and  N_14
REMARK    6  A    between atoms: C_19  and  O_21
REMARK    7  A    between atoms: C_22  and  O_24
REMARK                            x       y       z     vdW  Elec       q    Type
REMARK                         _______ _______ _______ _____ _____    ______ ____
ROOT
ATOM      1  C   UNL     1       7.528  -5.057  23.814  0.00  0.00    +0.162 C 
ATOM      2  C   UNL     1       7.067  -4.346  25.085  0.00  0.00    +0.177 C 
ATOM      3  C   UNL     1       7.855  -3.032  25.111  0.00  0.00    +0.195 C 
ATOM      4  C   UNL     1       8.725  -3.091  23.849  0.00  0.00    +0.252 C 
ATOM      5  O   UNL     1       8.060  -4.023  22.975  0.00  0.00    -0.347 OA
ENDROOT
BRANCH   4   6
ATOM      6  N   UNL     1       8.939  -1.853  23.113  0.00  0.00    -0.303 N 
ATOM      7  C   UNL     1       9.531  -0.702  23.580  0.00  0.00    +0.148 A 
ATOM      8  C   UNL     1       9.647   0.180  22.510  0.00  0.00    +0.058 A 
ATOM      9  C   UNL     1      10.232   1.428  22.772  0.00  0.00    +0.129 A 
ATOM     10  N   UNL     1      10.613   1.715  24.030  0.00  0.00    -0.220 NA
ATOM     11  C   UNL     1      10.443   0.774  24.975  0.00  0.00    +0.225 A 
ATOM     12  C   UNL     1       9.112  -0.470  21.368  0.00  0.00    +0.033 A 
ATOM     13  N   UNL     1       9.933  -0.469  24.844  0.00  0.00    -0.218 NA
ATOM     14  C   UNL     1       8.687  -1.715  21.762  0.00  0.00    +0.091 A 
BRANCH   9  15
ATOM     15  N   UNL     1      10.447   2.389  21.797  0.00  0.00    -0.343 N 
ATOM     16  H   UNL     1      11.433   2.585  21.674  0.00  0.00    +0.144 HD
ATOM     17  H   UNL     1       9.820   3.182  21.815  0.00  0.00    +0.144 HD
ENDBRANCH   9  15
ENDBRANCH   4   6
BRANCH   2  18
ATOM     18  O   UNL     1       7.303  -5.153  26.237  0.00  0.00    -0.386 OA
ATOM     19  H   UNL     1       6.759  -4.756  26.951  0.00  0.00    +0.210 HD
ENDBRANCH   2  18
BRANCH   3  20
ATOM     20  O   UNL     1       8.625  -2.940  26.318  0.00  0.00    -0.385 OA
ATOM     21  H   UNL     1       9.561  -3.009  26.035  0.00  0.00    +0.210 HD
ENDBRANCH   3  20
BRANCH   1  22
ATOM     22  C   UNL     1       6.380  -5.785  23.108  0.00  0.00    +0.103 C 
BRANCH  22  23
ATOM     23  S   UNL     1       4.764  -5.343  23.843  0.00  0.00    -0.161 S 
ATOM     24  C   UNL     1       4.362  -6.936  24.598  0.00  0.00    +0.084 C 
ENDBRANCH  22  23
ENDBRANCH   1  22
TORSDOF 6
ENDMDL
MODEL 3
REMARK VINA RESULT:      -6.0      3.276      5.958
REMARK  Name = 
REMARK  7 active torsions:
REMARK  status: ('A' for Active; 'I' for Inactive)
REMARK    1  A    between atoms: C_2  and  C_3
REMARK    2  A    between atoms: C_3  and  S_4
REMARK    3  A    between atoms: S_4  and  C_5
REMARK    4  A    between atoms: C_7  and  N_9
REMARK    5  A    between atoms: C_13  and  N_14
REMARK    6  A    between atoms: C_19  and  O_21
REMARK    7  A    between atoms: C_22  and  O_24
REMARK                            x       y       z     vdW  Elec       q    Type
REMARK                         _______ _______ _______ _____ _____    ______ ____
ROOT
ATOM      1  C   UNL     1       6.943   1.106  22.566  0.00  0.00    +0.162 C 
ATOM      2  C   UNL     1       6.282   1.276  23.933  0.00  0.00    +0.177 C 
ATOM      3  C   UNL     1       6.348  -0.111  24.580  0.00  0.00    +0.195 C 
ATOM      4  C   UNL     1       7.038  -0.985  23.525  0.00  0.00    +0.252 C 
ATOM      5  O   UNL     1       7.763  -0.064  22.687  0.00  0.00    -0.347 OA
ENDROOT
BRANCH   4   6
ATOM      6  N   UNL     1       7.969  -2.004  23.989  0.00  0.00    -0.303 N 
ATOM      7  C   UNL     1       7.659  -3.175  24.642  0.00  0.00    +0.148 A 
ATOM      8  C   UNL     1       8.834  -3.908  24.781  0.00  0.00    +0.058 A 
ATOM      9  C   UNL     1       8.738  -5.150  25.426  0.00  0.00    +0.129 A 
ATOM     10  N   UNL     1       7.543  -5.547  25.899  0.00  0.00    -0.220 NA
ATOM     11  C   UNL     1       6.484  -4.742  25.701  0.00  0.00    +0.225 A 
ATOM     12  C   UNL     1       9.876  -3.151  24.185  0.00  0.00    +0.033 A 
ATOM     13  N   UNL     1       6.437  -3.552  25.066  0.00  0.00    -0.218 NA
ATOM     14  C   UNL     1       9.320  -1.991  23.706  0.00  0.00    +0.091 A 
BRANCH   9  15
ATOM     15  N   UNL     1       9.817  -6.004  25.599  0.00  0.00    -0.343 N 
ATOM     16  H   UNL     1       9.657  -6.904  25.163  0.00  0.00    +0.144 HD
ATOM     17  H   UNL     1      10.230  -6.008  26.522  0.00  0.00    +0.144 HD
ENDBRANCH   9  15
ENDBRANCH   4   6
BRANCH   2  18
ATOM     18  O   UNL     1       4.947   1.758  23.799  0.00  0.00    -0.386 OA
ATOM     19  H   UNL     1       4.723   1.651  22.849  0.00  0.00    +0.210 HD
ENDBRANCH   2  18
BRANCH   3  20
ATOM     20  O   UNL     1       5.029  -0.568  24.909  0.00  0.00    -0.385 OA
ATOM     21  H   UNL     1       4.556  -0.638  24.053  0.00  0.00    +0.210 HD
ENDBRANCH   3  20
BRANCH   1  22
ATOM     22  C   UNL     1       7.792   2.320  22.179  0.00  0.00    +0.103 C 
BRANCH  22  23
ATOM     23  S   UNL     1       9.575   1.904  22.160  0.00  0.00    -0.161 S 
ATOM     24  C   UNL     1      10.009   2.492  23.813  0.00  0.00    +0.084 C 
ENDBRANCH  22  23
ENDBRANCH   1  22
TORSDOF 6
ENDMDL
MODEL 4
REMARK VINA RESULT:      -5.9      2.240      2.993
REMARK  Name = 
REMARK  7 active torsions:
REMARK  status: ('A' for Active; 'I' for Inactive)
REMARK    1  A    between atoms: C_2  and  C_3
REMARK    2  A    between atoms: C_3  and  S_4
REMARK    3  A    between atoms: S_4  and  C_5
REMARK    4  A    between atoms: C_7  and  N_9
REMARK    5  A    between atoms: C_13  and  N_14
REMARK    6  A    between atoms: C_19  and  O_21
REMARK    7  A    between atoms: C_22  and  O_24
REMARK                            x       y       z     vdW  Elec       q    Type
REMARK                         _______ _______ _______ _____ _____    ______ ____
ROOT
ATOM      1  C   UNL     1       7.034  -4.151  25.855  0.00  0.00    +0.162 C 
ATOM      2  C   UNL     1       8.474  -4.350  26.324  0.00  0.00    +0.177 C 
ATOM      3  C   UNL     1       9.341  -3.853  25.163  0.00  0.00    +0.195 C 
ATOM      4  C   UNL     1       8.327  -3.412  24.100  0.00  0.00    +0.252 C 
ATOM      5  O   UNL     1       7.107  -3.159  24.823  0.00  0.00    -0.347 OA
ENDROOT
BRANCH   4   6
ATOM      6  N   UNL     1       8.640  -2.229  23.311  0.00  0.00    -0.303 N 
ATOM      7  C   UNL     1       9.132  -1.030  23.774  0.00  0.00    +0.148 A 
ATOM      8  C   UNL     1       9.407  -0.229  22.669  0.00  0.00    +0.058 A 
ATOM      9  C   UNL     1       9.923   1.051  22.922  0.00  0.00    +0.129 A 
ATOM     10  N   UNL     1      10.092   1.444  24.197  0.00  0.00    -0.220 NA
ATOM     11  C   UNL     1       9.784   0.573  25.175  0.00  0.00    +0.225 A 
ATOM     12  C   UNL     1       9.074  -0.978  21.511  0.00  0.00    +0.033 A 
ATOM     13  N   UNL     1       9.321  -0.690  25.063  0.00  0.00    -0.218 NA
ATOM     14  C   UNL     1       8.609  -2.201  21.931  0.00  0.00    +0.091 A 
BRANCH   9  15
ATOM     15  N   UNL     1      10.280   1.940  21.920  0.00  0.00    -0.343 N 
ATOM     16  H   UNL     1       9.640   1.900  21.137  0.00  0.00    +0.144 HD
ATOM     17  H   UNL     1      11.267   1.985  21.704  0.00  0.00    +0.144 HD
ENDBRANCH   9  15
ENDBRANCH   4   6
BRANCH   2  18
ATOM     18  O   UNL     1       8.722  -5.715  26.652  0.00  0.00    -0.386 OA
ATOM     19  H   UNL     1       9.271  -6.066  25.917  0.00  0.00    +0.210 HD
ENDBRANCH   2  18
BRANCH   3  20
ATOM     20  O   UNL     1      10.209  -4.900  24.708  0.00  0.00    -0.385 OA
ATOM     21  H   UNL     1       9.938  -5.699  25.210  0.00  0.00    +0.210 HD
ENDBRANCH   3  20
BRANCH   1  22
ATOM     22  C   UNL     1       6.115  -3.683  26.988  0.00  0.00    +0.103 C 
BRANCH  22  23
ATOM     23  S   UNL     1       4.928  -4.992  27.462  0.00  0.00    -0.161 S 
ATOM     24  C   UNL     1       5.235  -6.144  26.104  0.00  0.00    +0.084 C 
ENDBRANCH  22  23
ENDBRANCH   1  22
TORSDOF 6
ENDMDL
MODEL 5
REMARK VINA RESULT:      -5.9      2.415      3.552
REMARK  Name = 
REMARK  7 active torsions:
REMARK  status: ('A' for Active; 'I' for Inactive)
REMARK    1  A    between atoms: C_2  and  C_3
REMARK    2  A    between atoms: C_3  and  S_4
REMARK    3  A    between atoms: S_4  and  C_5
REMARK    4  A    between atoms: C_7  and  N_9
REMARK    5  A    between atoms: C_13  and  N_14
REMARK    6  A    between atoms: C_19  and  O_21
REMARK    7  A    between atoms: C_22  and  O_24
REMARK                            x       y       z     vdW  Elec       q    Type
REMARK                         _______ _______ _______ _____ _____    ______ ____
ROOT
ATOM      1  C   UNL     1       6.721  -4.684  25.198  0.00  0.00    +0.162 C 
ATOM      2  C   UNL     1       7.339  -4.767  26.593  0.00  0.00    +0.177 C 
ATOM      3  C   UNL     1       8.574  -3.863  26.534  0.00  0.00    +0.195 C 
ATOM      4  C   UNL     1       8.581  -3.331  25.095  0.00  0.00    +0.252 C 
ATOM      5  O   UNL     1       7.221  -3.463  24.637  0.00  0.00    -0.347 OA
ENDROOT
BRANCH   4   6
ATOM      6  N   UNL     1       8.998  -1.952  24.882  0.00  0.00    -0.303 N 
ATOM      7  C   UNL     1       9.235  -1.334  23.675  0.00  0.00    +0.148 A 
ATOM      8  C   UNL     1       9.483   0.012  23.929  0.00  0.00    +0.058 A 
ATOM      9  C   UNL     1       9.750   0.831  22.822  0.00  0.00    +0.129 A 
ATOM     10  N   UNL     1       9.785   0.276  21.597  0.00  0.00    -0.220 NA
ATOM     11  C   UNL     1       9.530  -1.040  21.488  0.00  0.00    +0.225 A 
ATOM     12  C   UNL     1       9.385   0.202  25.332  0.00  0.00    +0.033 A 
ATOM     13  N   UNL     1       9.223  -1.921  22.463  0.00  0.00    -0.218 NA
ATOM     14  C   UNL     1       9.085  -1.015  25.893  0.00  0.00    +0.091 A 
BRANCH   9  15
ATOM     15  N   UNL     1       9.976   2.195  22.919  0.00  0.00    -0.343 N 
ATOM     16  H   UNL     1       9.416   2.717  22.257  0.00  0.00    +0.144 HD
ATOM     17  H   UNL     1      10.942   2.474  23.023  0.00  0.00    +0.144 HD
ENDBRANCH   9  15
ENDBRANCH   4   6
BRANCH   2  18
ATOM     18  O   UNL     1       7.659  -6.115  26.931  0.00  0.00    -0.386 OA
ATOM     19  H   UNL     1       7.903  -6.548  26.083  0.00  0.00    +0.210 HD
ENDBRANCH   2  18
BRANCH   3  20
ATOM     20  O   UNL     1       9.753  -4.612  26.859  0.00  0.00    -0.385 OA
ATOM     21  H   UNL     1      10.460  -3.944  26.987  0.00  0.00    +0.210 HD
ENDBRANCH   3  20
BRANCH   1  22
ATOM     22  C   UNL     1       5.190  -4.668  25.243  0.00  0.00    +0.103 C 
BRANCH  22  23
ATOM     23  S   UNL     1       4.484  -4.233  23.612  0.00  0.00    -0.161 S 
ATOM     24  C   UNL     1       4.975  -5.713  22.698  0.00  0.00    +0.084 C 
ENDBRANCH  22  23
ENDBRANCH   1  22
TORSDOF 6
ENDMDL
MODEL 6
REMARK VINA RESULT:      -5.8      2.125      2.899
REMARK  Name = 
REMARK  7 active torsions:
REMARK  status: ('A' for Active; 'I' for Inactive)
REMARK    1  A    between atoms: C_2  and  C_3
REMARK    2  A    between atoms: C_3  and  S_4
REMARK    3  A    between atoms: S_4  and  C_5
REMARK    4  A    between atoms: C_7  and  N_9
REMARK    5  A    between atoms: C_13  and  N_14
REMARK    6  A    between atoms: C_19  and  O_21
REMARK    7  A    between atoms: C_22  and  O_24
REMARK                            x       y       z     vdW  Elec       q    Type
REMARK                         _______ _______ _______ _____ _____    ______ ____
ROOT
ATOM      1  C   UNL     1       7.164  -3.791  22.913  0.00  0.00    +0.162 C 
ATOM      2  C   UNL     1       8.111  -3.747  24.111  0.00  0.00    +0.177 C 
ATOM      3  C   UNL     1       9.076  -2.596  23.810  0.00  0.00    +0.195 C 
ATOM      4  C   UNL     1       8.613  -2.066  22.447  0.00  0.00    +0.252 C 
ATOM      5  O   UNL     1       7.242  -2.488  22.323  0.00  0.00    -0.347 OA
ENDROOT
BRANCH   4   6
ATOM      6  N   UNL     1       8.667  -0.628  22.223  0.00  0.00    -0.303 N 
ATOM      7  C   UNL     1       7.868   0.332  22.801  0.00  0.00    +0.148 A 
ATOM      8  C   UNL     1       8.348   1.578  22.406  0.00  0.00    +0.058 A 
ATOM      9  C   UNL     1       7.668   2.706  22.890  0.00  0.00    +0.129 A 
ATOM     10  N   UNL     1       6.586   2.528  23.669  0.00  0.00    -0.220 NA
ATOM     11  C   UNL     1       6.224   1.269  23.975  0.00  0.00    +0.225 A 
ATOM     12  C   UNL     1       9.473   1.352  21.572  0.00  0.00    +0.033 A 
ATOM     13  N   UNL     1       6.813   0.111  23.608  0.00  0.00    -0.218 NA
ATOM     14  C   UNL     1       9.650  -0.007  21.478  0.00  0.00    +0.091 A 
BRANCH   9  15
ATOM     15  N   UNL     1       8.057   4.007  22.613  0.00  0.00    -0.343 N 
ATOM     16  H   UNL     1       7.260   4.610  22.449  0.00  0.00    +0.144 HD
ATOM     17  H   UNL     1       8.845   4.106  21.987  0.00  0.00    +0.144 HD
ENDBRANCH   9  15
ENDBRANCH   4   6
BRANCH   2  18
ATOM     18  O   UNL     1       8.780  -4.995  24.280  0.00  0.00    -0.386 OA
ATOM     19  H   UNL     1       9.242  -4.931  25.144  0.00  0.00    +0.210 HD
ENDBRANCH   2  18
BRANCH   3  20
ATOM     20  O   UNL     1      10.428  -3.072  23.796  0.00  0.00    -0.385 OA
ATOM     21  H   UNL     1      10.602  -3.336  22.868  0.00  0.00    +0.210 HD
ENDBRANCH   3  20
BRANCH   1  22
ATOM     22  C   UNL     1       5.723  -4.109  23.326  0.00  0.00    +0.103 C 
BRANCH  22  23
ATOM     23  S   UNL     1       5.141  -5.665  22.558  0.00  0.00    -0.161 S 
ATOM     24  C   UNL     1       6.559  -5.985  21.484  0.00  0.00    +0.084 C 
ENDBRANCH  22  23
ENDBRANCH   1  22
TORSDOF 6
ENDMDL
MODEL 7
REMARK VINA RESULT:      -5.8      3.434      6.421
REMARK  Name = 
REMARK  7 active torsions:
REMARK  status: ('A' for Active; 'I' for Inactive)
REMARK    1  A    between atoms: C_2  and  C_3
REMARK    2  A    between atoms: C_3  and  S_4
REMARK    3  A    between atoms: S_4  and  C_5
REMARK    4  A    between atoms: C_7  and  N_9
REMARK    5  A    between atoms: C_13  and  N_14
REMARK    6  A    between atoms: C_19  and  O_21
REMARK    7  A    between atoms: C_22  and  O_24
REMARK                            x       y       z     vdW  Elec       q    Type
REMARK                         _______ _______ _______ _____ _____    ______ ____
ROOT
ATOM      1  C   UNL     1       9.842  -1.300  23.936  0.00  0.00    +0.162 C 
ATOM      2  C   UNL     1       8.615  -1.016  23.070  0.00  0.00    +0.177 C 
ATOM      3  C   UNL     1       7.726  -2.255  23.226  0.00  0.00    +0.195 C 
ATOM      4  C   UNL     1       8.519  -3.169  24.167  0.00  0.00    +0.252 C 
ATOM      5  O   UNL     1       9.417  -2.295  24.876  0.00  0.00    -0.347 OA
ENDROOT
BRANCH   4   6
ATOM      6  N   UNL     1       7.774  -3.946  25.149  0.00  0.00    -0.303 N 
ATOM      7  C   UNL     1       6.762  -4.845  24.900  0.00  0.00    +0.148 A 
ATOM      8  C   UNL     1       6.426  -5.450  26.108  0.00  0.00    +0.058 A 
ATOM      9  C   UNL     1       5.405  -6.412  26.076  0.00  0.00    +0.129 A 
ATOM     10  N   UNL     1       4.791  -6.670  24.908  0.00  0.00    -0.220 NA
ATOM     11  C   UNL     1       5.211  -6.013  23.812  0.00  0.00    +0.225 A 
ATOM     12  C   UNL     1       7.269  -4.897  27.106  0.00  0.00    +0.033 A 
ATOM     13  N   UNL     1       6.200  -5.102  23.704  0.00  0.00    -0.218 NA
ATOM     14  C   UNL     1       8.087  -3.980  26.493  0.00  0.00    +0.091 A 
BRANCH   9  15
ATOM     15  N   UNL     1       4.993  -7.123  27.193  0.00  0.00    -0.343 N 
ATOM     16  H   UNL     1       5.667  -7.832  27.456  0.00  0.00    +0.144 HD
ATOM     17  H   UNL     1       4.018  -7.388  27.210  0.00  0.00    +0.144 HD
ENDBRANCH   9  15
ENDBRANCH   4   6
BRANCH   2  18
ATOM     18  O   UNL     1       8.988  -0.773  21.716  0.00  0.00    -0.386 OA
ATOM     19  H   UNL     1       8.314  -1.234  21.171  0.00  0.00    +0.210 HD
ENDBRANCH   2  18
BRANCH   3  20
ATOM     20  O   UNL     1       7.477  -2.850  21.945  0.00  0.00    -0.385 OA
ATOM     21  H   UNL     1       6.620  -3.317  22.037  0.00  0.00    +0.210 HD
ENDBRANCH   3  20
BRANCH   1  22
ATOM     22  C   UNL     1      10.338  -0.047  24.664  0.00  0.00    +0.103 C 
BRANCH  22  23
ATOM     23  S   UNL     1       9.140   1.327  24.512  0.00  0.00    -0.161 S 
ATOM     24  C   UNL     1      10.127   2.435  23.478  0.00  0.00    +0.084 C 
ENDBRANCH  22  23
ENDBRANCH   1  22
TORSDOF 6
ENDMDL
MODEL 8
REMARK VINA RESULT:      -5.8      2.185      3.202
REMARK  Name = 
REMARK  7 active torsions:
REMARK  status: ('A' for Active; 'I' for Inactive)
REMARK    1  A    between atoms: C_2  and  C_3
REMARK    2  A    between atoms: C_3  and  S_4
REMARK    3  A    between atoms: S_4  and  C_5
REMARK    4  A    between atoms: C_7  and  N_9
REMARK    5  A    between atoms: C_13  and  N_14
REMARK    6  A    between atoms: C_19  and  O_21
REMARK    7  A    between atoms: C_22  and  O_24
REMARK                            x       y       z     vdW  Elec       q    Type
REMARK                         _______ _______ _______ _____ _____    ______ ____
ROOT
ATOM      1  C   UNL     1       7.127  -4.378  22.631  0.00  0.00    +0.162 C 
ATOM      2  C   UNL     1       7.895  -4.588  23.935  0.00  0.00    +0.177 C 
ATOM      3  C   UNL     1       8.659  -3.279  24.159  0.00  0.00    +0.195 C 
ATOM      4  C   UNL     1       8.279  -2.412  22.952  0.00  0.00    +0.252 C 
ATOM      5  O   UNL     1       7.035  -2.957  22.472  0.00  0.00    -0.347 OA
ENDROOT
BRANCH   4   6
ATOM      6  N   UNL     1       8.093  -0.984  23.173  0.00  0.00    -0.303 N 
ATOM      7  C   UNL     1       9.053  -0.071  23.544  0.00  0.00    +0.148 A 
ATOM      8  C   UNL     1       8.471   1.194  23.512  0.00  0.00    +0.058 A 
ATOM      9  C   UNL     1       9.287   2.280  23.860  0.00  0.00    +0.129 A 
ATOM     10  N   UNL     1      10.558   2.045  24.234  0.00  0.00    -0.220 NA
ATOM     11  C   UNL     1      10.997   0.774  24.225  0.00  0.00    +0.225 A 
ATOM     12  C   UNL     1       7.123   1.027  23.101  0.00  0.00    +0.033 A 
ATOM     13  N   UNL     1      10.329  -0.345  23.875  0.00  0.00    -0.218 NA
ATOM     14  C   UNL     1       6.917  -0.315  22.897  0.00  0.00    +0.091 A 
BRANCH   9  15
ATOM     15  N   UNL     1       8.854   3.597  23.834  0.00  0.00    -0.343 N 
ATOM     16  H   UNL     1       8.572   3.917  24.752  0.00  0.00    +0.144 HD
ATOM     17  H   UNL     1       8.259   3.848  23.057  0.00  0.00    +0.144 HD
ENDBRANCH   9  15
ENDBRANCH   4   6
BRANCH   2  18
ATOM     18  O   UNL     1       8.757  -5.720  23.845  0.00  0.00    -0.386 OA
ATOM     19  H   UNL     1       9.578  -5.464  24.319  0.00  0.00    +0.210 HD
ENDBRANCH   2  18
BRANCH   3  20
ATOM     20  O   UNL     1      10.068  -3.535  24.242  0.00  0.00    -0.385 OA
ATOM     21  H   UNL     1      10.340  -3.212  25.127  0.00  0.00    +0.210 HD
ENDBRANCH   3  20
BRANCH   1  22
ATOM     22  C   UNL     1       5.730  -5.006  22.675  0.00  0.00    +0.103 C 
BRANCH  22  23
ATOM     23  S   UNL     1       5.120  -5.148  24.395  0.00  0.00    -0.161 S 
ATOM     24  C   UNL     1       4.560  -6.866  24.344  0.00  0.00    +0.084 C 
ENDBRANCH  22  23
ENDBRANCH   1  22
TORSDOF 6
ENDMDL
MODEL 9
REMARK VINA RESULT:      -5.8      2.196      3.288
REMARK  Name = 
REMARK  7 active torsions:
REMARK  status: ('A' for Active; 'I' for Inactive)
REMARK    1  A    between atoms: C_2  and  C_3
REMARK    2  A    between atoms: C_3  and  S_4
REMARK    3  A    between atoms: S_4  and  C_5
REMARK    4  A    between atoms: C_7  and  N_9
REMARK    5  A    between atoms: C_13  and  N_14
REMARK    6  A    between atoms: C_19  and  O_21
REMARK    7  A    between atoms: C_22  and  O_24
REMARK                            x       y       z     vdW  Elec       q    Type
REMARK                         _______ _______ _______ _____ _____    ______ ____
ROOT
ATOM      1  C   UNL     1       6.608  -4.600  26.274  0.00  0.00    +0.162 C 
ATOM      2  C   UNL     1       8.117  -4.596  26.511  0.00  0.00    +0.177 C 
ATOM      3  C   UNL     1       8.689  -3.703  25.405  0.00  0.00    +0.195 C 
ATOM      4  C   UNL     1       7.457  -3.266  24.602  0.00  0.00    +0.252 C 
ATOM      5  O   UNL     1       6.344  -3.421  25.503  0.00  0.00    -0.347 OA
ENDROOT
BRANCH   4   6
ATOM      6  N   UNL     1       7.432  -1.906  24.082  0.00  0.00    -0.303 N 
ATOM      7  C   UNL     1       8.324  -1.339  23.200  0.00  0.00    +0.148 A 
ATOM      8  C   UNL     1       7.851  -0.071  22.873  0.00  0.00    +0.058 A 
ATOM      9  C   UNL     1       8.620   0.685  21.977  0.00  0.00    +0.129 A 
ATOM     10  N   UNL     1       9.773   0.169  21.513  0.00  0.00    -0.220 NA
ATOM     11  C   UNL     1      10.119  -1.069  21.911  0.00  0.00    +0.225 A 
ATOM     12  C   UNL     1       6.634   0.119  23.578  0.00  0.00    +0.033 A 
ATOM     13  N   UNL     1       9.452  -1.907  22.731  0.00  0.00    -0.218 NA
ATOM     14  C   UNL     1       6.398  -1.020  24.309  0.00  0.00    +0.091 A 
BRANCH   9  15
ATOM     15  N   UNL     1       8.252   1.945  21.531  0.00  0.00    -0.343 N 
ATOM     16  H   UNL     1       8.818   2.247  20.748  0.00  0.00    +0.144 HD
ATOM     17  H   UNL     1       8.064   2.628  22.253  0.00  0.00    +0.144 HD
ENDBRANCH   9  15
ENDBRANCH   4   6
BRANCH   2  18
ATOM     18  O   UNL     1       8.644  -5.920  26.477  0.00  0.00    -0.386 OA
ATOM     19  H   UNL     1       9.439  -5.902  27.054  0.00  0.00    +0.210 HD
ENDBRANCH   2  18
BRANCH   3  20
ATOM     20  O   UNL     1       9.638  -4.435  24.618  0.00  0.00    -0.385 OA
ATOM     21  H   UNL     1       9.112  -4.875  23.916  0.00  0.00    +0.210 HD
ENDBRANCH   3  20
BRANCH   1  22
ATOM     22  C   UNL     1       5.816  -4.574  27.585  0.00  0.00    +0.103 C 
BRANCH  22  23
ATOM     23  S   UNL     1       4.841  -6.107  27.802  0.00  0.00    -0.161 S 
ATOM     24  C   UNL     1       4.841  -6.675  26.086  0.00  0.00    +0.084 C 
ENDBRANCH  22  23
ENDBRANCH   1  22
TORSDOF 6
ENDMDL
