MODEL 1
REMARK VINA RESULT:      -4.4      0.000      0.000
REMARK  Name = 
REMARK  16 active torsions:
REMARK  status: ('A' for Active; 'I' for Inactive)
REMARK    1  A    between atoms: C_1  and  O_2
REMARK    2  A    between atoms: O_2  and  C_3
REMARK    3  A    between atoms: C_3  and  C_4
REMARK    4  A    between atoms: C_4  and  O_5
REMARK    5  A    between atoms: O_5  and  C_6
REMARK    6  A    between atoms: C_6  and  C_7
REMARK    7  A    between atoms: C_7  and  O_8
REMARK    8  A    between atoms: O_8  and  C_9
REMARK    9  A    between atoms: C_9  and  C_10
REMARK   10  A    between atoms: C_10  and  O_11
REMARK   11  A    between atoms: O_11  and  C_12
REMARK   12  A    between atoms: C_12  and  C_13
REMARK   13  A    between atoms: C_13  and  O_14
REMARK   14  A    between atoms: O_14  and  C_15
REMARK   15  A    between atoms: C_15  and  C_16
REMARK   16  A    between atoms: C_16  and  O_17
REMARK                            x       y       z     vdW  Elec       q    Type
REMARK                         _______ _______ _______ _____ _____    ______ ____
ROOT
ATOM      1  C   UNL     1       8.759  -0.235  22.579  0.00  0.00    +0.188 C 
ENDROOT
BRANCH   1   2
ATOM      2  O   UNL     1       7.336  -0.232  22.676  0.00  0.00    -0.375 OA
BRANCH   2   3
ATOM      3  C   UNL     1       6.856  -1.393  23.353  0.00  0.00    +0.188 C 
BRANCH   3   4
ATOM      4  C   UNL     1       7.877  -2.516  23.213  0.00  0.00    +0.188 C 
BRANCH   4   5
ATOM      5  O   UNL     1       7.435  -3.435  22.214  0.00  0.00    -0.375 OA
BRANCH   5   6
ATOM      6  C   UNL     1       7.456  -4.777  22.699  0.00  0.00    +0.188 C 
BRANCH   6   7
ATOM      7  C   UNL     1       7.873  -4.775  24.165  0.00  0.00    +0.187 C 
BRANCH   7   9
ATOM      8  C   UNL     1       9.770  -5.133  25.512  0.00  0.00    +0.194 C 
ATOM      9  O   UNL     1       9.099  -5.491  24.310  0.00  0.00    -0.381 OA
ENDBRANCH   7   9
ENDBRANCH   6   7
ENDBRANCH   5   6
ENDBRANCH   4   5
ENDBRANCH   3   4
ENDBRANCH   2   3
ENDBRANCH   1   2
BRANCH   1  10
ATOM     10  C   UNL     1       9.194   0.785  21.532  0.00  0.00    +0.188 C 
BRANCH  10  11
ATOM     11  O   UNL     1      10.168   1.661  22.099  0.00  0.00    -0.375 OA
BRANCH  11  12
ATOM     12  C   UNL     1       9.732   2.186  23.353  0.00  0.00    +0.188 C 
BRANCH  12  13
ATOM     13  C   UNL     1      10.142   3.650  23.449  0.00  0.00    +0.188 C 
BRANCH  13  14
ATOM     14  O   UNL     1      11.561   3.766  23.320  0.00  0.00    -0.375 OA
BRANCH  14  15
ATOM     15  C   UNL     1      11.995   5.105  23.596  0.00  0.00    +0.187 C 
BRANCH  15  16
ATOM     16  C   UNL     1      13.105   5.466  22.616  0.00  0.00    +0.184 C 
BRANCH  16  17
ATOM     17  O   UNL     1      14.370   5.068  23.142  0.00  0.00    -0.393 OA
ATOM     18  H   UNL     1      14.849   5.902  23.315  0.00  0.00    +0.209 HD
ENDBRANCH  16  17
ENDBRANCH  15  16
ENDBRANCH  14  15
ENDBRANCH  13  14
ENDBRANCH  12  13
ENDBRANCH  11  12
ENDBRANCH  10  11
ENDBRANCH   1  10
TORSDOF 15
ENDMDL
MODEL 2
REMARK VINA RESULT:      -4.3      2.686      3.901
REMARK  Name = 
REMARK  16 active torsions:
REMARK  status: ('A' for Active; 'I' for Inactive)
REMARK    1  A    between atoms: C_1  and  O_2
REMARK    2  A    between atoms: O_2  and  C_3
REMARK    3  A    between atoms: C_3  and  C_4
REMARK    4  A    between atoms: C_4  and  O_5
REMARK    5  A    between atoms: O_5  and  C_6
REMARK    6  A    between atoms: C_6  and  C_7
REMARK    7  A    between atoms: C_7  and  O_8
REMARK    8  A    between atoms: O_8  and  C_9
REMARK    9  A    between atoms: C_9  and  C_10
REMARK   10  A    between atoms: C_10  and  O_11
REMARK   11  A    between atoms: O_11  and  C_12
REMARK   12  A    between atoms: C_12  and  C_13
REMARK   13  A    between atoms: C_13  and  O_14
REMARK   14  A    between atoms: O_14  and  C_15
REMARK   15  A    between atoms: C_15  and  C_16
REMARK   16  A    between atoms: C_16  and  O_17
REMARK                            x       y       z     vdW  Elec       q    Type
REMARK                         _______ _______ _______ _____ _____    ______ ____
ROOT
ATOM      1  C   UNL     1       9.689  -2.113  24.065  0.00  0.00    +0.188 C 
ENDROOT
BRANCH   1   2
ATOM      2  O   UNL     1      10.016  -3.499  24.135  0.00  0.00    -0.375 OA
BRANCH   2   3
ATOM      3  C   UNL     1       9.417  -4.121  25.271  0.00  0.00    +0.188 C 
BRANCH   3   4
ATOM      4  C   UNL     1       8.748  -5.421  24.840  0.00  0.00    +0.188 C 
BRANCH   4   5
ATOM      5  O   UNL     1       8.293  -5.296  23.494  0.00  0.00    -0.375 OA
BRANCH   5   6
ATOM      6  C   UNL     1       6.908  -4.955  23.444  0.00  0.00    +0.188 C 
BRANCH   6   7
ATOM      7  C   UNL     1       6.214  -5.828  22.405  0.00  0.00    +0.187 C 
BRANCH   7   9
ATOM      8  C   UNL     1       4.487  -4.435  23.191  0.00  0.00    +0.194 C 
ATOM      9  O   UNL     1       4.902  -5.322  22.160  0.00  0.00    -0.381 OA
ENDBRANCH   7   9
ENDBRANCH   6   7
ENDBRANCH   5   6
ENDBRANCH   4   5
ENDBRANCH   3   4
ENDBRANCH   2   3
ENDBRANCH   1   2
BRANCH   1  10
ATOM     10  C   UNL     1      10.227  -1.534  22.761  0.00  0.00    +0.188 C 
BRANCH  10  11
ATOM     11  O   UNL     1      10.558  -0.158  22.954  0.00  0.00    -0.375 OA
BRANCH  11  12
ATOM     12  C   UNL     1      10.475   0.211  24.330  0.00  0.00    +0.188 C 
BRANCH  12  13
ATOM     13  C   UNL     1       9.713   1.526  24.447  0.00  0.00    +0.188 C 
BRANCH  13  14
ATOM     14  O   UNL     1       9.866   2.283  23.244  0.00  0.00    -0.375 OA
BRANCH  14  15
ATOM     15  C   UNL     1       8.619   2.873  22.847  0.00  0.00    +0.187 C 
BRANCH  15  16
ATOM     16  C   UNL     1       7.945   1.946  21.841  0.00  0.00    +0.184 C 
BRANCH  16  17
ATOM     17  O   UNL     1       8.920   1.385  20.964  0.00  0.00    -0.393 OA
ATOM     18  H   UNL     1       8.460   0.659  20.501  0.00  0.00    +0.209 HD
ENDBRANCH  16  17
ENDBRANCH  15  16
ENDBRANCH  14  15
ENDBRANCH  13  14
ENDBRANCH  12  13
ENDBRANCH  11  12
ENDBRANCH  10  11
ENDBRANCH   1  10
TORSDOF 15
ENDMDL
MODEL 3
REMARK VINA RESULT:      -4.3      5.065      7.461
REMARK  Name = 
REMARK  16 active torsions:
REMARK  status: ('A' for Active; 'I' for Inactive)
REMARK    1  A    between atoms: C_1  and  O_2
REMARK    2  A    between atoms: O_2  and  C_3
REMARK    3  A    between atoms: C_3  and  C_4
REMARK    4  A    between atoms: C_4  and  O_5
REMARK    5  A    between atoms: O_5  and  C_6
REMARK    6  A    between atoms: C_6  and  C_7
REMARK    7  A    between atoms: C_7  and  O_8
REMARK    8  A    between atoms: O_8  and  C_9
REMARK    9  A    between atoms: C_9  and  C_10
REMARK   10  A    between atoms: C_10  and  O_11
REMARK   11  A    between atoms: O_11  and  C_12
REMARK   12  A    between atoms: C_12  and  C_13
REMARK   13  A    between atoms: C_13  and  O_14
REMARK   14  A    between atoms: O_14  and  C_15
REMARK   15  A    between atoms: C_15  and  C_16
REMARK   16  A    between atoms: C_16  and  O_17
REMARK                            x       y       z     vdW  Elec       q    Type
REMARK                         _______ _______ _______ _____ _____    ______ ____
ROOT
ATOM      1  C   UNL     1       9.165  -3.154  24.155  0.00  0.00    +0.188 C 
ENDROOT
BRANCH   1   2
ATOM      2  O   UNL     1       8.825  -4.519  23.923  0.00  0.00    -0.375 OA
BRANCH   2   3
ATOM      3  C   UNL     1       8.116  -5.076  25.029  0.00  0.00    +0.188 C 
BRANCH   3   4
ATOM      4  C   UNL     1       8.845  -4.730  26.322  0.00  0.00    +0.188 C 
BRANCH   4   5
ATOM      5  O   UNL     1       7.891  -4.535  27.365  0.00  0.00    -0.375 OA
BRANCH   5   6
ATOM      6  C   UNL     1       6.657  -5.189  27.068  0.00  0.00    +0.188 C 
BRANCH   6   7
ATOM      7  C   UNL     1       6.201  -5.980  28.289  0.00  0.00    +0.187 C 
BRANCH   7   9
ATOM      8  C   UNL     1       4.582  -6.835  26.810  0.00  0.00    +0.194 C 
ATOM      9  O   UNL     1       5.487  -7.140  27.864  0.00  0.00    -0.381 OA
ENDBRANCH   7   9
ENDBRANCH   6   7
ENDBRANCH   5   6
ENDBRANCH   4   5
ENDBRANCH   3   4
ENDBRANCH   2   3
ENDBRANCH   1   2
BRANCH   1  10
ATOM     10  C   UNL     1       8.759  -2.321  22.945  0.00  0.00    +0.188 C 
BRANCH  10  11
ATOM     11  O   UNL     1       7.554  -2.848  22.389  0.00  0.00    -0.375 OA
BRANCH  11  12
ATOM     12  C   UNL     1       6.404  -2.183  22.911  0.00  0.00    +0.188 C 
BRANCH  12  13
ATOM     13  C   UNL     1       5.301  -3.207  23.148  0.00  0.00    +0.188 C 
BRANCH  13  14
ATOM     14  O   UNL     1       5.301  -4.172  22.093  0.00  0.00    -0.375 OA
BRANCH  14  15
ATOM     15  C   UNL     1       5.254  -5.507  22.618  0.00  0.00    +0.187 C 
BRANCH  15  16
ATOM     16  C   UNL     1       6.337  -6.334  21.933  0.00  0.00    +0.184 C 
BRANCH  16  17
ATOM     17  O   UNL     1       7.424  -5.493  21.550  0.00  0.00    -0.393 OA
ATOM     18  H   UNL     1       7.535  -4.866  22.290  0.00  0.00    +0.209 HD
ENDBRANCH  16  17
ENDBRANCH  15  16
ENDBRANCH  14  15
ENDBRANCH  13  14
ENDBRANCH  12  13
ENDBRANCH  11  12
ENDBRANCH  10  11
ENDBRANCH   1  10
TORSDOF 15
ENDMDL
MODEL 4
REMARK VINA RESULT:      -4.3      3.206      4.801
REMARK  Name = 
REMARK  16 active torsions:
REMARK  status: ('A' for Active; 'I' for Inactive)
REMARK    1  A    between atoms: C_1  and  O_2
REMARK    2  A    between atoms: O_2  and  C_3
REMARK    3  A    between atoms: C_3  and  C_4
REMARK    4  A    between atoms: C_4  and  O_5
REMARK    5  A    between atoms: O_5  and  C_6
REMARK    6  A    between atoms: C_6  and  C_7
REMARK    7  A    between atoms: C_7  and  O_8
REMARK    8  A    between atoms: O_8  and  C_9
REMARK    9  A    between atoms: C_9  and  C_10
REMARK   10  A    between atoms: C_10  and  O_11
REMARK   11  A    between atoms: O_11  and  C_12
REMARK   12  A    between atoms: C_12  and  C_13
REMARK   13  A    between atoms: C_13  and  O_14
REMARK   14  A    between atoms: O_14  and  C_15
REMARK   15  A    between atoms: C_15  and  C_16
REMARK   16  A    between atoms: C_16  and  O_17
REMARK                            x       y       z     vdW  Elec       q    Type
REMARK                         _______ _______ _______ _____ _____    ______ ____
ROOT
ATOM      1  C   UNL     1       7.431  -3.039  23.540  0.00  0.00    +0.188 C 
ENDROOT
BRANCH   1   2
ATOM      2  O   UNL     1       7.425  -3.288  22.135  0.00  0.00    -0.375 OA
BRANCH   2   3
ATOM      3  C   UNL     1       6.269  -4.027  21.740  0.00  0.00    +0.188 C 
BRANCH   3   4
ATOM      4  C   UNL     1       6.676  -5.456  21.403  0.00  0.00    +0.188 C 
BRANCH   4   5
ATOM      5  O   UNL     1       6.239  -6.330  22.443  0.00  0.00    -0.375 OA
BRANCH   5   6
ATOM      6  C   UNL     1       4.983  -5.913  22.978  0.00  0.00    +0.188 C 
BRANCH   6   7
ATOM      7  C   UNL     1       4.865  -6.397  24.418  0.00  0.00    +0.187 C 
BRANCH   7   9
ATOM      8  C   UNL     1       3.088  -7.521  25.476  0.00  0.00    +0.194 C 
ATOM      9  O   UNL     1       4.076  -7.587  24.456  0.00  0.00    -0.381 OA
ENDBRANCH   7   9
ENDBRANCH   6   7
ENDBRANCH   5   6
ENDBRANCH   4   5
ENDBRANCH   3   4
ENDBRANCH   2   3
ENDBRANCH   1   2
BRANCH   1  10
ATOM     10  C   UNL     1       8.737  -3.552  24.135  0.00  0.00    +0.188 C 
BRANCH  10  11
ATOM     11  O   UNL     1       9.631  -2.456  24.330  0.00  0.00    -0.375 OA
BRANCH  11  12
ATOM     12  C   UNL     1       9.069  -1.470  25.195  0.00  0.00    +0.188 C 
BRANCH  12  13
ATOM     13  C   UNL     1       9.361  -0.085  24.628  0.00  0.00    +0.188 C 
BRANCH  13  14
ATOM     14  O   UNL     1      10.409  -0.169  23.660  0.00  0.00    -0.375 OA
BRANCH  14  15
ATOM     15  C   UNL     1      10.077   0.573  22.477  0.00  0.00    +0.187 C 
BRANCH  15  16
ATOM     16  C   UNL     1       9.346  -0.356  21.513  0.00  0.00    +0.184 C 
BRANCH  16  17
ATOM     17  O   UNL     1      10.013  -1.615  21.449  0.00  0.00    -0.393 OA
ATOM     18  H   UNL     1       9.499  -2.207  22.031  0.00  0.00    +0.209 HD
ENDBRANCH  16  17
ENDBRANCH  15  16
ENDBRANCH  14  15
ENDBRANCH  13  14
ENDBRANCH  12  13
ENDBRANCH  11  12
ENDBRANCH  10  11
ENDBRANCH   1  10
TORSDOF 15
ENDMDL
MODEL 5
REMARK VINA RESULT:      -4.2      1.994      2.648
REMARK  Name = 
REMARK  16 active torsions:
REMARK  status: ('A' for Active; 'I' for Inactive)
REMARK    1  A    between atoms: C_1  and  O_2
REMARK    2  A    between atoms: O_2  and  C_3
REMARK    3  A    between atoms: C_3  and  C_4
REMARK    4  A    between atoms: C_4  and  O_5
REMARK    5  A    between atoms: O_5  and  C_6
REMARK    6  A    between atoms: C_6  and  C_7
REMARK    7  A    between atoms: C_7  and  O_8
REMARK    8  A    between atoms: O_8  and  C_9
REMARK    9  A    between atoms: C_9  and  C_10
REMARK   10  A    between atoms: C_10  and  O_11
REMARK   11  A    between atoms: O_11  and  C_12
REMARK   12  A    between atoms: C_12  and  C_13
REMARK   13  A    between atoms: C_13  and  O_14
REMARK   14  A    between atoms: O_14  and  C_15
REMARK   15  A    between atoms: C_15  and  C_16
REMARK   16  A    between atoms: C_16  and  O_17
REMARK                            x       y       z     vdW  Elec       q    Type
REMARK                         _______ _______ _______ _____ _____    ______ ____
ROOT
ATOM      1  C   UNL     1      10.265   0.770  23.447  0.00  0.00    +0.188 C 
ENDROOT
BRANCH   1   2
ATOM      2  O   UNL     1       9.520  -0.077  22.574  0.00  0.00    -0.375 OA
BRANCH   2   3
ATOM      3  C   UNL     1      10.104  -1.376  22.482  0.00  0.00    +0.188 C 
BRANCH   3   4
ATOM      4  C   UNL     1       9.351  -2.333  23.398  0.00  0.00    +0.188 C 
BRANCH   4   5
ATOM      5  O   UNL     1       7.947  -2.137  23.235  0.00  0.00    -0.375 OA
BRANCH   5   6
ATOM      6  C   UNL     1       7.370  -3.162  22.426  0.00  0.00    +0.188 C 
BRANCH   6   7
ATOM      7  C   UNL     1       5.872  -2.913  22.293  0.00  0.00    +0.187 C 
BRANCH   7   9
ATOM      8  C   UNL     1       6.207  -5.033  21.326  0.00  0.00    +0.194 C 
ATOM      9  O   UNL     1       5.246  -4.070  21.741  0.00  0.00    -0.381 OA
ENDBRANCH   7   9
ENDBRANCH   6   7
ENDBRANCH   5   6
ENDBRANCH   4   5
ENDBRANCH   3   4
ENDBRANCH   2   3
ENDBRANCH   1   2
BRANCH   1  10
ATOM     10  C   UNL     1       9.831   2.216  23.237  0.00  0.00    +0.188 C 
BRANCH  10  11
ATOM     11  O   UNL     1       9.184   2.694  24.416  0.00  0.00    -0.375 OA
BRANCH  11  12
ATOM     12  C   UNL     1       9.278   4.114  24.524  0.00  0.00    +0.188 C 
BRANCH  12  13
ATOM     13  C   UNL     1      10.261   4.629  23.480  0.00  0.00    +0.188 C 
BRANCH  13  14
ATOM     14  O   UNL     1      10.743   5.919  23.864  0.00  0.00    -0.375 OA
BRANCH  14  15
ATOM     15  C   UNL     1      12.157   5.888  24.107  0.00  0.00    +0.187 C 
BRANCH  15  16
ATOM     16  C   UNL     1      12.780   4.830  23.203  0.00  0.00    +0.184 C 
BRANCH  16  17
ATOM     17  O   UNL     1      14.187   5.045  23.098  0.00  0.00    -0.393 OA
ATOM     18  H   UNL     1      14.439   4.672  22.231  0.00  0.00    +0.209 HD
ENDBRANCH  16  17
ENDBRANCH  15  16
ENDBRANCH  14  15
ENDBRANCH  13  14
ENDBRANCH  12  13
ENDBRANCH  11  12
ENDBRANCH  10  11
ENDBRANCH   1  10
TORSDOF 15
ENDMDL
MODEL 6
REMARK VINA RESULT:      -4.1      2.803      8.460
REMARK  Name = 
REMARK  16 active torsions:
REMARK  status: ('A' for Active; 'I' for Inactive)
REMARK    1  A    between atoms: C_1  and  O_2
REMARK    2  A    between atoms: O_2  and  C_3
REMARK    3  A    between atoms: C_3  and  C_4
REMARK    4  A    between atoms: C_4  and  O_5
REMARK    5  A    between atoms: O_5  and  C_6
REMARK    6  A    between atoms: C_6  and  C_7
REMARK    7  A    between atoms: C_7  and  O_8
REMARK    8  A    between atoms: O_8  and  C_9
REMARK    9  A    between atoms: C_9  and  C_10
REMARK   10  A    between atoms: C_10  and  O_11
REMARK   11  A    between atoms: O_11  and  C_12
REMARK   12  A    between atoms: C_12  and  C_13
REMARK   13  A    between atoms: C_13  and  O_14
REMARK   14  A    between atoms: O_14  and  C_15
REMARK   15  A    between atoms: C_15  and  C_16
REMARK   16  A    between atoms: C_16  and  O_17
REMARK                            x       y       z     vdW  Elec       q    Type
REMARK                         _______ _______ _______ _____ _____    ______ ____
ROOT
ATOM      1  C   UNL     1       9.420  -1.928  24.285  0.00  0.00    +0.188 C 
ENDROOT
BRANCH   1   2
ATOM      2  O   UNL     1       9.863  -1.925  22.929  0.00  0.00    -0.375 OA
BRANCH   2   3
ATOM      3  C   UNL     1       8.901  -1.320  22.066  0.00  0.00    +0.188 C 
BRANCH   3   4
ATOM      4  C   UNL     1       9.535  -0.127  21.360  0.00  0.00    +0.188 C 
BRANCH   4   5
ATOM      5  O   UNL     1       9.004   1.081  21.904  0.00  0.00    -0.375 OA
BRANCH   5   6
ATOM      6  C   UNL     1      10.045   1.958  22.334  0.00  0.00    +0.188 C 
BRANCH   6   7
ATOM      7  C   UNL     1      10.350   1.691  23.804  0.00  0.00    +0.187 C 
BRANCH   7   9
ATOM      8  C   UNL     1       8.659   2.933  24.871  0.00  0.00    +0.194 C 
ATOM      9  O   UNL     1       9.128   1.632  24.539  0.00  0.00    -0.381 OA
ENDBRANCH   7   9
ENDBRANCH   6   7
ENDBRANCH   5   6
ENDBRANCH   4   5
ENDBRANCH   3   4
ENDBRANCH   2   3
ENDBRANCH   1   2
BRANCH   1  10
ATOM     10  C   UNL     1       8.707  -3.244  24.577  0.00  0.00    +0.188 C 
BRANCH  10  11
ATOM     11  O   UNL     1       9.641  -4.319  24.490  0.00  0.00    -0.375 OA
BRANCH  11  12
ATOM     12  C   UNL     1       9.436  -5.275  25.530  0.00  0.00    +0.188 C 
BRANCH  12  13
ATOM     13  C   UNL     1       7.969  -5.253  25.944  0.00  0.00    +0.188 C 
BRANCH  13  14
ATOM     14  O   UNL     1       7.869  -5.158  27.366  0.00  0.00    -0.375 OA
BRANCH  14  15
ATOM     15  C   UNL     1       6.517  -5.367  27.801  0.00  0.00    +0.187 C 
BRANCH  15  16
ATOM     16  C   UNL     1       5.756  -6.080  26.689  0.00  0.00    +0.184 C 
BRANCH  16  17
ATOM     17  O   UNL     1       5.132  -7.256  27.201  0.00  0.00    -0.393 OA
ATOM     18  H   UNL     1       4.384  -6.934  27.741  0.00  0.00    +0.209 HD
ENDBRANCH  16  17
ENDBRANCH  15  16
ENDBRANCH  14  15
ENDBRANCH  13  14
ENDBRANCH  12  13
ENDBRANCH  11  12
ENDBRANCH  10  11
ENDBRANCH   1  10
TORSDOF 15
ENDMDL
MODEL 7
REMARK VINA RESULT:      -4.1      1.833      3.221
REMARK  Name = 
REMARK  16 active torsions:
REMARK  status: ('A' for Active; 'I' for Inactive)
REMARK    1  A    between atoms: C_1  and  O_2
REMARK    2  A    between atoms: O_2  and  C_3
REMARK    3  A    between atoms: C_3  and  C_4
REMARK    4  A    between atoms: C_4  and  O_5
REMARK    5  A    between atoms: O_5  and  C_6
REMARK    6  A    between atoms: C_6  and  C_7
REMARK    7  A    between atoms: C_7  and  O_8
REMARK    8  A    between atoms: O_8  and  C_9
REMARK    9  A    between atoms: C_9  and  C_10
REMARK   10  A    between atoms: C_10  and  O_11
REMARK   11  A    between atoms: O_11  and  C_12
REMARK   12  A    between atoms: C_12  and  C_13
REMARK   13  A    between atoms: C_13  and  O_14
REMARK   14  A    between atoms: O_14  and  C_15
REMARK   15  A    between atoms: C_15  and  C_16
REMARK   16  A    between atoms: C_16  and  O_17
REMARK                            x       y       z     vdW  Elec       q    Type
REMARK                         _______ _______ _______ _____ _____    ______ ____
ROOT
ATOM      1  C   UNL     1       9.611  -1.924  23.669  0.00  0.00    +0.188 C 
ENDROOT
BRANCH   1   2
ATOM      2  O   UNL     1       9.938  -3.254  24.069  0.00  0.00    -0.375 OA
BRANCH   2   3
ATOM      3  C   UNL     1       9.170  -3.663  25.199  0.00  0.00    +0.188 C 
BRANCH   3   4
ATOM      4  C   UNL     1       8.854  -5.150  25.083  0.00  0.00    +0.188 C 
BRANCH   4   5
ATOM      5  O   UNL     1       7.461  -5.357  25.318  0.00  0.00    -0.375 OA
BRANCH   5   6
ATOM      6  C   UNL     1       6.670  -4.797  24.270  0.00  0.00    +0.188 C 
BRANCH   6   7
ATOM      7  C   UNL     1       7.041  -5.465  22.950  0.00  0.00    +0.187 C 
BRANCH   7   9
ATOM      8  C   UNL     1       6.550  -3.280  22.226  0.00  0.00    +0.194 C 
ATOM      9  O   UNL     1       7.294  -4.464  21.966  0.00  0.00    -0.381 OA
ENDBRANCH   7   9
ENDBRANCH   6   7
ENDBRANCH   5   6
ENDBRANCH   4   5
ENDBRANCH   3   4
ENDBRANCH   2   3
ENDBRANCH   1   2
BRANCH   1  10
ATOM     10  C   UNL     1      10.395  -1.570  22.411  0.00  0.00    +0.188 C 
BRANCH  10  11
ATOM     11  O   UNL     1       9.566  -0.806  21.534  0.00  0.00    -0.375 OA
BRANCH  11  12
ATOM     12  C   UNL     1       8.645   0.005  22.262  0.00  0.00    +0.188 C 
BRANCH  12  13
ATOM     13  C   UNL     1       8.802   1.455  21.820  0.00  0.00    +0.188 C 
BRANCH  13  14
ATOM     14  O   UNL     1      10.157   1.874  22.002  0.00  0.00    -0.375 OA
BRANCH  14  15
ATOM     15  C   UNL     1      10.398   2.256  23.364  0.00  0.00    +0.187 C 
BRANCH  15  16
ATOM     16  C   UNL     1      11.107   3.605  23.370  0.00  0.00    +0.184 C 
BRANCH  16  17
ATOM     17  O   UNL     1      10.149   4.660  23.295  0.00  0.00    -0.393 OA
ATOM     18  H   UNL     1      10.534   5.311  22.677  0.00  0.00    +0.209 HD
ENDBRANCH  16  17
ENDBRANCH  15  16
ENDBRANCH  14  15
ENDBRANCH  13  14
ENDBRANCH  12  13
ENDBRANCH  11  12
ENDBRANCH  10  11
ENDBRANCH   1  10
TORSDOF 15
ENDMDL
MODEL 8
REMARK VINA RESULT:      -4.1      2.910      4.961
REMARK  Name = 
REMARK  16 active torsions:
REMARK  status: ('A' for Active; 'I' for Inactive)
REMARK    1  A    between atoms: C_1  and  O_2
REMARK    2  A    between atoms: O_2  and  C_3
REMARK    3  A    between atoms: C_3  and  C_4
REMARK    4  A    between atoms: C_4  and  O_5
REMARK    5  A    between atoms: O_5  and  C_6
REMARK    6  A    between atoms: C_6  and  C_7
REMARK    7  A    between atoms: C_7  and  O_8
REMARK    8  A    between atoms: O_8  and  C_9
REMARK    9  A    between atoms: C_9  and  C_10
REMARK   10  A    between atoms: C_10  and  O_11
REMARK   11  A    between atoms: O_11  and  C_12
REMARK   12  A    between atoms: C_12  and  C_13
REMARK   13  A    between atoms: C_13  and  O_14
REMARK   14  A    between atoms: O_14  and  C_15
REMARK   15  A    between atoms: C_15  and  C_16
REMARK   16  A    between atoms: C_16  and  O_17
REMARK                            x       y       z     vdW  Elec       q    Type
REMARK                         _______ _______ _______ _____ _____    ______ ____
ROOT
ATOM      1  C   UNL     1       8.025  -4.857  24.602  0.00  0.00    +0.188 C 
ENDROOT
BRANCH   1   2
ATOM      2  O   UNL     1       8.395  -5.553  23.413  0.00  0.00    -0.375 OA
BRANCH   2   3
ATOM      3  C   UNL     1       7.304  -5.636  22.496  0.00  0.00    +0.188 C 
BRANCH   3   4
ATOM      4  C   UNL     1       6.474  -4.361  22.584  0.00  0.00    +0.188 C 
BRANCH   4   5
ATOM      5  O   UNL     1       5.133  -4.642  22.182  0.00  0.00    -0.375 OA
BRANCH   5   6
ATOM      6  C   UNL     1       4.233  -4.559  23.287  0.00  0.00    +0.188 C 
BRANCH   6   7
ATOM      7  C   UNL     1       4.645  -3.398  24.184  0.00  0.00    +0.187 C 
BRANCH   7   9
ATOM      8  C   UNL     1       3.314  -3.940  26.049  0.00  0.00    +0.194 C 
ATOM      9  O   UNL     1       4.639  -3.825  25.546  0.00  0.00    -0.381 OA
ENDBRANCH   7   9
ENDBRANCH   6   7
ENDBRANCH   5   6
ENDBRANCH   4   5
ENDBRANCH   3   4
ENDBRANCH   2   3
ENDBRANCH   1   2
BRANCH   1  10
ATOM     10  C   UNL     1       9.259  -4.190  25.198  0.00  0.00    +0.188 C 
BRANCH  10  11
ATOM     11  O   UNL     1      10.029  -3.596  24.153  0.00  0.00    -0.375 OA
BRANCH  11  12
ATOM     12  C   UNL     1       9.555  -2.288  23.833  0.00  0.00    +0.188 C 
BRANCH  12  13
ATOM     13  C   UNL     1      10.421  -1.702  22.724  0.00  0.00    +0.188 C 
BRANCH  13  14
ATOM     14  O   UNL     1      10.178  -0.298  22.612  0.00  0.00    -0.375 OA
BRANCH  14  15
ATOM     15  C   UNL     1       9.179  -0.027  21.618  0.00  0.00    +0.187 C 
BRANCH  15  16
ATOM     16  C   UNL     1       8.889   1.470  21.618  0.00  0.00    +0.184 C 
BRANCH  16  17
ATOM     17  O   UNL     1      10.113   2.203  21.590  0.00  0.00    -0.393 OA
ATOM     18  H   UNL     1      10.799   1.566  21.867  0.00  0.00    +0.209 HD
ENDBRANCH  16  17
ENDBRANCH  15  16
ENDBRANCH  14  15
ENDBRANCH  13  14
ENDBRANCH  12  13
ENDBRANCH  11  12
ENDBRANCH  10  11
ENDBRANCH   1  10
TORSDOF 15
ENDMDL
MODEL 9
REMARK VINA RESULT:      -4.1      2.984      7.596
REMARK  Name = 
REMARK  16 active torsions:
REMARK  status: ('A' for Active; 'I' for Inactive)
REMARK    1  A    between atoms: C_1  and  O_2
REMARK    2  A    between atoms: O_2  and  C_3
REMARK    3  A    between atoms: C_3  and  C_4
REMARK    4  A    between atoms: C_4  and  O_5
REMARK    5  A    between atoms: O_5  and  C_6
REMARK    6  A    between atoms: C_6  and  C_7
REMARK    7  A    between atoms: C_7  and  O_8
REMARK    8  A    between atoms: O_8  and  C_9
REMARK    9  A    between atoms: C_9  and  C_10
REMARK   10  A    between atoms: C_10  and  O_11
REMARK   11  A    between atoms: O_11  and  C_12
REMARK   12  A    between atoms: C_12  and  C_13
REMARK   13  A    between atoms: C_13  and  O_14
REMARK   14  A    between atoms: O_14  and  C_15
REMARK   15  A    between atoms: C_15  and  C_16
REMARK   16  A    between atoms: C_16  and  O_17
REMARK                            x       y       z     vdW  Elec       q    Type
REMARK                         _______ _______ _______ _____ _____    ______ ____
ROOT
ATOM      1  C   UNL     1       6.300  -2.264  22.753  0.00  0.00    +0.188 C 
ENDROOT
BRANCH   1   2
ATOM      2  O   UNL     1       7.674  -2.025  22.452  0.00  0.00    -0.375 OA
BRANCH   2   3
ATOM      3  C   UNL     1       8.439  -1.811  23.637  0.00  0.00    +0.188 C 
BRANCH   3   4
ATOM      4  C   UNL     1       9.903  -2.133  23.358  0.00  0.00    +0.188 C 
BRANCH   4   5
ATOM      5  O   UNL     1      10.482  -1.075  22.595  0.00  0.00    -0.375 OA
BRANCH   5   6
ATOM      6  C   UNL     1      10.257   0.193  23.212  0.00  0.00    +0.188 C 
BRANCH   6   7
ATOM      7  C   UNL     1      10.045   1.246  22.131  0.00  0.00    +0.187 C 
BRANCH   7   9
ATOM      8  C   UNL     1       7.829   1.866  21.636  0.00  0.00    +0.194 C 
ATOM      9  O   UNL     1       8.870   0.931  21.384  0.00  0.00    -0.381 OA
ENDBRANCH   7   9
ENDBRANCH   6   7
ENDBRANCH   5   6
ENDBRANCH   4   5
ENDBRANCH   3   4
ENDBRANCH   2   3
ENDBRANCH   1   2
BRANCH   1  10
ATOM     10  C   UNL     1       5.797  -3.434  21.917  0.00  0.00    +0.188 C 
BRANCH  10  11
ATOM     11  O   UNL     1       5.213  -4.414  22.775  0.00  0.00    -0.375 OA
BRANCH  11  12
ATOM     12  C   UNL     1       6.207  -5.258  23.357  0.00  0.00    +0.188 C 
BRANCH  12  13
ATOM     13  C   UNL     1       6.024  -5.271  24.870  0.00  0.00    +0.188 C 
BRANCH  13  14
ATOM     14  O   UNL     1       7.064  -4.512  25.491  0.00  0.00    -0.375 OA
BRANCH  14  15
ATOM     15  C   UNL     1       8.007  -5.373  26.147  0.00  0.00    +0.187 C 
BRANCH  15  16
ATOM     16  C   UNL     1       9.394  -4.752  26.026  0.00  0.00    +0.184 C 
BRANCH  16  17
ATOM     17  O   UNL     1      10.271  -5.647  25.343  0.00  0.00    -0.393 OA
ATOM     18  H   UNL     1      10.398  -6.397  25.955  0.00  0.00    +0.209 HD
ENDBRANCH  16  17
ENDBRANCH  15  16
ENDBRANCH  14  15
ENDBRANCH  13  14
ENDBRANCH  12  13
ENDBRANCH  11  12
ENDBRANCH  10  11
ENDBRANCH   1  10
TORSDOF 15
ENDMDL
