MODEL 1
REMARK VINA RESULT:      -7.8      0.000      0.000
REMARK  Name = 
REMARK  13 active torsions:
REMARK  status: ('A' for Active; 'I' for Inactive)
REMARK    1  A    between atoms: C_2  and  N_3
REMARK    2  A    between atoms: C_2  and  C_26
REMARK    3  A    between atoms: C_2  and  C_29
REMARK    4  A    between atoms: C_4  and  C_6
REMARK    5  A    between atoms: C_6  and  N_7
REMARK    6  A    between atoms: C_10  and  N_11
REMARK    7  A    between atoms: N_11  and  S_12
REMARK    8  A    between atoms: S_12  and  C_13
REMARK    9  A    between atoms: C_18  and  C_19
REMARK   10  A    between atoms: C_22  and  N_23
REMARK   11  A    between atoms: C_26  and  C_27
REMARK   12  A    between atoms: C_26  and  C_28
REMARK   13  A    between atoms: C_29  and  C_31
REMARK                            x       y       z     vdW  Elec       q    Type
REMARK                         _______ _______ _______ _____ _____    ______ ____
ROOT
ATOM      1  N   UNL     1       8.518   0.096  23.425  0.00  0.00    -0.282 N 
ATOM      2  C   UNL     1       9.326  -0.422  24.456  0.00  0.00    +0.144 A 
ATOM      3  N   UNL     1      10.390   0.228  24.845  0.00  0.00    -0.235 NA
ATOM      4  C   UNL     1      10.686   1.454  24.307  0.00  0.00    +0.143 A 
ATOM      5  C   UNL     1      10.023   1.998  23.289  0.00  0.00    +0.130 A 
ATOM      6  C   UNL     1       8.889   1.246  22.736  0.00  0.00    +0.277 A 
ATOM      7  O   UNL     1       8.335   1.671  21.723  0.00  0.00    -0.266 OA
ENDROOT
BRANCH   2   8
ATOM      8  C   UNL     1       9.070  -1.773  25.148  0.00  0.00    +0.018 A 
ATOM      9  C   UNL     1       8.237  -2.024  26.243  0.00  0.00    +0.013 A 
ATOM     10  C   UNL     1       8.011  -3.316  26.741  0.00  0.00    +0.023 A 
ATOM     11  C   UNL     1       8.603  -4.422  26.154  0.00  0.00    +0.025 A 
ATOM     12  C   UNL     1       9.518  -4.196  25.131  0.00  0.00    +0.023 A 
ATOM     13  C   UNL     1       9.729  -2.901  24.622  0.00  0.00    +0.013 A 
BRANCH  11  14
ATOM     14  N   UNL     1       8.459  -5.680  26.740  0.00  0.00    -0.358 N 
ATOM     15  H   UNL     1       9.065  -5.835  27.541  0.00  0.00    +0.142 HD
ATOM     16  H   UNL     1       7.498  -5.937  26.934  0.00  0.00    +0.142 HD
ENDBRANCH  11  14
ENDBRANCH   2   8
BRANCH   5  17
ATOM     17  N   UNL     1      10.202   3.377  22.994  0.00  0.00    -0.214 N 
ATOM     18  H   UNL     1      11.162   3.697  23.161  0.00  0.00    +0.174 HD
BRANCH  17  19
ATOM     19  S   UNL     1       9.162   4.454  23.767  0.00  0.00    +0.040 S 
ATOM     20  O   UNL     1       8.811   3.905  25.056  0.00  0.00    -0.155 OA
ATOM     21  O   UNL     1       8.150   4.777  22.782  0.00  0.00    -0.155 OA
ATOM     22  C   UNL     1      10.127   5.935  24.023  0.00  0.00    +0.218 C 
ENDBRANCH  17  19
ENDBRANCH   5  17
BRANCH   1  23
ATOM     23  C   UNL     1       7.240  -0.445  22.974  0.00  0.00    +0.222 C 
BRANCH  23  26
ATOM     24  N   UNL     1       6.301  -2.693  23.426  0.00  0.00    -0.304 N 
ATOM     25  H   UNL     1       5.650  -2.224  24.054  0.00  0.00    +0.149 HD
ATOM     26  C   UNL     1       7.254  -1.963  22.756  0.00  0.00    +0.234 C 
ATOM     27  O   UNL     1       8.057  -2.482  21.983  0.00  0.00    -0.274 OA
BRANCH  24  28
ATOM     28  C   UNL     1       6.148  -4.148  23.284  0.00  0.00    +0.151 C 
BRANCH  28  29
ATOM     29  C   UNL     1       4.969  -4.649  24.149  0.00  0.00    +0.011 C 
ATOM     30  C   UNL     1       4.437  -3.560  25.090  0.00  0.00    +0.009 C 
ATOM     31  C   UNL     1       5.341  -5.866  25.000  0.00  0.00    +0.009 C 
ENDBRANCH  28  29
BRANCH  28  32
ATOM     32  C   UNL     1       5.911  -4.390  21.786  0.00  0.00    +0.256 C 
ATOM     33  O   UNL     1       5.293  -3.558  21.108  0.00  0.00    -0.286 OA
BRANCH  32  34
ATOM     34  C   UNL     1       6.441  -5.699  21.217  0.00  0.00    +0.453 C 
ATOM     35  F   UNL     1       6.045  -5.909  19.933  0.00  0.00    -0.163 F 
ATOM     36  F   UNL     1       6.017  -6.777  21.932  0.00  0.00    -0.163 F 
ATOM     37  F   UNL     1       7.800  -5.764  21.206  0.00  0.00    -0.163 F 
ENDBRANCH  32  34
ENDBRANCH  28  32
ENDBRANCH  24  28
ENDBRANCH  23  26
ENDBRANCH   1  23
TORSDOF 10
ENDMDL
MODEL 2
REMARK VINA RESULT:      -7.7      1.792      2.417
REMARK  Name = 
REMARK  13 active torsions:
REMARK  status: ('A' for Active; 'I' for Inactive)
REMARK    1  A    between atoms: C_2  and  N_3
REMARK    2  A    between atoms: C_2  and  C_26
REMARK    3  A    between atoms: C_2  and  C_29
REMARK    4  A    between atoms: C_4  and  C_6
REMARK    5  A    between atoms: C_6  and  N_7
REMARK    6  A    between atoms: C_10  and  N_11
REMARK    7  A    between atoms: N_11  and  S_12
REMARK    8  A    between atoms: S_12  and  C_13
REMARK    9  A    between atoms: C_18  and  C_19
REMARK   10  A    between atoms: C_22  and  N_23
REMARK   11  A    between atoms: C_26  and  C_27
REMARK   12  A    between atoms: C_26  and  C_28
REMARK   13  A    between atoms: C_29  and  C_31
REMARK                            x       y       z     vdW  Elec       q    Type
REMARK                         _______ _______ _______ _____ _____    ______ ____
ROOT
ATOM      1  N   UNL     1       7.943  -0.455  23.429  0.00  0.00    -0.282 N 
ATOM      2  C   UNL     1       8.949  -1.137  24.140  0.00  0.00    +0.144 A 
ATOM      3  N   UNL     1      10.166  -0.663  24.172  0.00  0.00    -0.235 NA
ATOM      4  C   UNL     1      10.456   0.538  23.579  0.00  0.00    +0.143 A 
ATOM      5  C   UNL     1       9.593   1.226  22.833  0.00  0.00    +0.130 A 
ATOM      6  C   UNL     1       8.243   0.671  22.668  0.00  0.00    +0.277 A 
ATOM      7  O   UNL     1       7.467   1.225  21.891  0.00  0.00    -0.266 OA
ENDROOT
BRANCH   2   8
ATOM      8  C   UNL     1       8.727  -2.476  24.865  0.00  0.00    +0.018 A 
ATOM      9  C   UNL     1       9.258  -3.725  24.527  0.00  0.00    +0.013 A 
ATOM     10  C   UNL     1       9.058  -4.870  25.313  0.00  0.00    +0.023 A 
ATOM     11  C   UNL     1       8.323  -4.812  26.485  0.00  0.00    +0.025 A 
ATOM     12  C   UNL     1       7.696  -3.610  26.794  0.00  0.00    +0.023 A 
ATOM     13  C   UNL     1       7.913  -2.459  26.013  0.00  0.00    +0.013 A 
BRANCH  11  14
ATOM     14  N   UNL     1       8.038  -5.985  27.185  0.00  0.00    -0.358 N 
ATOM     15  H   UNL     1       7.048  -6.123  27.374  0.00  0.00    +0.142 HD
ATOM     16  H   UNL     1       8.469  -6.815  26.793  0.00  0.00    +0.142 HD
ENDBRANCH  11  14
ENDBRANCH   2   8
BRANCH   5  17
ATOM     17  N   UNL     1       9.874   2.582  22.510  0.00  0.00    -0.214 N 
ATOM     18  H   UNL     1      10.877   2.767  22.409  0.00  0.00    +0.174 HD
BRANCH  17  19
ATOM     19  S   UNL     1       9.239   3.750  23.545  0.00  0.00    +0.040 S 
ATOM     20  O   UNL     1       9.023   3.145  24.839  0.00  0.00    -0.155 OA
ATOM     21  O   UNL     1       8.155   4.363  22.806  0.00  0.00    -0.155 OA
ATOM     22  C   UNL     1      10.522   4.983  23.701  0.00  0.00    +0.218 C 
ENDBRANCH  17  19
ENDBRANCH   5  17
BRANCH   1  23
ATOM     23  C   UNL     1       6.522  -0.787  23.408  0.00  0.00    +0.222 C 
BRANCH  23  26
ATOM     24  N   UNL     1       5.279  -2.919  23.623  0.00  0.00    -0.304 N 
ATOM     25  H   UNL     1       4.831  -2.502  24.438  0.00  0.00    +0.149 HD
ATOM     26  C   UNL     1       6.228  -2.212  22.924  0.00  0.00    +0.234 C 
ATOM     27  O   UNL     1       6.791  -2.670  21.932  0.00  0.00    -0.274 OA
BRANCH  24  28
ATOM     28  C   UNL     1       4.847  -4.275  23.257  0.00  0.00    +0.151 C 
BRANCH  28  29
ATOM     29  C   UNL     1       5.904  -5.313  23.699  0.00  0.00    +0.011 C 
ATOM     30  C   UNL     1       6.444  -6.128  22.517  0.00  0.00    +0.009 C 
ATOM     31  C   UNL     1       5.363  -6.296  24.740  0.00  0.00    +0.009 C 
ENDBRANCH  28  29
BRANCH  28  32
ATOM     32  C   UNL     1       3.501  -4.481  23.967  0.00  0.00    +0.256 C 
ATOM     33  O   UNL     1       3.234  -3.847  24.998  0.00  0.00    -0.286 OA
BRANCH  32  34
ATOM     34  C   UNL     1       2.561  -5.512  23.358  0.00  0.00    +0.453 C 
ATOM     35  F   UNL     1       3.144  -6.222  22.355  0.00  0.00    -0.163 F 
ATOM     36  F   UNL     1       1.447  -4.938  22.826  0.00  0.00    -0.163 F 
ATOM     37  F   UNL     1       2.119  -6.430  24.259  0.00  0.00    -0.163 F 
ENDBRANCH  32  34
ENDBRANCH  28  32
ENDBRANCH  24  28
ENDBRANCH  23  26
ENDBRANCH   1  23
TORSDOF 10
ENDMDL
MODEL 3
REMARK VINA RESULT:      -7.4      4.333      7.443
REMARK  Name = 
REMARK  13 active torsions:
REMARK  status: ('A' for Active; 'I' for Inactive)
REMARK    1  A    between atoms: C_2  and  N_3
REMARK    2  A    between atoms: C_2  and  C_26
REMARK    3  A    between atoms: C_2  and  C_29
REMARK    4  A    between atoms: C_4  and  C_6
REMARK    5  A    between atoms: C_6  and  N_7
REMARK    6  A    between atoms: C_10  and  N_11
REMARK    7  A    between atoms: N_11  and  S_12
REMARK    8  A    between atoms: S_12  and  C_13
REMARK    9  A    between atoms: C_18  and  C_19
REMARK   10  A    between atoms: C_22  and  N_23
REMARK   11  A    between atoms: C_26  and  C_27
REMARK   12  A    between atoms: C_26  and  C_28
REMARK   13  A    between atoms: C_29  and  C_31
REMARK                            x       y       z     vdW  Elec       q    Type
REMARK                         _______ _______ _______ _____ _____    ______ ____
ROOT
ATOM      1  N   UNL     1       7.964  -3.742  23.561  0.00  0.00    -0.282 N 
ATOM      2  C   UNL     1       7.500  -2.870  22.557  0.00  0.00    +0.144 A 
ATOM      3  N   UNL     1       6.592  -3.269  21.708  0.00  0.00    -0.235 NA
ATOM      4  C   UNL     1       6.028  -4.513  21.834  0.00  0.00    +0.143 A 
ATOM      5  C   UNL     1       6.440  -5.430  22.707  0.00  0.00    +0.130 A 
ATOM      6  C   UNL     1       7.543  -5.067  23.605  0.00  0.00    +0.277 A 
ATOM      7  O   UNL     1       8.019  -5.934  24.338  0.00  0.00    -0.266 OA
ENDROOT
BRANCH   2   8
ATOM      8  C   UNL     1       8.043  -1.445  22.344  0.00  0.00    +0.018 A 
ATOM      9  C   UNL     1       9.270  -1.076  21.784  0.00  0.00    +0.013 A 
ATOM     10  C   UNL     1       9.626   0.262  21.557  0.00  0.00    +0.023 A 
ATOM     11  C   UNL     1       8.760   1.296  21.872  0.00  0.00    +0.025 A 
ATOM     12  C   UNL     1       7.577   0.968  22.525  0.00  0.00    +0.023 A 
ATOM     13  C   UNL     1       7.213  -0.376  22.735  0.00  0.00    +0.013 A 
BRANCH  11  14
ATOM     14  N   UNL     1       9.183   2.620  21.749  0.00  0.00    -0.358 N 
ATOM     15  H   UNL     1       9.869   2.768  21.013  0.00  0.00    +0.142 HD
ATOM     16  H   UNL     1       8.426   3.293  21.705  0.00  0.00    +0.142 HD
ENDBRANCH  11  14
ENDBRANCH   2   8
BRANCH   5  17
ATOM     17  N   UNL     1       5.620  -6.562  22.970  0.00  0.00    -0.214 N 
ATOM     18  H   UNL     1       5.213  -6.964  22.120  0.00  0.00    +0.174 HD
BRANCH  17  19
ATOM     19  S   UNL     1       4.374  -6.347  24.083  0.00  0.00    +0.040 S 
ATOM     20  O   UNL     1       4.678  -5.190  24.892  0.00  0.00    -0.155 OA
ATOM     21  O   UNL     1       4.167  -7.652  24.678  0.00  0.00    -0.155 OA
ATOM     22  C   UNL     1       2.926  -5.990  23.101  0.00  0.00    +0.218 C 
ENDBRANCH  17  19
ENDBRANCH   5  17
BRANCH   1  23
ATOM     23  C   UNL     1       8.872  -3.401  24.651  0.00  0.00    +0.222 C 
BRANCH  23  26
ATOM     24  N   UNL     1       7.337  -1.857  25.835  0.00  0.00    -0.304 N 
ATOM     25  H   UNL     1       7.251  -1.365  24.947  0.00  0.00    +0.149 HD
ATOM     26  C   UNL     1       8.158  -2.956  25.933  0.00  0.00    +0.234 C 
ATOM     27  O   UNL     1       8.290  -3.586  26.981  0.00  0.00    -0.274 OA
BRANCH  24  28
ATOM     28  C   UNL     1       6.544  -1.336  26.957  0.00  0.00    +0.151 C 
BRANCH  28  29
ATOM     29  C   UNL     1       6.644   0.206  27.013  0.00  0.00    +0.011 C 
ATOM     30  C   UNL     1       7.817   0.741  26.181  0.00  0.00    +0.009 C 
ATOM     31  C   UNL     1       6.801   0.733  28.441  0.00  0.00    +0.009 C 
ENDBRANCH  28  29
BRANCH  28  32
ATOM     32  C   UNL     1       5.107  -1.814  26.699  0.00  0.00    +0.256 C 
ATOM     33  O   UNL     1       4.480  -1.404  25.713  0.00  0.00    -0.286 OA
BRANCH  32  34
ATOM     34  C   UNL     1       4.514  -2.768  27.725  0.00  0.00    +0.453 C 
ATOM     35  F   UNL     1       4.200  -2.149  28.895  0.00  0.00    -0.163 F 
ATOM     36  F   UNL     1       5.371  -3.778  28.042  0.00  0.00    -0.163 F 
ATOM     37  F   UNL     1       3.368  -3.366  27.299  0.00  0.00    -0.163 F 
ENDBRANCH  32  34
ENDBRANCH  28  32
ENDBRANCH  24  28
ENDBRANCH  23  26
ENDBRANCH   1  23
TORSDOF 10
ENDMDL
MODEL 4
REMARK VINA RESULT:      -7.4      3.226      5.611
REMARK  Name = 
REMARK  13 active torsions:
REMARK  status: ('A' for Active; 'I' for Inactive)
REMARK    1  A    between atoms: C_2  and  N_3
REMARK    2  A    between atoms: C_2  and  C_26
REMARK    3  A    between atoms: C_2  and  C_29
REMARK    4  A    between atoms: C_4  and  C_6
REMARK    5  A    between atoms: C_6  and  N_7
REMARK    6  A    between atoms: C_10  and  N_11
REMARK    7  A    between atoms: N_11  and  S_12
REMARK    8  A    between atoms: S_12  and  C_13
REMARK    9  A    between atoms: C_18  and  C_19
REMARK   10  A    between atoms: C_22  and  N_23
REMARK   11  A    between atoms: C_26  and  C_27
REMARK   12  A    between atoms: C_26  and  C_28
REMARK   13  A    between atoms: C_29  and  C_31
REMARK                            x       y       z     vdW  Elec       q    Type
REMARK                         _______ _______ _______ _____ _____    ______ ____
ROOT
ATOM      1  N   UNL     1       6.838   0.293  24.837  0.00  0.00    -0.282 N 
ATOM      2  C   UNL     1       7.751   1.093  25.551  0.00  0.00    +0.144 A 
ATOM      3  N   UNL     1       7.715   1.126  26.856  0.00  0.00    -0.235 NA
ATOM      4  C   UNL     1       6.840   0.326  27.543  0.00  0.00    +0.143 A 
ATOM      5  C   UNL     1       5.898  -0.416  26.963  0.00  0.00    +0.130 A 
ATOM      6  C   UNL     1       5.822  -0.391  25.496  0.00  0.00    +0.277 A 
ATOM      7  O   UNL     1       4.889  -0.973  24.943  0.00  0.00    -0.266 OA
ENDROOT
BRANCH   2   8
ATOM      8  C   UNL     1       8.794   2.007  24.881  0.00  0.00    +0.018 A 
ATOM      9  C   UNL     1      10.009   1.630  24.301  0.00  0.00    +0.013 A 
ATOM     10  C   UNL     1      10.846   2.541  23.640  0.00  0.00    +0.023 A 
ATOM     11  C   UNL     1      10.496   3.875  23.519  0.00  0.00    +0.025 A 
ATOM     12  C   UNL     1       9.347   4.302  24.174  0.00  0.00    +0.023 A 
ATOM     13  C   UNL     1       8.499   3.383  24.822  0.00  0.00    +0.013 A 
BRANCH  11  14
ATOM     14  N   UNL     1      11.399   4.783  22.963  0.00  0.00    -0.358 N 
ATOM     15  H   UNL     1      11.061   5.239  22.120  0.00  0.00    +0.142 HD
ATOM     16  H   UNL     1      11.778   5.447  23.628  0.00  0.00    +0.142 HD
ENDBRANCH  11  14
ENDBRANCH   2   8
BRANCH   5  17
ATOM     17  N   UNL     1       5.241  -1.427  27.716  0.00  0.00    -0.214 N 
ATOM     18  H   UNL     1       5.001  -2.249  27.152  0.00  0.00    +0.174 HD
BRANCH  17  19
ATOM     19  S   UNL     1       3.858  -0.960  28.557  0.00  0.00    +0.040 S 
ATOM     20  O   UNL     1       3.063  -0.116  27.697  0.00  0.00    -0.155 OA
ATOM     21  O   UNL     1       4.336  -0.494  29.843  0.00  0.00    -0.155 OA
ATOM     22  C   UNL     1       2.959  -2.474  28.856  0.00  0.00    +0.218 C 
ENDBRANCH  17  19
ENDBRANCH   5  17
BRANCH   1  23
ATOM     23  C   UNL     1       6.838   0.054  23.398  0.00  0.00    +0.222 C 
BRANCH  23  26
ATOM     24  N   UNL     1       6.849  -2.411  23.156  0.00  0.00    -0.304 N 
ATOM     25  H   UNL     1       5.916  -2.392  23.564  0.00  0.00    +0.149 HD
ATOM     26  C   UNL     1       7.549  -1.240  22.987  0.00  0.00    +0.234 C 
ATOM     27  O   UNL     1       8.675  -1.213  22.492  0.00  0.00    -0.274 OA
BRANCH  24  28
ATOM     28  C   UNL     1       7.369  -3.729  22.764  0.00  0.00    +0.151 C 
BRANCH  28  29
ATOM     29  C   UNL     1       7.615  -4.602  24.016  0.00  0.00    +0.011 C 
ATOM     30  C   UNL     1       6.527  -4.406  25.081  0.00  0.00    +0.009 C 
ATOM     31  C   UNL     1       8.970  -4.321  24.671  0.00  0.00    +0.009 C 
ENDBRANCH  28  29
BRANCH  28  32
ATOM     32  C   UNL     1       6.300  -4.332  21.839  0.00  0.00    +0.256 C 
ATOM     33  O   UNL     1       5.262  -3.703  21.591  0.00  0.00    -0.286 OA
BRANCH  32  34
ATOM     34  C   UNL     1       6.581  -5.725  21.294  0.00  0.00    +0.453 C 
ATOM     35  F   UNL     1       7.910  -5.965  21.131  0.00  0.00    -0.163 F 
ATOM     36  F   UNL     1       6.000  -5.926  20.080  0.00  0.00    -0.163 F 
ATOM     37  F   UNL     1       6.118  -6.717  22.103  0.00  0.00    -0.163 F 
ENDBRANCH  32  34
ENDBRANCH  28  32
ENDBRANCH  24  28
ENDBRANCH  23  26
ENDBRANCH   1  23
TORSDOF 10
ENDMDL
MODEL 5
REMARK VINA RESULT:      -7.4      4.208      7.504
REMARK  Name = 
REMARK  13 active torsions:
REMARK  status: ('A' for Active; 'I' for Inactive)
REMARK    1  A    between atoms: C_2  and  N_3
REMARK    2  A    between atoms: C_2  and  C_26
REMARK    3  A    between atoms: C_2  and  C_29
REMARK    4  A    between atoms: C_4  and  C_6
REMARK    5  A    between atoms: C_6  and  N_7
REMARK    6  A    between atoms: C_10  and  N_11
REMARK    7  A    between atoms: N_11  and  S_12
REMARK    8  A    between atoms: S_12  and  C_13
REMARK    9  A    between atoms: C_18  and  C_19
REMARK   10  A    between atoms: C_22  and  N_23
REMARK   11  A    between atoms: C_26  and  C_27
REMARK   12  A    between atoms: C_26  and  C_28
REMARK   13  A    between atoms: C_29  and  C_31
REMARK                            x       y       z     vdW  Elec       q    Type
REMARK                         _______ _______ _______ _____ _____    ______ ____
ROOT
ATOM      1  N   UNL     1       7.777  -1.845  24.644  0.00  0.00    -0.282 N 
ATOM      2  C   UNL     1       8.493  -1.527  23.474  0.00  0.00    +0.144 A 
ATOM      3  N   UNL     1       8.622  -2.412  22.522  0.00  0.00    -0.235 NA
ATOM      4  C   UNL     1       7.999  -3.629  22.621  0.00  0.00    +0.143 A 
ATOM      5  C   UNL     1       7.354  -4.047  23.708  0.00  0.00    +0.130 A 
ATOM      6  C   UNL     1       7.285  -3.130  24.853  0.00  0.00    +0.277 A 
ATOM      7  O   UNL     1       6.799  -3.536  25.907  0.00  0.00    -0.266 OA
ENDROOT
BRANCH   2   8
ATOM      8  C   UNL     1       9.207  -0.182  23.246  0.00  0.00    +0.018 A 
ATOM      9  C   UNL     1       9.131   0.641  22.119  0.00  0.00    +0.013 A 
ATOM     10  C   UNL     1       9.760   1.894  22.054  0.00  0.00    +0.023 A 
ATOM     11  C   UNL     1      10.486   2.386  23.125  0.00  0.00    +0.025 A 
ATOM     12  C   UNL     1      10.667   1.548  24.220  0.00  0.00    +0.023 A 
ATOM     13  C   UNL     1      10.021   0.299  24.290  0.00  0.00    +0.013 A 
BRANCH  11  14
ATOM     14  N   UNL     1      11.200   3.578  22.993  0.00  0.00    -0.358 N 
ATOM     15  H   UNL     1      12.172   3.513  23.285  0.00  0.00    +0.142 HD
ATOM     16  H   UNL     1      11.106   4.016  22.083  0.00  0.00    +0.142 HD
ENDBRANCH  11  14
ENDBRANCH   2   8
BRANCH   5  17
ATOM     17  N   UNL     1       6.497  -5.178  23.621  0.00  0.00    -0.214 N 
ATOM     18  H   UNL     1       7.006  -6.049  23.439  0.00  0.00    +0.174 HD
BRANCH  17  19
ATOM     19  S   UNL     1       5.234  -5.082  22.510  0.00  0.00    +0.040 S 
ATOM     20  O   UNL     1       5.642  -5.747  21.295  0.00  0.00    -0.155 OA
ATOM     21  O   UNL     1       4.832  -3.690  22.512  0.00  0.00    -0.155 OA
ATOM     22  C   UNL     1       3.895  -6.009  23.243  0.00  0.00    +0.218 C 
ENDBRANCH  17  19
ENDBRANCH   5  17
BRANCH   1  23
ATOM     23  C   UNL     1       7.439  -0.929  25.728  0.00  0.00    +0.222 C 
BRANCH  23  26
ATOM     24  N   UNL     1       6.791   1.450  25.482  0.00  0.00    -0.304 N 
ATOM     25  H   UNL     1       7.710   1.673  25.861  0.00  0.00    +0.149 HD
ATOM     26  C   UNL     1       6.409   0.137  25.337  0.00  0.00    +0.234 C 
ATOM     27  O   UNL     1       5.313  -0.181  24.879  0.00  0.00    -0.274 OA
BRANCH  24  28
ATOM     28  C   UNL     1       5.941   2.588  25.105  0.00  0.00    +0.151 C 
BRANCH  28  29
ATOM     29  C   UNL     1       5.754   3.540  26.309  0.00  0.00    +0.011 C 
ATOM     30  C   UNL     1       6.719   3.216  27.457  0.00  0.00    +0.009 C 
ATOM     31  C   UNL     1       4.330   3.506  26.869  0.00  0.00    +0.009 C 
ENDBRANCH  28  29
BRANCH  28  32
ATOM     32  C   UNL     1       6.665   3.270  23.935  0.00  0.00    +0.256 C 
ATOM     33  O   UNL     1       7.600   4.053  24.151  0.00  0.00    -0.286 OA
BRANCH  32  34
ATOM     34  C   UNL     1       6.149   2.955  22.539  0.00  0.00    +0.453 C 
ATOM     35  F   UNL     1       6.142   1.620  22.273  0.00  0.00    -0.163 F 
ATOM     36  F   UNL     1       6.906   3.537  21.569  0.00  0.00    -0.163 F 
ATOM     37  F   UNL     1       4.874   3.384  22.332  0.00  0.00    -0.163 F 
ENDBRANCH  32  34
ENDBRANCH  28  32
ENDBRANCH  24  28
ENDBRANCH  23  26
ENDBRANCH   1  23
TORSDOF 10
ENDMDL
MODEL 6
REMARK VINA RESULT:      -7.3      2.943      3.900
REMARK  Name = 
REMARK  13 active torsions:
REMARK  status: ('A' for Active; 'I' for Inactive)
REMARK    1  A    between atoms: C_2  and  N_3
REMARK    2  A    between atoms: C_2  and  C_26
REMARK    3  A    between atoms: C_2  and  C_29
REMARK    4  A    between atoms: C_4  and  C_6
REMARK    5  A    between atoms: C_6  and  N_7
REMARK    6  A    between atoms: C_10  and  N_11
REMARK    7  A    between atoms: N_11  and  S_12
REMARK    8  A    between atoms: S_12  and  C_13
REMARK    9  A    between atoms: C_18  and  C_19
REMARK   10  A    between atoms: C_22  and  N_23
REMARK   11  A    between atoms: C_26  and  C_27
REMARK   12  A    between atoms: C_26  and  C_28
REMARK   13  A    between atoms: C_29  and  C_31
REMARK                            x       y       z     vdW  Elec       q    Type
REMARK                         _______ _______ _______ _____ _____    ______ ____
ROOT
ATOM      1  N   UNL     1       6.922  -0.471  24.245  0.00  0.00    -0.282 N 
ATOM      2  C   UNL     1       7.692  -1.338  23.447  0.00  0.00    +0.144 A 
ATOM      3  N   UNL     1       8.866  -0.963  23.014  0.00  0.00    -0.235 NA
ATOM      4  C   UNL     1       9.389   0.246  23.394  0.00  0.00    +0.143 A 
ATOM      5  C   UNL     1       8.717   1.160  24.092  0.00  0.00    +0.130 A 
ATOM      6  C   UNL     1       7.345   0.830  24.500  0.00  0.00    +0.277 A 
ATOM      7  O   UNL     1       6.664   1.700  25.041  0.00  0.00    -0.266 OA
ENDROOT
BRANCH   2   8
ATOM      8  C   UNL     1       7.215  -2.727  22.986  0.00  0.00    +0.018 A 
ATOM      9  C   UNL     1       6.111  -3.024  22.180  0.00  0.00    +0.013 A 
ATOM     10  C   UNL     1       5.818  -4.326  21.748  0.00  0.00    +0.023 A 
ATOM     11  C   UNL     1       6.629  -5.394  22.096  0.00  0.00    +0.025 A 
ATOM     12  C   UNL     1       7.673  -5.148  22.981  0.00  0.00    +0.023 A 
ATOM     13  C   UNL     1       7.976  -3.838  23.398  0.00  0.00    +0.013 A 
BRANCH  11  14
ATOM     14  N   UNL     1       6.251  -6.693  21.756  0.00  0.00    -0.358 N 
ATOM     15  H   UNL     1       6.451  -6.943  20.790  0.00  0.00    +0.142 HD
ATOM     16  H   UNL     1       6.575  -7.401  22.406  0.00  0.00    +0.142 HD
ENDBRANCH  11  14
ENDBRANCH   2   8
BRANCH   5  17
ATOM     17  N   UNL     1       9.421   2.241  24.689  0.00  0.00    -0.214 N 
ATOM     18  H   UNL     1       9.086   2.459  25.633  0.00  0.00    +0.174 HD
BRANCH  17  19
ATOM     19  S   UNL     1       9.470   3.681  23.817  0.00  0.00    +0.040 S 
ATOM     20  O   UNL     1       8.485   3.611  22.763  0.00  0.00    -0.155 OA
ATOM     21  O   UNL     1      10.873   3.901  23.527  0.00  0.00    -0.155 OA
ATOM     22  C   UNL     1       8.976   4.947  24.976  0.00  0.00    +0.218 C 
ENDBRANCH  17  19
ENDBRANCH   5  17
BRANCH   1  23
ATOM     23  C   UNL     1       5.661  -0.793  24.905  0.00  0.00    +0.222 C 
BRANCH  23  26
ATOM     24  N   UNL     1       5.139  -2.955  25.995  0.00  0.00    -0.304 N 
ATOM     25  H   UNL     1       4.553  -3.150  25.184  0.00  0.00    +0.149 HD
ATOM     26  C   UNL     1       5.811  -1.760  26.085  0.00  0.00    +0.234 C 
ATOM     27  O   UNL     1       6.535  -1.483  27.040  0.00  0.00    -0.274 OA
BRANCH  24  28
ATOM     28  C   UNL     1       5.221  -4.009  27.016  0.00  0.00    +0.151 C 
BRANCH  28  29
ATOM     29  C   UNL     1       3.803  -4.490  27.405  0.00  0.00    +0.011 C 
ATOM     30  C   UNL     1       2.901  -3.330  27.848  0.00  0.00    +0.009 C 
ATOM     31  C   UNL     1       3.823  -5.527  28.530  0.00  0.00    +0.009 C 
ENDBRANCH  28  29
BRANCH  28  32
ATOM     32  C   UNL     1       6.058  -5.130  26.382  0.00  0.00    +0.256 C 
ATOM     33  O   UNL     1       5.565  -5.862  25.512  0.00  0.00    -0.286 OA
BRANCH  32  34
ATOM     34  C   UNL     1       7.477  -5.297  26.904  0.00  0.00    +0.453 C 
ATOM     35  F   UNL     1       8.277  -5.975  26.038  0.00  0.00    -0.163 F 
ATOM     36  F   UNL     1       7.514  -5.983  28.080  0.00  0.00    -0.163 F 
ATOM     37  F   UNL     1       8.102  -4.111  27.140  0.00  0.00    -0.163 F 
ENDBRANCH  32  34
ENDBRANCH  28  32
ENDBRANCH  24  28
ENDBRANCH  23  26
ENDBRANCH   1  23
TORSDOF 10
ENDMDL
MODEL 7
REMARK VINA RESULT:      -7.1      3.578      4.884
REMARK  Name = 
REMARK  13 active torsions:
REMARK  status: ('A' for Active; 'I' for Inactive)
REMARK    1  A    between atoms: C_2  and  N_3
REMARK    2  A    between atoms: C_2  and  C_26
REMARK    3  A    between atoms: C_2  and  C_29
REMARK    4  A    between atoms: C_4  and  C_6
REMARK    5  A    between atoms: C_6  and  N_7
REMARK    6  A    between atoms: C_10  and  N_11
REMARK    7  A    between atoms: N_11  and  S_12
REMARK    8  A    between atoms: S_12  and  C_13
REMARK    9  A    between atoms: C_18  and  C_19
REMARK   10  A    between atoms: C_22  and  N_23
REMARK   11  A    between atoms: C_26  and  C_27
REMARK   12  A    between atoms: C_26  and  C_28
REMARK   13  A    between atoms: C_29  and  C_31
REMARK                            x       y       z     vdW  Elec       q    Type
REMARK                         _______ _______ _______ _____ _____    ______ ____
ROOT
ATOM      1  N   UNL     1       7.831  -0.974  24.806  0.00  0.00    -0.282 N 
ATOM      2  C   UNL     1       7.349  -1.405  23.555  0.00  0.00    +0.144 A 
ATOM      3  N   UNL     1       7.242  -0.559  22.566  0.00  0.00    -0.235 NA
ATOM      4  C   UNL     1       7.670   0.735  22.714  0.00  0.00    +0.143 A 
ATOM      5  C   UNL     1       8.082   1.253  23.869  0.00  0.00    +0.130 A 
ATOM      6  C   UNL     1       8.104   0.370  25.042  0.00  0.00    +0.277 A 
ATOM      7  O   UNL     1       8.367   0.854  26.142  0.00  0.00    -0.266 OA
ENDROOT
BRANCH   2   8
ATOM      8  C   UNL     1       6.869  -2.840  23.271  0.00  0.00    +0.018 A 
ATOM      9  C   UNL     1       7.650  -3.997  23.185  0.00  0.00    +0.013 A 
ATOM     10  C   UNL     1       7.093  -5.273  23.005  0.00  0.00    +0.023 A 
ATOM     11  C   UNL     1       5.723  -5.449  22.915  0.00  0.00    +0.025 A 
ATOM     12  C   UNL     1       4.927  -4.309  22.892  0.00  0.00    +0.023 A 
ATOM     13  C   UNL     1       5.485  -3.032  23.091  0.00  0.00    +0.013 A 
BRANCH  11  14
ATOM     14  N   UNL     1       5.202  -6.709  22.617  0.00  0.00    -0.358 N 
ATOM     15  H   UNL     1       5.670  -7.474  23.096  0.00  0.00    +0.142 HD
ATOM     16  H   UNL     1       4.193  -6.768  22.701  0.00  0.00    +0.142 HD
ENDBRANCH  11  14
ENDBRANCH   2   8
BRANCH   5  17
ATOM     17  N   UNL     1       8.778   2.493  23.871  0.00  0.00    -0.214 N 
ATOM     18  H   UNL     1       8.281   3.228  23.357  0.00  0.00    +0.174 HD
BRANCH  17  19
ATOM     19  S   UNL     1      10.368   2.464  23.314  0.00  0.00    +0.040 S 
ATOM     20  O   UNL     1      10.352   2.179  21.899  0.00  0.00    -0.155 OA
ATOM     21  O   UNL     1      11.081   1.617  24.249  0.00  0.00    -0.155 OA
ATOM     22  C   UNL     1      10.977   4.126  23.553  0.00  0.00    +0.218 C 
ENDBRANCH  17  19
ENDBRANCH   5  17
BRANCH   1  23
ATOM     23  C   UNL     1       8.126  -1.820  25.958  0.00  0.00    +0.222 C 
BRANCH  23  26
ATOM     24  N   UNL     1       6.803  -3.725  26.830  0.00  0.00    -0.304 N 
ATOM     25  H   UNL     1       7.545  -4.323  26.469  0.00  0.00    +0.149 HD
ATOM     26  C   UNL     1       6.875  -2.363  26.661  0.00  0.00    +0.234 C 
ATOM     27  O   UNL     1       6.008  -1.601  27.084  0.00  0.00    -0.274 OA
BRANCH  24  28
ATOM     28  C   UNL     1       5.698  -4.397  27.528  0.00  0.00    +0.151 C 
BRANCH  28  29
ATOM     29  C   UNL     1       4.650  -4.903  26.510  0.00  0.00    +0.011 C 
ATOM     30  C   UNL     1       3.213  -4.706  27.013  0.00  0.00    +0.009 C 
ATOM     31  C   UNL     1       4.829  -6.384  26.169  0.00  0.00    +0.009 C 
ENDBRANCH  28  29
BRANCH  28  32
ATOM     32  C   UNL     1       6.348  -5.549  28.310  0.00  0.00    +0.256 C 
ATOM     33  O   UNL     1       7.395  -6.069  27.901  0.00  0.00    -0.286 OA
BRANCH  32  34
ATOM     34  C   UNL     1       5.620  -6.015  29.562  0.00  0.00    +0.453 C 
ATOM     35  F   UNL     1       4.954  -5.007  30.186  0.00  0.00    -0.163 F 
ATOM     36  F   UNL     1       6.473  -6.542  30.484  0.00  0.00    -0.163 F 
ATOM     37  F   UNL     1       4.692  -6.979  29.313  0.00  0.00    -0.163 F 
ENDBRANCH  32  34
ENDBRANCH  28  32
ENDBRANCH  24  28
ENDBRANCH  23  26
ENDBRANCH   1  23
TORSDOF 10
ENDMDL
MODEL 8
REMARK VINA RESULT:      -7.1      3.972      7.170
REMARK  Name = 
REMARK  13 active torsions:
REMARK  status: ('A' for Active; 'I' for Inactive)
REMARK    1  A    between atoms: C_2  and  N_3
REMARK    2  A    between atoms: C_2  and  C_26
REMARK    3  A    between atoms: C_2  and  C_29
REMARK    4  A    between atoms: C_4  and  C_6
REMARK    5  A    between atoms: C_6  and  N_7
REMARK    6  A    between atoms: C_10  and  N_11
REMARK    7  A    between atoms: N_11  and  S_12
REMARK    8  A    between atoms: S_12  and  C_13
REMARK    9  A    between atoms: C_18  and  C_19
REMARK   10  A    between atoms: C_22  and  N_23
REMARK   11  A    between atoms: C_26  and  C_27
REMARK   12  A    between atoms: C_26  and  C_28
REMARK   13  A    between atoms: C_29  and  C_31
REMARK                            x       y       z     vdW  Elec       q    Type
REMARK                         _______ _______ _______ _____ _____    ______ ____
ROOT
ATOM      1  N   UNL     1       7.844  -3.738  23.402  0.00  0.00    -0.282 N 
ATOM      2  C   UNL     1       7.434  -2.778  22.457  0.00  0.00    +0.144 A 
ATOM      3  N   UNL     1       6.491  -3.061  21.599  0.00  0.00    -0.235 NA
ATOM      4  C   UNL     1       5.842  -4.267  21.660  0.00  0.00    +0.143 A 
ATOM      5  C   UNL     1       6.195  -5.261  22.473  0.00  0.00    +0.130 A 
ATOM      6  C   UNL     1       7.331  -5.031  23.375  0.00  0.00    +0.277 A 
ATOM      7  O   UNL     1       7.750  -5.971  24.050  0.00  0.00    -0.266 OA
ENDROOT
BRANCH   2   8
ATOM      8  C   UNL     1       8.075  -1.384  22.319  0.00  0.00    +0.018 A 
ATOM      9  C   UNL     1       9.291  -1.064  21.709  0.00  0.00    +0.013 A 
ATOM     10  C   UNL     1       9.739   0.259  21.564  0.00  0.00    +0.023 A 
ATOM     11  C   UNL     1       8.979   1.324  22.015  0.00  0.00    +0.025 A 
ATOM     12  C   UNL     1       7.815   1.033  22.719  0.00  0.00    +0.023 A 
ATOM     13  C   UNL     1       7.359  -0.293  22.847  0.00  0.00    +0.013 A 
BRANCH  11  14
ATOM     14  N   UNL     1       9.498   2.619  21.968  0.00  0.00    -0.358 N 
ATOM     15  H   UNL     1       9.071   3.260  22.631  0.00  0.00    +0.142 HD
ATOM     16  H   UNL     1      10.511   2.658  22.000  0.00  0.00    +0.142 HD
ENDBRANCH  11  14
ENDBRANCH   2   8
BRANCH   5  17
ATOM     17  N   UNL     1       5.300  -6.346  22.681  0.00  0.00    -0.214 N 
ATOM     18  H   UNL     1       5.024  -6.807  21.808  0.00  0.00    +0.174 HD
BRANCH  17  19
ATOM     19  S   UNL     1       3.896  -6.007  23.548  0.00  0.00    +0.040 S 
ATOM     20  O   UNL     1       2.788  -5.957  22.623  0.00  0.00    -0.155 OA
ATOM     21  O   UNL     1       4.232  -4.875  24.388  0.00  0.00    -0.155 OA
ATOM     22  C   UNL     1       3.667  -7.407  24.633  0.00  0.00    +0.218 C 
ENDBRANCH  17  19
ENDBRANCH   5  17
BRANCH   1  23
ATOM     23  C   UNL     1       8.784  -3.527  24.498  0.00  0.00    +0.222 C 
BRANCH  23  26
ATOM     24  N   UNL     1       6.830  -3.408  26.016  0.00  0.00    -0.304 N 
ATOM     25  H   UNL     1       6.344  -3.985  25.331  0.00  0.00    +0.149 HD
ATOM     26  C   UNL     1       8.128  -3.016  25.786  0.00  0.00    +0.234 C 
ATOM     27  O   UNL     1       8.757  -2.325  26.585  0.00  0.00    -0.274 OA
BRANCH  24  28
ATOM     28  C   UNL     1       6.077  -3.047  27.226  0.00  0.00    +0.151 C 
BRANCH  28  29
ATOM     29  C   UNL     1       5.204  -1.799  26.961  0.00  0.00    +0.011 C 
ATOM     30  C   UNL     1       4.952  -1.576  25.464  0.00  0.00    +0.009 C 
ATOM     31  C   UNL     1       5.821  -0.519  27.530  0.00  0.00    +0.009 C 
ENDBRANCH  28  29
BRANCH  28  32
ATOM     32  C   UNL     1       5.232  -4.284  27.566  0.00  0.00    +0.256 C 
ATOM     33  O   UNL     1       4.014  -4.173  27.763  0.00  0.00    -0.286 OA
BRANCH  32  34
ATOM     34  C   UNL     1       5.976  -5.607  27.674  0.00  0.00    +0.453 C 
ATOM     35  F   UNL     1       7.254  -5.453  28.113  0.00  0.00    -0.163 F 
ATOM     36  F   UNL     1       6.054  -6.250  26.477  0.00  0.00    -0.163 F 
ATOM     37  F   UNL     1       5.387  -6.481  28.535  0.00  0.00    -0.163 F 
ENDBRANCH  32  34
ENDBRANCH  28  32
ENDBRANCH  24  28
ENDBRANCH  23  26
ENDBRANCH   1  23
TORSDOF 10
ENDMDL
MODEL 9
REMARK VINA RESULT:      -7.1      2.003      2.582
REMARK  Name = 
REMARK  13 active torsions:
REMARK  status: ('A' for Active; 'I' for Inactive)
REMARK    1  A    between atoms: C_2  and  N_3
REMARK    2  A    between atoms: C_2  and  C_26
REMARK    3  A    between atoms: C_2  and  C_29
REMARK    4  A    between atoms: C_4  and  C_6
REMARK    5  A    between atoms: C_6  and  N_7
REMARK    6  A    between atoms: C_10  and  N_11
REMARK    7  A    between atoms: N_11  and  S_12
REMARK    8  A    between atoms: S_12  and  C_13
REMARK    9  A    between atoms: C_18  and  C_19
REMARK   10  A    between atoms: C_22  and  N_23
REMARK   11  A    between atoms: C_26  and  C_27
REMARK   12  A    between atoms: C_26  and  C_28
REMARK   13  A    between atoms: C_29  and  C_31
REMARK                            x       y       z     vdW  Elec       q    Type
REMARK                         _______ _______ _______ _____ _____    ______ ____
ROOT
ATOM      1  N   UNL     1       7.459   1.250  23.518  0.00  0.00    -0.282 N 
ATOM      2  C   UNL     1       7.323   1.222  24.919  0.00  0.00    +0.144 A 
ATOM      3  N   UNL     1       7.769   2.214  25.642  0.00  0.00    -0.235 NA
ATOM      4  C   UNL     1       8.303   3.323  25.038  0.00  0.00    +0.143 A 
ATOM      5  C   UNL     1       8.531   3.420  23.730  0.00  0.00    +0.130 A 
ATOM      6  C   UNL     1       8.156   2.277  22.888  0.00  0.00    +0.277 A 
ATOM      7  O   UNL     1       8.463   2.293  21.697  0.00  0.00    -0.266 OA
ENDROOT
BRANCH   2   8
ATOM      8  C   UNL     1       6.714   0.041  25.697  0.00  0.00    +0.018 A 
ATOM      9  C   UNL     1       7.396  -0.981  26.364  0.00  0.00    +0.013 A 
ATOM     10  C   UNL     1       6.737  -1.964  27.117  0.00  0.00    +0.023 A 
ATOM     11  C   UNL     1       5.358  -1.960  27.247  0.00  0.00    +0.025 A 
ATOM     12  C   UNL     1       4.645  -1.020  26.511  0.00  0.00    +0.023 A 
ATOM     13  C   UNL     1       5.309  -0.024  25.770  0.00  0.00    +0.013 A 
BRANCH  11  14
ATOM     14  N   UNL     1       4.718  -3.015  27.900  0.00  0.00    -0.358 N 
ATOM     15  H   UNL     1       4.346  -2.770  28.814  0.00  0.00    +0.142 HD
ATOM     16  H   UNL     1       4.035  -3.500  27.329  0.00  0.00    +0.142 HD
ENDBRANCH  11  14
ENDBRANCH   2   8
BRANCH   5  17
ATOM     17  N   UNL     1       8.803   4.693  23.160  0.00  0.00    -0.214 N 
ATOM     18  H   UNL     1       9.552   5.195  23.648  0.00  0.00    +0.174 HD
BRANCH  17  19
ATOM     19  S   UNL     1       7.496   5.745  23.008  0.00  0.00    +0.040 S 
ATOM     20  O   UNL     1       6.297   5.045  23.404  0.00  0.00    -0.155 OA
ATOM     21  O   UNL     1       7.630   6.329  21.688  0.00  0.00    -0.155 OA
ATOM     22  C   UNL     1       7.808   7.052  24.185  0.00  0.00    +0.218 C 
ENDBRANCH  17  19
ENDBRANCH   5  17
BRANCH   1  23
ATOM     23  C   UNL     1       6.901   0.286  22.575  0.00  0.00    +0.222 C 
BRANCH  23  26
ATOM     24  N   UNL     1       6.688  -2.172  22.798  0.00  0.00    -0.304 N 
ATOM     25  H   UNL     1       5.684  -2.015  22.865  0.00  0.00    +0.149 HD
ATOM     26  C   UNL     1       7.543  -1.104  22.661  0.00  0.00    +0.234 C 
ATOM     27  O   UNL     1       8.761  -1.245  22.570  0.00  0.00    -0.274 OA
BRANCH  24  28
ATOM     28  C   UNL     1       7.140  -3.570  22.843  0.00  0.00    +0.151 C 
BRANCH  28  29
ATOM     29  C   UNL     1       7.266  -4.046  24.309  0.00  0.00    +0.011 C 
ATOM     30  C   UNL     1       8.450  -5.003  24.507  0.00  0.00    +0.009 C 
ATOM     31  C   UNL     1       6.003  -4.751  24.808  0.00  0.00    +0.009 C 
ENDBRANCH  28  29
BRANCH  28  32
ATOM     32  C   UNL     1       6.083  -4.368  22.065  0.00  0.00    +0.256 C 
ATOM     33  O   UNL     1       4.911  -3.968  22.014  0.00  0.00    -0.286 OA
BRANCH  32  34
ATOM     34  C   UNL     1       6.551  -5.659  21.410  0.00  0.00    +0.453 C 
ATOM     35  F   UNL     1       6.032  -5.833  20.165  0.00  0.00    -0.163 F 
ATOM     36  F   UNL     1       6.196  -6.758  22.132  0.00  0.00    -0.163 F 
ATOM     37  F   UNL     1       7.903  -5.724  21.265  0.00  0.00    -0.163 F 
ENDBRANCH  32  34
ENDBRANCH  28  32
ENDBRANCH  24  28
ENDBRANCH  23  26
ENDBRANCH   1  23
TORSDOF 10
ENDMDL
