MODEL 1
REMARK VINA RESULT:      -6.3      0.000      0.000
REMARK  Name = 
REMARK  5 active torsions:
REMARK  status: ('A' for Active; 'I' for Inactive)
REMARK    1  A    between atoms: O_1  and  C_2
REMARK    2  A    between atoms: C_2  and  C_4
REMARK    3  A    between atoms: C_9  and  N_10
REMARK    4  A    between atoms: N_10  and  C_11
REMARK    5  A    between atoms: C_12  and  C_17
REMARK                            x       y       z     vdW  Elec       q    Type
REMARK                         _______ _______ _______ _____ _____    ______ ____
ROOT
ATOM      1  N   UNL     1       9.379  -2.806  23.779  0.00  0.00    -0.313 N 
ATOM      2  H   UNL     1       9.994  -3.390  24.354  0.00  0.00    +0.152 HD
ENDROOT
BRANCH   1   4
ATOM      3  C   UNL     1       7.848  -4.732  24.004  0.00  0.00    +0.080 A 
ATOM      4  C   UNL     1       8.212  -3.513  23.387  0.00  0.00    +0.045 A 
ATOM      5  C   UNL     1       7.380  -3.017  22.372  0.00  0.00    +0.024 A 
ATOM      6  C   UNL     1       6.250  -3.721  21.949  0.00  0.00    +0.002 A 
ATOM      7  C   UNL     1       5.926  -4.940  22.535  0.00  0.00    +0.001 A 
ATOM      8  C   UNL     1       6.716  -5.439  23.568  0.00  0.00    +0.017 A 
BRANCH   3   9
ATOM      9  C   UNL     1       8.610  -5.349  25.123  0.00  0.00    +0.339 C 
ATOM     10  O   UNL     1       8.078  -5.728  26.153  0.00  0.00    -0.245 OA
BRANCH   9  11
ATOM     11  O   UNL     1       9.927  -5.498  24.874  0.00  0.00    -0.477 OA
ATOM     12  H   UNL     1      10.110  -5.906  24.002  0.00  0.00    +0.295 HD
ENDBRANCH   9  11
ENDBRANCH   3   9
ENDBRANCH   1   4
BRANCH   1  13
ATOM     13  C   UNL     1       9.556  -1.408  23.944  0.00  0.00    +0.043 A 
ATOM     14  C   UNL     1      10.147  -0.649  22.918  0.00  0.00    +0.024 A 
ATOM     15  C   UNL     1      10.445   0.706  23.082  0.00  0.00    +0.002 A 
ATOM     16  C   UNL     1      10.178   1.331  24.291  0.00  0.00    +0.001 A 
ATOM     17  C   UNL     1       9.548   0.618  25.304  0.00  0.00    +0.014 A 
ATOM     18  C   UNL     1       9.197  -0.737  25.138  0.00  0.00    +0.076 A 
BRANCH  18  19
ATOM     19  C   UNL     1       8.406  -1.385  26.246  0.00  0.00    +0.419 C 
ATOM     20  F   UNL     1       7.134  -1.681  25.860  0.00  0.00    -0.166 F 
ATOM     21  F   UNL     1       8.291  -0.587  27.341  0.00  0.00    -0.166 F 
ATOM     22  F   UNL     1       8.937  -2.559  26.700  0.00  0.00    -0.166 F 
ENDBRANCH  18  19
ENDBRANCH   1  13
TORSDOF 5
ENDMDL
MODEL 2
REMARK VINA RESULT:      -6.3      2.119      5.091
REMARK  Name = 
REMARK  5 active torsions:
REMARK  status: ('A' for Active; 'I' for Inactive)
REMARK    1  A    between atoms: O_1  and  C_2
REMARK    2  A    between atoms: C_2  and  C_4
REMARK    3  A    between atoms: C_9  and  N_10
REMARK    4  A    between atoms: N_10  and  C_11
REMARK    5  A    between atoms: C_12  and  C_17
REMARK                            x       y       z     vdW  Elec       q    Type
REMARK                         _______ _______ _______ _____ _____    ______ ____
ROOT
ATOM      1  N   UNL     1       7.429  -2.035  24.020  0.00  0.00    -0.313 N 
ATOM      2  H   UNL     1       6.935  -2.017  24.917  0.00  0.00    +0.152 HD
ENDROOT
BRANCH   1   4
ATOM      3  C   UNL     1       8.981  -0.517  25.199  0.00  0.00    +0.080 A 
ATOM      4  C   UNL     1       8.514  -1.119  24.008  0.00  0.00    +0.045 A 
ATOM      5  C   UNL     1       9.159  -0.788  22.807  0.00  0.00    +0.024 A 
ATOM      6  C   UNL     1      10.202   0.141  22.775  0.00  0.00    +0.002 A 
ATOM      7  C   UNL     1      10.625   0.759  23.947  0.00  0.00    +0.001 A 
ATOM      8  C   UNL     1      10.025   0.423  25.158  0.00  0.00    +0.017 A 
BRANCH   3   9
ATOM      9  C   UNL     1       8.424  -0.813  26.546  0.00  0.00    +0.339 C 
ATOM     10  O   UNL     1       7.313  -1.288  26.710  0.00  0.00    -0.245 OA
BRANCH   9  11
ATOM     11  O   UNL     1       9.275  -0.560  27.560  0.00  0.00    -0.477 OA
ATOM     12  H   UNL     1       9.453   0.396  27.685  0.00  0.00    +0.295 HD
ENDBRANCH   9  11
ENDBRANCH   3   9
ENDBRANCH   1   4
BRANCH   1  13
ATOM     13  C   UNL     1       7.270  -3.232  23.275  0.00  0.00    +0.043 A 
ATOM     14  C   UNL     1       6.433  -3.249  22.144  0.00  0.00    +0.024 A 
ATOM     15  C   UNL     1       6.156  -4.428  21.450  0.00  0.00    +0.002 A 
ATOM     16  C   UNL     1       6.695  -5.630  21.885  0.00  0.00    +0.001 A 
ATOM     17  C   UNL     1       7.565  -5.635  22.970  0.00  0.00    +0.014 A 
ATOM     18  C   UNL     1       7.893  -4.445  23.652  0.00  0.00    +0.076 A 
BRANCH  18  19
ATOM     19  C   UNL     1       8.941  -4.537  24.732  0.00  0.00    +0.419 C 
ATOM     20  F   UNL     1       9.402  -5.809  24.890  0.00  0.00    -0.166 F 
ATOM     21  F   UNL     1       8.471  -4.153  25.950  0.00  0.00    -0.166 F 
ATOM     22  F   UNL     1      10.047  -3.769  24.506  0.00  0.00    -0.166 F 
ENDBRANCH  18  19
ENDBRANCH   1  13
TORSDOF 5
ENDMDL
MODEL 3
REMARK VINA RESULT:      -6.1      3.351      4.048
REMARK  Name = 
REMARK  5 active torsions:
REMARK  status: ('A' for Active; 'I' for Inactive)
REMARK    1  A    between atoms: O_1  and  C_2
REMARK    2  A    between atoms: C_2  and  C_4
REMARK    3  A    between atoms: C_9  and  N_10
REMARK    4  A    between atoms: N_10  and  C_11
REMARK    5  A    between atoms: C_12  and  C_17
REMARK                            x       y       z     vdW  Elec       q    Type
REMARK                         _______ _______ _______ _____ _____    ______ ____
ROOT
ATOM      1  N   UNL     1       7.613  -1.639  22.509  0.00  0.00    -0.313 N 
ATOM      2  H   UNL     1       7.867  -1.670  21.517  0.00  0.00    +0.152 HD
ENDROOT
BRANCH   1   4
ATOM      3  C   UNL     1       7.346  -4.063  22.904  0.00  0.00    +0.080 A 
ATOM      4  C   UNL     1       7.990  -2.835  23.176  0.00  0.00    +0.045 A 
ATOM      5  C   UNL     1       9.022  -2.831  24.127  0.00  0.00    +0.024 A 
ATOM      6  C   UNL     1       9.377  -3.991  24.820  0.00  0.00    +0.002 A 
ATOM      7  C   UNL     1       8.707  -5.185  24.573  0.00  0.00    +0.001 A 
ATOM      8  C   UNL     1       7.702  -5.225  23.610  0.00  0.00    +0.017 A 
BRANCH   3   9
ATOM      9  C   UNL     1       6.271  -4.223  21.888  0.00  0.00    +0.339 C 
ATOM     10  O   UNL     1       5.379  -3.406  21.738  0.00  0.00    -0.245 OA
BRANCH   9  11
ATOM     11  O   UNL     1       6.404  -5.320  21.116  0.00  0.00    -0.477 OA
ATOM     12  H   UNL     1       5.546  -5.715  20.855  0.00  0.00    +0.295 HD
ENDBRANCH   9  11
ENDBRANCH   3   9
ENDBRANCH   1   4
BRANCH   1  13
ATOM     13  C   UNL     1       7.456  -0.336  23.047  0.00  0.00    +0.043 A 
ATOM     14  C   UNL     1       6.406  -0.068  23.944  0.00  0.00    +0.024 A 
ATOM     15  C   UNL     1       6.143   1.223  24.407  0.00  0.00    +0.002 A 
ATOM     16  C   UNL     1       6.914   2.287  23.963  0.00  0.00    +0.001 A 
ATOM     17  C   UNL     1       7.989   2.044  23.115  0.00  0.00    +0.014 A 
ATOM     18  C   UNL     1       8.297   0.741  22.677  0.00  0.00    +0.076 A 
BRANCH  18  19
ATOM     19  C   UNL     1       9.554   0.567  21.863  0.00  0.00    +0.419 C 
ATOM     20  F   UNL     1      10.462  -0.233  22.489  0.00  0.00    -0.166 F 
ATOM     21  F   UNL     1      10.191   1.746  21.628  0.00  0.00    -0.166 F 
ATOM     22  F   UNL     1       9.353   0.006  20.634  0.00  0.00    -0.166 F 
ENDBRANCH  18  19
ENDBRANCH   1  13
TORSDOF 5
ENDMDL
MODEL 4
REMARK VINA RESULT:      -6.1      2.771      3.205
REMARK  Name = 
REMARK  5 active torsions:
REMARK  status: ('A' for Active; 'I' for Inactive)
REMARK    1  A    between atoms: O_1  and  C_2
REMARK    2  A    between atoms: C_2  and  C_4
REMARK    3  A    between atoms: C_9  and  N_10
REMARK    4  A    between atoms: N_10  and  C_11
REMARK    5  A    between atoms: C_12  and  C_17
REMARK                            x       y       z     vdW  Elec       q    Type
REMARK                         _______ _______ _______ _____ _____    ______ ____
ROOT
ATOM      1  N   UNL     1       8.217  -1.990  23.852  0.00  0.00    -0.313 N 
ATOM      2  H   UNL     1       8.748  -2.166  24.710  0.00  0.00    +0.152 HD
ENDROOT
BRANCH   1   4
ATOM      3  C   UNL     1       8.129  -4.458  23.793  0.00  0.00    +0.080 A 
ATOM      4  C   UNL     1       7.739  -3.199  23.281  0.00  0.00    +0.045 A 
ATOM      5  C   UNL     1       6.857  -3.178  22.190  0.00  0.00    +0.024 A 
ATOM      6  C   UNL     1       6.410  -4.359  21.594  0.00  0.00    +0.002 A 
ATOM      7  C   UNL     1       6.834  -5.592  22.080  0.00  0.00    +0.001 A 
ATOM      8  C   UNL     1       7.682  -5.642  23.183  0.00  0.00    +0.017 A 
BRANCH   3   9
ATOM      9  C   UNL     1       9.018  -4.629  24.973  0.00  0.00    +0.339 C 
ATOM     10  O   UNL     1       8.838  -4.039  26.025  0.00  0.00    -0.245 OA
BRANCH   9  11
ATOM     11  O   UNL     1      10.003  -5.531  24.792  0.00  0.00    -0.477 OA
ATOM     12  H   UNL     1      10.454  -5.441  23.926  0.00  0.00    +0.295 HD
ENDBRANCH   9  11
ENDBRANCH   3   9
ENDBRANCH   1   4
BRANCH   1  13
ATOM     13  C   UNL     1       7.677  -0.682  23.740  0.00  0.00    +0.043 A 
ATOM     14  C   UNL     1       6.589  -0.301  24.545  0.00  0.00    +0.024 A 
ATOM     15  C   UNL     1       5.952   0.932  24.388  0.00  0.00    +0.002 A 
ATOM     16  C   UNL     1       6.378   1.810  23.402  0.00  0.00    +0.001 A 
ATOM     17  C   UNL     1       7.483   1.480  22.626  0.00  0.00    +0.014 A 
ATOM     18  C   UNL     1       8.167   0.259  22.804  0.00  0.00    +0.076 A 
BRANCH  18  19
ATOM     19  C   UNL     1       9.425   0.051  22.001  0.00  0.00    +0.419 C 
ATOM     20  F   UNL     1       9.264  -0.894  21.033  0.00  0.00    -0.166 F 
ATOM     21  F   UNL     1      10.470  -0.368  22.765  0.00  0.00    -0.166 F 
ATOM     22  F   UNL     1       9.868   1.170  21.354  0.00  0.00    -0.166 F 
ENDBRANCH  18  19
ENDBRANCH   1  13
TORSDOF 5
ENDMDL
MODEL 5
REMARK VINA RESULT:      -6.1      2.953      5.506
REMARK  Name = 
REMARK  5 active torsions:
REMARK  status: ('A' for Active; 'I' for Inactive)
REMARK    1  A    between atoms: O_1  and  C_2
REMARK    2  A    between atoms: C_2  and  C_4
REMARK    3  A    between atoms: C_9  and  N_10
REMARK    4  A    between atoms: N_10  and  C_11
REMARK    5  A    between atoms: C_12  and  C_17
REMARK                            x       y       z     vdW  Elec       q    Type
REMARK                         _______ _______ _______ _____ _____    ______ ____
ROOT
ATOM      1  N   UNL     1       7.265  -1.731  23.574  0.00  0.00    -0.313 N 
ATOM      2  H   UNL     1       7.141  -1.645  24.587  0.00  0.00    +0.152 HD
ENDROOT
BRANCH   1   4
ATOM      3  C   UNL     1       7.647   0.707  23.468  0.00  0.00    +0.080 A 
ATOM      4  C   UNL     1       7.945  -0.606  23.038  0.00  0.00    +0.045 A 
ATOM      5  C   UNL     1       8.942  -0.768  22.064  0.00  0.00    +0.024 A 
ATOM      6  C   UNL     1       9.592   0.332  21.499  0.00  0.00    +0.002 A 
ATOM      7  C   UNL     1       9.259   1.622  21.899  0.00  0.00    +0.001 A 
ATOM      8  C   UNL     1       8.298   1.810  22.889  0.00  0.00    +0.017 A 
BRANCH   3   9
ATOM      9  C   UNL     1       6.649   1.022  24.526  0.00  0.00    +0.339 C 
ATOM     10  O   UNL     1       6.925   1.675  25.518  0.00  0.00    -0.245 OA
BRANCH   9  11
ATOM     11  O   UNL     1       5.408   0.568  24.262  0.00  0.00    -0.477 OA
ATOM     12  H   UNL     1       4.988   0.125  25.030  0.00  0.00    +0.295 HD
ENDBRANCH   9  11
ENDBRANCH   3   9
ENDBRANCH   1   4
BRANCH   1  13
ATOM     13  C   UNL     1       7.220  -3.059  23.078  0.00  0.00    +0.043 A 
ATOM     14  C   UNL     1       6.324  -3.393  22.046  0.00  0.00    +0.024 A 
ATOM     15  C   UNL     1       6.162  -4.709  21.606  0.00  0.00    +0.002 A 
ATOM     16  C   UNL     1       6.882  -5.732  22.207  0.00  0.00    +0.001 A 
ATOM     17  C   UNL     1       7.810  -5.424  23.195  0.00  0.00    +0.014 A 
ATOM     18  C   UNL     1       8.020  -4.095  23.616  0.00  0.00    +0.076 A 
BRANCH  18  19
ATOM     19  C   UNL     1       9.136  -3.852  24.600  0.00  0.00    +0.419 C 
ATOM     20  F   UNL     1      10.137  -3.101  24.063  0.00  0.00    -0.166 F 
ATOM     21  F   UNL     1       9.718  -5.006  25.026  0.00  0.00    -0.166 F 
ATOM     22  F   UNL     1       8.749  -3.196  25.734  0.00  0.00    -0.166 F 
ENDBRANCH  18  19
ENDBRANCH   1  13
TORSDOF 5
ENDMDL
MODEL 6
REMARK VINA RESULT:      -6.0      3.159      5.521
REMARK  Name = 
REMARK  5 active torsions:
REMARK  status: ('A' for Active; 'I' for Inactive)
REMARK    1  A    between atoms: O_1  and  C_2
REMARK    2  A    between atoms: C_2  and  C_4
REMARK    3  A    between atoms: C_9  and  N_10
REMARK    4  A    between atoms: N_10  and  C_11
REMARK    5  A    between atoms: C_12  and  C_17
REMARK                            x       y       z     vdW  Elec       q    Type
REMARK                         _______ _______ _______ _____ _____    ______ ____
ROOT
ATOM      1  N   UNL     1       7.970  -1.630  22.428  0.00  0.00    -0.313 N 
ATOM      2  H   UNL     1       8.317  -1.407  21.490  0.00  0.00    +0.152 HD
ENDROOT
BRANCH   1   4
ATOM      3  C   UNL     1       8.076   0.798  22.871  0.00  0.00    +0.080 A 
ATOM      4  C   UNL     1       7.491  -0.470  23.092  0.00  0.00    +0.045 A 
ATOM      5  C   UNL     1       6.414  -0.550  23.988  0.00  0.00    +0.024 A 
ATOM      6  C   UNL     1       5.957   0.576  24.678  0.00  0.00    +0.002 A 
ATOM      7  C   UNL     1       6.568   1.810  24.484  0.00  0.00    +0.001 A 
ATOM      8  C   UNL     1       7.617   1.925  23.574  0.00  0.00    +0.017 A 
BRANCH   3   9
ATOM      9  C   UNL     1       9.189   1.037  21.914  0.00  0.00    +0.339 C 
ATOM     10  O   UNL     1       9.952   0.155  21.556  0.00  0.00    -0.245 OA
BRANCH   9  11
ATOM     11  O   UNL     1       9.245   2.298  21.440  0.00  0.00    -0.477 OA
ATOM     12  H   UNL     1       8.888   2.962  22.067  0.00  0.00    +0.295 HD
ENDBRANCH   9  11
ENDBRANCH   3   9
ENDBRANCH   1   4
BRANCH   1  13
ATOM     13  C   UNL     1       7.586  -2.982  22.617  0.00  0.00    +0.043 A 
ATOM     14  C   UNL     1       6.561  -3.538  21.830  0.00  0.00    +0.024 A 
ATOM     15  C   UNL     1       6.072  -4.826  22.059  0.00  0.00    +0.002 A 
ATOM     16  C   UNL     1       6.584  -5.585  23.101  0.00  0.00    +0.001 A 
ATOM     17  C   UNL     1       7.631  -5.080  23.864  0.00  0.00    +0.014 A 
ATOM     18  C   UNL     1       8.169  -3.801  23.615  0.00  0.00    +0.076 A 
BRANCH  18  19
ATOM     19  C   UNL     1       9.382  -3.396  24.412  0.00  0.00    +0.419 C 
ATOM     20  F   UNL     1       9.954  -4.457  25.046  0.00  0.00    -0.166 F 
ATOM     21  F   UNL     1       9.091  -2.490  25.384  0.00  0.00    -0.166 F 
ATOM     22  F   UNL     1      10.378  -2.830  23.668  0.00  0.00    -0.166 F 
ENDBRANCH  18  19
ENDBRANCH   1  13
TORSDOF 5
ENDMDL
MODEL 7
REMARK VINA RESULT:      -5.9      2.730      5.448
REMARK  Name = 
REMARK  5 active torsions:
REMARK  status: ('A' for Active; 'I' for Inactive)
REMARK    1  A    between atoms: O_1  and  C_2
REMARK    2  A    between atoms: C_2  and  C_4
REMARK    3  A    between atoms: C_9  and  N_10
REMARK    4  A    between atoms: N_10  and  C_11
REMARK    5  A    between atoms: C_12  and  C_17
REMARK                            x       y       z     vdW  Elec       q    Type
REMARK                         _______ _______ _______ _____ _____    ______ ____
ROOT
ATOM      1  N   UNL     1       7.546  -1.453  24.065  0.00  0.00    -0.313 N 
ATOM      2  H   UNL     1       6.557  -1.214  23.946  0.00  0.00    +0.152 HD
ENDROOT
BRANCH   1   4
ATOM      3  C   UNL     1       9.537  -0.216  23.284  0.00  0.00    +0.080 A 
ATOM      4  C   UNL     1       8.363  -0.292  24.069  0.00  0.00    +0.045 A 
ATOM      5  C   UNL     1       8.025   0.820  24.854  0.00  0.00    +0.024 A 
ATOM      6  C   UNL     1       8.840   1.954  24.899  0.00  0.00    +0.002 A 
ATOM      7  C   UNL     1      10.014   2.001  24.155  0.00  0.00    +0.001 A 
ATOM      8  C   UNL     1      10.357   0.924  23.340  0.00  0.00    +0.017 A 
BRANCH   3   9
ATOM      9  C   UNL     1       9.990  -1.299  22.371  0.00  0.00    +0.339 C 
ATOM     10  O   UNL     1      10.506  -2.328  22.773  0.00  0.00    -0.245 OA
BRANCH   9  11
ATOM     11  O   UNL     1       9.729  -1.064  21.069  0.00  0.00    -0.477 OA
ATOM     12  H   UNL     1      10.538  -0.927  20.533  0.00  0.00    +0.295 HD
ENDBRANCH   9  11
ENDBRANCH   3   9
ENDBRANCH   1   4
BRANCH   1  13
ATOM     13  C   UNL     1       7.788  -2.710  24.677  0.00  0.00    +0.043 A 
ATOM     14  C   UNL     1       8.322  -2.766  25.977  0.00  0.00    +0.024 A 
ATOM     15  C   UNL     1       8.684  -3.976  26.574  0.00  0.00    +0.002 A 
ATOM     16  C   UNL     1       8.538  -5.164  25.872  0.00  0.00    +0.001 A 
ATOM     17  C   UNL     1       7.966  -5.142  24.605  0.00  0.00    +0.014 A 
ATOM     18  C   UNL     1       7.552  -3.935  24.007  0.00  0.00    +0.076 A 
BRANCH  18  19
ATOM     19  C   UNL     1       6.830  -4.031  22.688  0.00  0.00    +0.419 C 
ATOM     20  F   UNL     1       6.743  -5.316  22.245  0.00  0.00    -0.166 F 
ATOM     21  F   UNL     1       7.453  -3.334  21.699  0.00  0.00    -0.166 F 
ATOM     22  F   UNL     1       5.547  -3.562  22.716  0.00  0.00    -0.166 F 
ENDBRANCH  18  19
ENDBRANCH   1  13
TORSDOF 5
ENDMDL
MODEL 8
REMARK VINA RESULT:      -5.9      2.230      2.932
REMARK  Name = 
REMARK  5 active torsions:
REMARK  status: ('A' for Active; 'I' for Inactive)
REMARK    1  A    between atoms: O_1  and  C_2
REMARK    2  A    between atoms: C_2  and  C_4
REMARK    3  A    between atoms: C_9  and  N_10
REMARK    4  A    between atoms: N_10  and  C_11
REMARK    5  A    between atoms: C_12  and  C_17
REMARK                            x       y       z     vdW  Elec       q    Type
REMARK                         _______ _______ _______ _____ _____    ______ ____
ROOT
ATOM      1  N   UNL     1       8.425  -3.488  24.573  0.00  0.00    -0.313 N 
ATOM      2  H   UNL     1       9.207  -4.085  24.860  0.00  0.00    +0.152 HD
ENDROOT
BRANCH   1   4
ATOM      3  C   UNL     1       6.741  -5.078  25.433  0.00  0.00    +0.080 A 
ATOM      4  C   UNL     1       7.234  -4.243  24.405  0.00  0.00    +0.045 A 
ATOM      5  C   UNL     1       6.506  -4.176  23.207  0.00  0.00    +0.024 A 
ATOM      6  C   UNL     1       5.354  -4.942  23.013  0.00  0.00    +0.002 A 
ATOM      7  C   UNL     1       4.902  -5.792  24.016  0.00  0.00    +0.001 A 
ATOM      8  C   UNL     1       5.586  -5.852  25.228  0.00  0.00    +0.017 A 
BRANCH   3   9
ATOM      9  C   UNL     1       7.383  -5.208  26.769  0.00  0.00    +0.339 C 
ATOM     10  O   UNL     1       6.820  -4.893  27.804  0.00  0.00    -0.245 OA
BRANCH   9  11
ATOM     11  O   UNL     1       8.615  -5.753  26.735  0.00  0.00    -0.477 OA
ATOM     12  H   UNL     1       8.708  -6.534  27.320  0.00  0.00    +0.295 HD
ENDBRANCH   9  11
ENDBRANCH   3   9
ENDBRANCH   1   4
BRANCH   1  13
ATOM     13  C   UNL     1       8.566  -2.116  24.905  0.00  0.00    +0.043 A 
ATOM     14  C   UNL     1       8.142  -1.650  26.162  0.00  0.00    +0.024 A 
ATOM     15  C   UNL     1       8.154  -0.292  26.488  0.00  0.00    +0.002 A 
ATOM     16  C   UNL     1       8.574   0.640  25.550  0.00  0.00    +0.001 A 
ATOM     17  C   UNL     1       9.045   0.203  24.317  0.00  0.00    +0.014 A 
ATOM     18  C   UNL     1       9.084  -1.168  23.990  0.00  0.00    +0.076 A 
BRANCH  18  19
ATOM     19  C   UNL     1       9.729  -1.546  22.681  0.00  0.00    +0.419 C 
ATOM     20  F   UNL     1       8.875  -2.230  21.870  0.00  0.00    -0.166 F 
ATOM     21  F   UNL     1      10.815  -2.349  22.846  0.00  0.00    -0.166 F 
ATOM     22  F   UNL     1      10.166  -0.483  21.945  0.00  0.00    -0.166 F 
ENDBRANCH  18  19
ENDBRANCH   1  13
TORSDOF 5
ENDMDL
MODEL 9
REMARK VINA RESULT:      -5.9      2.625      5.262
REMARK  Name = 
REMARK  5 active torsions:
REMARK  status: ('A' for Active; 'I' for Inactive)
REMARK    1  A    between atoms: O_1  and  C_2
REMARK    2  A    between atoms: C_2  and  C_4
REMARK    3  A    between atoms: C_9  and  N_10
REMARK    4  A    between atoms: N_10  and  C_11
REMARK    5  A    between atoms: C_12  and  C_17
REMARK                            x       y       z     vdW  Elec       q    Type
REMARK                         _______ _______ _______ _____ _____    ______ ____
ROOT
ATOM      1  N   UNL     1       7.708  -3.251  24.101  0.00  0.00    -0.313 N 
ATOM      2  H   UNL     1       8.613  -3.505  24.507  0.00  0.00    +0.152 HD
ENDROOT
BRANCH   1   4
ATOM      3  C   UNL     1       8.626  -1.142  23.198  0.00  0.00    +0.080 A 
ATOM      4  C   UNL     1       7.613  -1.850  23.885  0.00  0.00    +0.045 A 
ATOM      5  C   UNL     1       6.503  -1.127  24.346  0.00  0.00    +0.024 A 
ATOM      6  C   UNL     1       6.415   0.257  24.176  0.00  0.00    +0.002 A 
ATOM      7  C   UNL     1       7.438   0.949  23.536  0.00  0.00    +0.001 A 
ATOM      8  C   UNL     1       8.535   0.251  23.038  0.00  0.00    +0.017 A 
BRANCH   3   9
ATOM      9  C   UNL     1       9.832  -1.787  22.614  0.00  0.00    +0.339 C 
ATOM     10  O   UNL     1      10.517  -2.585  23.232  0.00  0.00    -0.245 OA
BRANCH   9  11
ATOM     11  O   UNL     1      10.066  -1.453  21.329  0.00  0.00    -0.477 OA
ATOM     12  H   UNL     1      10.742  -0.750  21.231  0.00  0.00    +0.295 HD
ENDBRANCH   9  11
ENDBRANCH   3   9
ENDBRANCH   1   4
BRANCH   1  13
ATOM     13  C   UNL     1       7.043  -4.300  23.416  0.00  0.00    +0.043 A 
ATOM     14  C   UNL     1       7.099  -4.369  22.012  0.00  0.00    +0.024 A 
ATOM     15  C   UNL     1       6.367  -5.314  21.290  0.00  0.00    +0.002 A 
ATOM     16  C   UNL     1       5.539  -6.204  21.958  0.00  0.00    +0.001 A 
ATOM     17  C   UNL     1       5.503  -6.192  23.348  0.00  0.00    +0.014 A 
ATOM     18  C   UNL     1       6.273  -5.275  24.093  0.00  0.00    +0.076 A 
BRANCH  18  19
ATOM     19  C   UNL     1       6.261  -5.425  25.593  0.00  0.00    +0.419 C 
ATOM     20  F   UNL     1       5.531  -6.503  25.993  0.00  0.00    -0.166 F 
ATOM     21  F   UNL     1       5.717  -4.349  26.222  0.00  0.00    -0.166 F 
ATOM     22  F   UNL     1       7.497  -5.590  26.149  0.00  0.00    -0.166 F 
ENDBRANCH  18  19
ENDBRANCH   1  13
TORSDOF 5
ENDMDL
