MODEL 1
REMARK VINA RESULT:      -7.3      0.000      0.000
REMARK  Name = 
REMARK  18 active torsions:
REMARK  status: ('A' for Active; 'I' for Inactive)
REMARK    1  A    between atoms: C_1  and  C_2
REMARK    2  A    between atoms: C_5  and  O_7
REMARK    3  A    between atoms: O_7  and  C_8
REMARK    4  A    between atoms: C_10  and  O_12
REMARK    5  A    between atoms: C_13  and  O_15
REMARK    6  A    between atoms: C_16  and  C_18
REMARK    7  A    between atoms: C_18  and  O_19
REMARK    8  A    between atoms: C_21  and  O_23
REMARK    9  A    between atoms: O_23  and  C_24
REMARK   10  A    between atoms: C_26  and  O_28
REMARK   11  A    between atoms: C_29  and  N_31
REMARK   12  A    between atoms: C_32  and  C_33
REMARK   13  A    between atoms: C_35  and  O_37
REMARK   14  A    between atoms: C_39  and  C_41
REMARK   15  A    between atoms: C_41  and  O_42
REMARK   16  A    between atoms: C_43  and  O_45
REMARK   17  A    between atoms: C_46  and  O_48
REMARK   18  A    between atoms: C_49  and  O_51
REMARK                            x       y       z     vdW  Elec       q    Type
REMARK                         _______ _______ _______ _____ _____    ______ ____
ROOT
ATOM      1  C   UNL     1       5.580  -2.063  24.712  0.00  0.00    +0.208 C 
ATOM      2  C   UNL     1       6.280  -1.645  23.389  0.00  0.00    +0.283 C 
ATOM      3  O   UNL     1       5.958  -2.556  22.299  0.00  0.00    -0.341 OA
ATOM      4  C   UNL     1       6.158  -3.950  22.694  0.00  0.00    +0.178 C 
ATOM      5  C   UNL     1       5.023  -4.416  23.577  0.00  0.00    +0.177 C 
ATOM      6  C   UNL     1       5.091  -3.534  24.837  0.00  0.00    +0.179 C 
ENDROOT
BRANCH   6   7
ATOM      7  O   UNL     1       3.964  -3.675  25.698  0.00  0.00    -0.386 OA
ATOM      8  H   UNL     1       4.321  -3.721  26.607  0.00  0.00    +0.210 HD
ENDBRANCH   6   7
BRANCH   5   9
ATOM      9  O   UNL     1       3.787  -4.455  22.898  0.00  0.00    -0.386 OA
ATOM     10  H   UNL     1       3.920  -4.896  22.048  0.00  0.00    +0.210 HD
ENDBRANCH   5   9
BRANCH   2  11
ATOM     11  O   UNL     1       6.322  -0.177  23.140  0.00  0.00    -0.340 OA
BRANCH  11  12
ATOM     12  C   UNL     1       7.707   0.378  23.016  0.00  0.00    +0.183 C 
ATOM     13  C   UNL     1       8.336   1.142  24.293  0.00  0.00    +0.178 C 
ATOM     14  O   UNL     1       7.911   2.507  24.495  0.00  0.00    -0.341 OA
ATOM     15  C   UNL     1       7.793   3.332  23.341  0.00  0.00    +0.270 C 
ATOM     16  C   UNL     1       6.884   2.626  22.316  0.00  0.00    +0.160 C 
ATOM     17  C   UNL     1       7.661   1.364  21.838  0.00  0.00    +0.171 C 
BRANCH  16  18
ATOM     18  N   UNL     1       5.570   2.245  22.920  0.00  0.00    -0.305 N 
ATOM     19  H   UNL     1       5.589   1.427  23.515  0.00  0.00    +0.149 HD
ATOM     20  C   UNL     1       4.508   3.045  23.287  0.00  0.00    +0.210 C 
ATOM     21  O   UNL     1       3.697   2.598  24.122  0.00  0.00    -0.276 OA
ATOM     22  C   UNL     1       4.331   4.359  22.639  0.00  0.00    +0.109 C 
ENDBRANCH  16  18
BRANCH  17  23
ATOM     23  O   UNL     1       8.980   1.689  21.375  0.00  0.00    -0.387 OA
ATOM     24  H   UNL     1       9.331   2.428  21.907  0.00  0.00    +0.210 HD
ENDBRANCH  17  23
BRANCH  15  25
ATOM     25  O   UNL     1       9.059   3.733  22.829  0.00  0.00    -0.365 OA
ATOM     26  H   UNL     1       8.932   3.979  21.887  0.00  0.00    +0.213 HD
ENDBRANCH  15  25
BRANCH  13  27
ATOM     27  C   UNL     1       9.901   1.154  24.307  0.00  0.00    +0.190 C 
BRANCH  27  28
ATOM     28  O   UNL     1      10.441   0.444  25.429  0.00  0.00    -0.392 OA
ATOM     29  H   UNL     1      10.892  -0.343  25.065  0.00  0.00    +0.210 HD
ENDBRANCH  27  28
ENDBRANCH  13  27
ENDBRANCH  11  12
ENDBRANCH   2  11
BRANCH   4  30
ATOM     30  C   UNL     1       6.545  -4.984  21.627  0.00  0.00    +0.190 C 
BRANCH  30  31
ATOM     31  O   UNL     1       5.807  -6.195  21.837  0.00  0.00    -0.392 OA
ATOM     32  H   UNL     1       5.017  -5.958  22.361  0.00  0.00    +0.210 HD
ENDBRANCH  30  31
ENDBRANCH   4  30
BRANCH   1  33
ATOM     33  O   UNL     1       6.428  -1.764  25.860  0.00  0.00    -0.338 OA
BRANCH  33  39
ATOM     34  C   UNL     1      10.412  -2.602  23.448  0.00  0.00    +0.041 C 
ATOM     35  C   UNL     1       9.201  -3.083  24.238  0.00  0.00    +0.149 C 
ATOM     36  C   UNL     1       9.239  -4.537  24.706  0.00  0.00    +0.174 C 
ATOM     37  C   UNL     1       8.124  -4.896  25.698  0.00  0.00    +0.179 C 
ATOM     38  C   UNL     1       7.795  -3.796  26.724  0.00  0.00    +0.201 C 
ATOM     39  C   UNL     1       7.734  -2.369  26.103  0.00  0.00    +0.282 C 
ATOM     40  O   UNL     1       8.809  -2.090  25.195  0.00  0.00    -0.343 OA
BRANCH  36  41
ATOM     41  O   UNL     1      10.515  -4.886  25.217  0.00  0.00    -0.387 OA
ATOM     42  H   UNL     1      10.419  -5.819  25.495  0.00  0.00    +0.210 HD
ENDBRANCH  36  41
BRANCH  38  43
ATOM     43  O   UNL     1       6.597  -4.147  27.446  0.00  0.00    -0.384 OA
ATOM     44  H   UNL     1       6.869  -4.562  28.287  0.00  0.00    +0.210 HD
ENDBRANCH  38  43
BRANCH  37  45
ATOM     45  O   UNL     1       8.427  -6.140  26.351  0.00  0.00    -0.386 OA
ATOM     46  H   UNL     1       8.596  -5.912  27.287  0.00  0.00    +0.210 HD
ENDBRANCH  37  45
ENDBRANCH  33  39
ENDBRANCH   1  33
TORSDOF 16
ENDMDL
MODEL 2
REMARK VINA RESULT:      -7.1      1.495      2.170
REMARK  Name = 
REMARK  18 active torsions:
REMARK  status: ('A' for Active; 'I' for Inactive)
REMARK    1  A    between atoms: C_1  and  C_2
REMARK    2  A    between atoms: C_5  and  O_7
REMARK    3  A    between atoms: O_7  and  C_8
REMARK    4  A    between atoms: C_10  and  O_12
REMARK    5  A    between atoms: C_13  and  O_15
REMARK    6  A    between atoms: C_16  and  C_18
REMARK    7  A    between atoms: C_18  and  O_19
REMARK    8  A    between atoms: C_21  and  O_23
REMARK    9  A    between atoms: O_23  and  C_24
REMARK   10  A    between atoms: C_26  and  O_28
REMARK   11  A    between atoms: C_29  and  N_31
REMARK   12  A    between atoms: C_32  and  C_33
REMARK   13  A    between atoms: C_35  and  O_37
REMARK   14  A    between atoms: C_39  and  C_41
REMARK   15  A    between atoms: C_41  and  O_42
REMARK   16  A    between atoms: C_43  and  O_45
REMARK   17  A    between atoms: C_46  and  O_48
REMARK   18  A    between atoms: C_49  and  O_51
REMARK                            x       y       z     vdW  Elec       q    Type
REMARK                         _______ _______ _______ _____ _____    ______ ____
ROOT
ATOM      1  C   UNL     1       5.312  -2.287  24.267  0.00  0.00    +0.208 C 
ATOM      2  C   UNL     1       6.347  -2.258  23.107  0.00  0.00    +0.283 C 
ATOM      3  O   UNL     1       6.161  -3.376  22.191  0.00  0.00    -0.341 OA
ATOM      4  C   UNL     1       6.071  -4.645  22.912  0.00  0.00    +0.178 C 
ATOM      5  C   UNL     1       4.712  -4.791  23.555  0.00  0.00    +0.177 C 
ATOM      6  C   UNL     1       4.611  -3.641  24.574  0.00  0.00    +0.179 C 
ENDROOT
BRANCH   6   7
ATOM      7  O   UNL     1       3.308  -3.479  25.130  0.00  0.00    -0.386 OA
ATOM      8  H   UNL     1       3.357  -2.694  25.710  0.00  0.00    +0.210 HD
ENDBRANCH   6   7
BRANCH   5   9
ATOM      9  O   UNL     1       3.670  -4.892  22.610  0.00  0.00    -0.386 OA
ATOM     10  H   UNL     1       3.970  -4.494  21.782  0.00  0.00    +0.210 HD
ENDBRANCH   5   9
BRANCH   2  11
ATOM     11  O   UNL     1       6.647  -0.902  22.570  0.00  0.00    -0.340 OA
BRANCH  11  12
ATOM     12  C   UNL     1       8.105  -0.645  22.347  0.00  0.00    +0.183 C 
ATOM     13  C   UNL     1       9.146  -1.147  23.477  0.00  0.00    +0.178 C 
ATOM     14  O   UNL     1       9.276  -0.307  24.644  0.00  0.00    -0.341 OA
ATOM     15  C   UNL     1       9.296   1.101  24.437  0.00  0.00    +0.270 C 
ATOM     16  C   UNL     1       8.054   1.501  23.616  0.00  0.00    +0.160 C 
ATOM     17  C   UNL     1       8.246   0.878  22.202  0.00  0.00    +0.171 C 
BRANCH  16  18
ATOM     18  N   UNL     1       6.795   1.004  24.251  0.00  0.00    -0.305 N 
ATOM     19  H   UNL     1       6.923   0.338  25.001  0.00  0.00    +0.149 HD
ATOM     20  C   UNL     1       5.584   1.643  24.416  0.00  0.00    +0.210 C 
ATOM     21  O   UNL     1       4.815   1.224  25.303  0.00  0.00    -0.276 OA
ATOM     22  C   UNL     1       5.215   2.747  23.508  0.00  0.00    +0.109 C 
ENDBRANCH  16  18
BRANCH  17  23
ATOM     23  O   UNL     1       9.511   1.234  21.625  0.00  0.00    -0.387 OA
ATOM     24  H   UNL     1      10.214   1.095  22.288  0.00  0.00    +0.210 HD
ENDBRANCH  17  23
BRANCH  15  25
ATOM     25  O   UNL     1      10.533   1.552  23.896  0.00  0.00    -0.365 OA
ATOM     26  H   UNL     1      10.921   2.187  24.536  0.00  0.00    +0.213 HD
ENDBRANCH  15  25
BRANCH  13  27
ATOM     27  C   UNL     1      10.595  -1.383  22.932  0.00  0.00    +0.190 C 
BRANCH  27  28
ATOM     28  O   UNL     1      10.625  -1.517  21.505  0.00  0.00    -0.392 OA
ATOM     29  H   UNL     1       9.797  -1.973  21.255  0.00  0.00    +0.210 HD
ENDBRANCH  27  28
ENDBRANCH  13  27
ENDBRANCH  11  12
ENDBRANCH   2  11
BRANCH   4  30
ATOM     30  C   UNL     1       6.545  -5.934  22.224  0.00  0.00    +0.190 C 
BRANCH  30  31
ATOM     31  O   UNL     1       5.693  -6.228  21.110  0.00  0.00    -0.392 OA
ATOM     32  H   UNL     1       6.183  -5.974  20.304  0.00  0.00    +0.210 HD
ENDBRANCH  30  31
ENDBRANCH   4  30
BRANCH   1  33
ATOM     33  O   UNL     1       5.909  -1.791  25.501  0.00  0.00    -0.338 OA
BRANCH  33  39
ATOM     34  C   UNL     1       9.233  -5.151  25.270  0.00  0.00    +0.041 C 
ATOM     35  C   UNL     1       7.848  -4.667  25.682  0.00  0.00    +0.149 C 
ATOM     36  C   UNL     1       7.093  -5.553  26.672  0.00  0.00    +0.174 C 
ATOM     37  C   UNL     1       5.825  -4.903  27.240  0.00  0.00    +0.179 C 
ATOM     38  C   UNL     1       5.950  -3.398  27.541  0.00  0.00    +0.201 C 
ATOM     39  C   UNL     1       6.693  -2.604  26.426  0.00  0.00    +0.282 C 
ATOM     40  O   UNL     1       7.876  -3.257  25.945  0.00  0.00    -0.343 OA
BRANCH  36  41
ATOM     41  O   UNL     1       7.943  -6.017  27.708  0.00  0.00    -0.387 OA
ATOM     42  H   UNL     1       8.474  -6.724  27.289  0.00  0.00    +0.210 HD
ENDBRANCH  36  41
BRANCH  38  43
ATOM     43  O   UNL     1       4.651  -2.853  27.849  0.00  0.00    -0.384 OA
ATOM     44  H   UNL     1       4.682  -2.512  28.763  0.00  0.00    +0.210 HD
ENDBRANCH  38  43
BRANCH  37  45
ATOM     45  O   UNL     1       5.376  -5.627  28.397  0.00  0.00    -0.386 OA
ATOM     46  H   UNL     1       5.706  -5.123  29.168  0.00  0.00    +0.210 HD
ENDBRANCH  37  45
ENDBRANCH  33  39
ENDBRANCH   1  33
TORSDOF 16
ENDMDL
MODEL 3
REMARK VINA RESULT:      -7.0      1.500      3.918
REMARK  Name = 
REMARK  18 active torsions:
REMARK  status: ('A' for Active; 'I' for Inactive)
REMARK    1  A    between atoms: C_1  and  C_2
REMARK    2  A    between atoms: C_5  and  O_7
REMARK    3  A    between atoms: O_7  and  C_8
REMARK    4  A    between atoms: C_10  and  O_12
REMARK    5  A    between atoms: C_13  and  O_15
REMARK    6  A    between atoms: C_16  and  C_18
REMARK    7  A    between atoms: C_18  and  O_19
REMARK    8  A    between atoms: C_21  and  O_23
REMARK    9  A    between atoms: O_23  and  C_24
REMARK   10  A    between atoms: C_26  and  O_28
REMARK   11  A    between atoms: C_29  and  N_31
REMARK   12  A    between atoms: C_32  and  C_33
REMARK   13  A    between atoms: C_35  and  O_37
REMARK   14  A    between atoms: C_39  and  C_41
REMARK   15  A    between atoms: C_41  and  O_42
REMARK   16  A    between atoms: C_43  and  O_45
REMARK   17  A    between atoms: C_46  and  O_48
REMARK   18  A    between atoms: C_49  and  O_51
REMARK                            x       y       z     vdW  Elec       q    Type
REMARK                         _______ _______ _______ _____ _____    ______ ____
ROOT
ATOM      1  C   UNL     1       6.647  -3.506  22.851  0.00  0.00    +0.208 C 
ATOM      2  C   UNL     1       6.804  -2.350  23.878  0.00  0.00    +0.283 C 
ATOM      3  O   UNL     1       7.790  -2.671  24.902  0.00  0.00    -0.341 OA
ATOM      4  C   UNL     1       7.544  -3.990  25.483  0.00  0.00    +0.178 C 
ATOM      5  C   UNL     1       7.999  -5.077  24.537  0.00  0.00    +0.177 C 
ATOM      6  C   UNL     1       7.122  -4.923  23.280  0.00  0.00    +0.179 C 
ENDROOT
BRANCH   6   7
ATOM      7  O   UNL     1       7.549  -5.724  22.181  0.00  0.00    -0.386 OA
ATOM      8  H   UNL     1       6.749  -5.906  21.650  0.00  0.00    +0.210 HD
ENDBRANCH   6   7
BRANCH   5   9
ATOM      9  O   UNL     1       9.395  -5.076  24.338  0.00  0.00    -0.386 OA
ATOM     10  H   UNL     1       9.568  -5.054  23.387  0.00  0.00    +0.210 HD
ENDBRANCH   5   9
BRANCH   2  11
ATOM     11  O   UNL     1       6.762  -0.982  23.292  0.00  0.00    -0.340 OA
BRANCH  11  12
ATOM     12  C   UNL     1       8.104  -0.451  22.894  0.00  0.00    +0.183 C 
ATOM     13  C   UNL     1       9.021   0.234  24.035  0.00  0.00    +0.178 C 
ATOM     14  O   UNL     1       8.694   1.595  24.386  0.00  0.00    -0.341 OA
ATOM     15  C   UNL     1       8.354   2.480  23.324  0.00  0.00    +0.270 C 
ATOM     16  C   UNL     1       7.221   1.847  22.492  0.00  0.00    +0.160 C 
ATOM     17  C   UNL     1       7.835   0.594  21.800  0.00  0.00    +0.171 C 
BRANCH  16  18
ATOM     18  N   UNL     1       6.059   1.464  23.352  0.00  0.00    -0.305 N 
ATOM     19  H   UNL     1       6.192   0.633  23.914  0.00  0.00    +0.149 HD
ATOM     20  C   UNL     1       5.107   2.264  23.948  0.00  0.00    +0.210 C 
ATOM     21  O   UNL     1       4.483   1.807  24.926  0.00  0.00    -0.276 OA
ATOM     22  C   UNL     1       4.814   3.593  23.376  0.00  0.00    +0.109 C 
ENDBRANCH  16  18
BRANCH  17  23
ATOM     23  O   UNL     1       9.031   0.913  21.074  0.00  0.00    -0.387 OA
ATOM     24  H   UNL     1       9.749   0.320  21.368  0.00  0.00    +0.210 HD
ENDBRANCH  17  23
BRANCH  15  25
ATOM     25  O   UNL     1       9.491   2.879  22.566  0.00  0.00    -0.365 OA
ATOM     26  H   UNL     1      10.012   2.072  22.370  0.00  0.00    +0.213 HD
ENDBRANCH  15  25
BRANCH  13  27
ATOM     27  C   UNL     1      10.551   0.211  23.707  0.00  0.00    +0.190 C 
BRANCH  27  28
ATOM     28  O   UNL     1      11.282   1.193  24.451  0.00  0.00    -0.392 OA
ATOM     29  H   UNL     1      10.615   1.745  24.906  0.00  0.00    +0.210 HD
ENDBRANCH  27  28
ENDBRANCH  13  27
ENDBRANCH  11  12
ENDBRANCH   2  11
BRANCH   4  30
ATOM     30  C   UNL     1       7.956  -4.257  26.938  0.00  0.00    +0.190 C 
BRANCH  30  31
ATOM     31  O   UNL     1       8.135  -5.665  27.139  0.00  0.00    -0.392 OA
ATOM     32  H   UNL     1       7.590  -5.912  27.912  0.00  0.00    +0.210 HD
ENDBRANCH  30  31
ENDBRANCH   4  30
BRANCH   1  33
ATOM     33  O   UNL     1       5.265  -3.606  22.396  0.00  0.00    -0.338 OA
BRANCH  33  39
ATOM     34  C   UNL     1       3.757  -3.599  26.881  0.00  0.00    +0.041 C 
ATOM     35  C   UNL     1       4.277  -4.326  25.646  0.00  0.00    +0.149 C 
ATOM     36  C   UNL     1       4.148  -5.848  25.658  0.00  0.00    +0.174 C 
ATOM     37  C   UNL     1       4.451  -6.505  24.305  0.00  0.00    +0.179 C 
ATOM     38  C   UNL     1       3.934  -5.728  23.080  0.00  0.00    +0.201 C 
ATOM     39  C   UNL     1       4.178  -4.193  23.173  0.00  0.00    +0.282 C 
ATOM     40  O   UNL     1       3.864  -3.637  24.458  0.00  0.00    -0.343 OA
BRANCH  36  41
ATOM     41  O   UNL     1       2.885  -6.259  26.159  0.00  0.00    -0.387 OA
ATOM     42  H   UNL     1       3.014  -7.198  26.400  0.00  0.00    +0.210 HD
ENDBRANCH  36  41
BRANCH  38  43
ATOM     43  O   UNL     1       4.468  -6.310  21.874  0.00  0.00    -0.384 OA
ATOM     44  H   UNL     1       4.803  -7.199  22.097  0.00  0.00    +0.210 HD
ENDBRANCH  38  43
BRANCH  37  45
ATOM     45  O   UNL     1       3.975  -7.861  24.297  0.00  0.00    -0.386 OA
ATOM     46  H   UNL     1       3.164  -7.859  24.845  0.00  0.00    +0.210 HD
ENDBRANCH  37  45
ENDBRANCH  33  39
ENDBRANCH   1  33
TORSDOF 16
ENDMDL
MODEL 4
REMARK VINA RESULT:      -6.9      2.063      4.456
REMARK  Name = 
REMARK  18 active torsions:
REMARK  status: ('A' for Active; 'I' for Inactive)
REMARK    1  A    between atoms: C_1  and  C_2
REMARK    2  A    between atoms: C_5  and  O_7
REMARK    3  A    between atoms: O_7  and  C_8
REMARK    4  A    between atoms: C_10  and  O_12
REMARK    5  A    between atoms: C_13  and  O_15
REMARK    6  A    between atoms: C_16  and  C_18
REMARK    7  A    between atoms: C_18  and  O_19
REMARK    8  A    between atoms: C_21  and  O_23
REMARK    9  A    between atoms: O_23  and  C_24
REMARK   10  A    between atoms: C_26  and  O_28
REMARK   11  A    between atoms: C_29  and  N_31
REMARK   12  A    between atoms: C_32  and  C_33
REMARK   13  A    between atoms: C_35  and  O_37
REMARK   14  A    between atoms: C_39  and  C_41
REMARK   15  A    between atoms: C_41  and  O_42
REMARK   16  A    between atoms: C_43  and  O_45
REMARK   17  A    between atoms: C_46  and  O_48
REMARK   18  A    between atoms: C_49  and  O_51
REMARK                            x       y       z     vdW  Elec       q    Type
REMARK                         _______ _______ _______ _____ _____    ______ ____
ROOT
ATOM      1  C   UNL     1       6.624  -3.465  23.106  0.00  0.00    +0.208 C 
ATOM      2  C   UNL     1       6.761  -2.511  24.325  0.00  0.00    +0.283 C 
ATOM      3  O   UNL     1       7.750  -2.995  25.279  0.00  0.00    -0.341 OA
ATOM      4  C   UNL     1       7.524  -4.401  25.613  0.00  0.00    +0.178 C 
ATOM      5  C   UNL     1       7.997  -5.293  24.489  0.00  0.00    +0.177 C 
ATOM      6  C   UNL     1       7.121  -4.929  23.276  0.00  0.00    +0.179 C 
ENDROOT
BRANCH   6   7
ATOM      7  O   UNL     1       7.562  -5.513  22.053  0.00  0.00    -0.386 OA
ATOM      8  H   UNL     1       7.436  -4.830  21.365  0.00  0.00    +0.210 HD
ENDBRANCH   6   7
BRANCH   5   9
ATOM      9  O   UNL     1       9.394  -5.235  24.300  0.00  0.00    -0.386 OA
ATOM     10  H   UNL     1       9.569  -5.120  23.356  0.00  0.00    +0.210 HD
ENDBRANCH   5   9
BRANCH   2  11
ATOM     11  O   UNL     1       6.698  -1.060  23.994  0.00  0.00    -0.340 OA
BRANCH  11  12
ATOM     12  C   UNL     1       7.810  -0.592  23.107  0.00  0.00    +0.183 C 
ATOM     13  C   UNL     1       9.327  -0.943  23.539  0.00  0.00    +0.178 C 
ATOM     14  O   UNL     1       9.913  -0.102  24.555  0.00  0.00    -0.341 OA
ATOM     15  C   UNL     1       9.654   1.296  24.476  0.00  0.00    +0.270 C 
ATOM     16  C   UNL     1       8.130   1.515  24.402  0.00  0.00    +0.160 C 
ATOM     17  C   UNL     1       7.671   0.937  23.031  0.00  0.00    +0.171 C 
BRANCH  16  18
ATOM     18  N   UNL     1       7.423   0.835  25.531  0.00  0.00    -0.305 N 
ATOM     19  H   UNL     1       7.543  -0.169  25.574  0.00  0.00    +0.149 HD
ATOM     20  C   UNL     1       7.125   1.308  26.792  0.00  0.00    +0.210 C 
ATOM     21  O   UNL     1       6.903   0.476  27.694  0.00  0.00    -0.276 OA
ATOM     22  C   UNL     1       7.014   2.763  27.014  0.00  0.00    +0.109 C 
ENDBRANCH  16  18
BRANCH  17  23
ATOM     23  O   UNL     1       8.428   1.479  21.939  0.00  0.00    -0.387 OA
ATOM     24  H   UNL     1       9.377   1.307  22.094  0.00  0.00    +0.210 HD
ENDBRANCH  17  23
BRANCH  15  25
ATOM     25  O   UNL     1      10.393   1.926  23.436  0.00  0.00    -0.365 OA
ATOM     26  H   UNL     1      10.887   2.674  23.837  0.00  0.00    +0.213 HD
ENDBRANCH  15  25
BRANCH  13  27
ATOM     27  C   UNL     1      10.331  -0.961  22.338  0.00  0.00    +0.190 C 
BRANCH  27  28
ATOM     28  O   UNL     1       9.667  -1.082  21.074  0.00  0.00    -0.392 OA
ATOM     29  H   UNL     1      10.169  -1.746  20.562  0.00  0.00    +0.210 HD
ENDBRANCH  27  28
ENDBRANCH  13  27
ENDBRANCH  11  12
ENDBRANCH   2  11
BRANCH   4  30
ATOM     30  C   UNL     1       7.938  -4.918  26.998  0.00  0.00    +0.190 C 
BRANCH  30  31
ATOM     31  O   UNL     1       9.367  -4.904  27.112  0.00  0.00    -0.392 OA
ATOM     32  H   UNL     1       9.659  -5.836  27.130  0.00  0.00    +0.210 HD
ENDBRANCH  30  31
ENDBRANCH   4  30
BRANCH   1  33
ATOM     33  O   UNL     1       5.245  -3.503  22.634  0.00  0.00    -0.338 OA
BRANCH  33  39
ATOM     34  C   UNL     1       3.611  -3.744  27.068  0.00  0.00    +0.041 C 
ATOM     35  C   UNL     1       4.173  -4.400  25.813  0.00  0.00    +0.149 C 
ATOM     36  C   UNL     1       4.060  -5.922  25.743  0.00  0.00    +0.174 C 
ATOM     37  C   UNL     1       4.409  -6.505  24.367  0.00  0.00    +0.179 C 
ATOM     38  C   UNL     1       3.919  -5.671  23.170  0.00  0.00    +0.201 C 
ATOM     39  C   UNL     1       4.142  -4.140  23.349  0.00  0.00    +0.282 C 
ATOM     40  O   UNL     1       3.786  -3.654  24.651  0.00  0.00    -0.343 OA
BRANCH  36  41
ATOM     41  O   UNL     1       2.789  -6.371  26.185  0.00  0.00    -0.387 OA
ATOM     42  H   UNL     1       2.812  -6.248  27.155  0.00  0.00    +0.210 HD
ENDBRANCH  36  41
BRANCH  38  43
ATOM     43  O   UNL     1       4.492  -6.184  21.951  0.00  0.00    -0.384 OA
ATOM     44  H   UNL     1       3.766  -6.307  21.310  0.00  0.00    +0.210 HD
ENDBRANCH  38  43
BRANCH  37  45
ATOM     45  O   UNL     1       3.949  -7.863  24.276  0.00  0.00    -0.386 OA
ATOM     46  H   UNL     1       4.244  -8.298  25.101  0.00  0.00    +0.210 HD
ENDBRANCH  37  45
ENDBRANCH  33  39
ENDBRANCH   1  33
TORSDOF 16
ENDMDL
MODEL 5
REMARK VINA RESULT:      -6.7      1.962      4.938
REMARK  Name = 
REMARK  18 active torsions:
REMARK  status: ('A' for Active; 'I' for Inactive)
REMARK    1  A    between atoms: C_1  and  C_2
REMARK    2  A    between atoms: C_5  and  O_7
REMARK    3  A    between atoms: O_7  and  C_8
REMARK    4  A    between atoms: C_10  and  O_12
REMARK    5  A    between atoms: C_13  and  O_15
REMARK    6  A    between atoms: C_16  and  C_18
REMARK    7  A    between atoms: C_18  and  O_19
REMARK    8  A    between atoms: C_21  and  O_23
REMARK    9  A    between atoms: O_23  and  C_24
REMARK   10  A    between atoms: C_26  and  O_28
REMARK   11  A    between atoms: C_29  and  N_31
REMARK   12  A    between atoms: C_32  and  C_33
REMARK   13  A    between atoms: C_35  and  O_37
REMARK   14  A    between atoms: C_39  and  C_41
REMARK   15  A    between atoms: C_41  and  O_42
REMARK   16  A    between atoms: C_43  and  O_45
REMARK   17  A    between atoms: C_46  and  O_48
REMARK   18  A    between atoms: C_49  and  O_51
REMARK                            x       y       z     vdW  Elec       q    Type
REMARK                         _______ _______ _______ _____ _____    ______ ____
ROOT
ATOM      1  C   UNL     1       7.814  -3.188  24.253  0.00  0.00    +0.208 C 
ATOM      2  C   UNL     1       7.655  -2.382  25.573  0.00  0.00    +0.283 C 
ATOM      3  O   UNL     1       7.802  -3.234  26.744  0.00  0.00    -0.341 OA
ATOM      4  C   UNL     1       6.964  -4.429  26.641  0.00  0.00    +0.178 C 
ATOM      5  C   UNL     1       7.584  -5.427  25.691  0.00  0.00    +0.177 C 
ATOM      6  C   UNL     1       7.612  -4.728  24.319  0.00  0.00    +0.179 C 
ENDROOT
BRANCH   6   7
ATOM      7  O   UNL     1       8.363  -5.431  23.332  0.00  0.00    -0.386 OA
ATOM      8  H   UNL     1       9.167  -5.755  23.783  0.00  0.00    +0.210 HD
ENDBRANCH   6   7
BRANCH   5   9
ATOM      9  O   UNL     1       8.809  -5.941  26.164  0.00  0.00    -0.386 OA
ATOM     10  H   UNL     1       8.737  -6.069  27.120  0.00  0.00    +0.210 HD
ENDBRANCH   5   9
BRANCH   2  11
ATOM     11  O   UNL     1       8.277  -1.028  25.558  0.00  0.00    -0.340 OA
BRANCH  11  12
ATOM     12  C   UNL     1       7.403   0.047  26.123  0.00  0.00    +0.183 C 
ATOM     13  C   UNL     1       5.851   0.082  25.675  0.00  0.00    +0.178 C 
ATOM     14  O   UNL     1       5.572   0.667  24.385  0.00  0.00    -0.341 OA
ATOM     15  C   UNL     1       6.292   1.843  24.031  0.00  0.00    +0.270 C 
ATOM     16  C   UNL     1       7.801   1.569  24.188  0.00  0.00    +0.160 C 
ATOM     17  C   UNL     1       8.054   1.377  25.712  0.00  0.00    +0.171 C 
BRANCH  16  18
ATOM     18  N   UNL     1       8.218   0.354  23.422  0.00  0.00    -0.305 N 
ATOM     19  H   UNL     1       7.555  -0.409  23.426  0.00  0.00    +0.149 HD
ATOM     20  C   UNL     1       9.011   0.256  22.298  0.00  0.00    +0.210 C 
ATOM     21  O   UNL     1       8.910  -0.769  21.595  0.00  0.00    -0.276 OA
ATOM     22  C   UNL     1       9.989   1.322  22.003  0.00  0.00    +0.109 C 
ENDBRANCH  16  18
BRANCH  17  23
ATOM     23  O   UNL     1       7.542   2.473  26.484  0.00  0.00    -0.387 OA
ATOM     24  H   UNL     1       6.970   3.023  25.914  0.00  0.00    +0.210 HD
ENDBRANCH  17  23
BRANCH  15  25
ATOM     25  O   UNL     1       5.826   2.994  24.728  0.00  0.00    -0.365 OA
ATOM     26  H   UNL     1       4.959   2.766  25.128  0.00  0.00    +0.213 HD
ENDBRANCH  15  25
BRANCH  13  27
ATOM     27  C   UNL     1       4.917   0.800  26.705  0.00  0.00    +0.190 C 
BRANCH  27  28
ATOM     28  O   UNL     1       3.675   1.209  26.120  0.00  0.00    -0.392 OA
ATOM     29  H   UNL     1       2.976   0.702  26.579  0.00  0.00    +0.210 HD
ENDBRANCH  27  28
ENDBRANCH  13  27
ENDBRANCH  11  12
ENDBRANCH   2  11
BRANCH   4  30
ATOM     30  C   UNL     1       6.429  -5.082  27.924  0.00  0.00    +0.190 C 
BRANCH  30  31
ATOM     31  O   UNL     1       7.239  -6.214  28.265  0.00  0.00    -0.392 OA
ATOM     32  H   UNL     1       7.751  -5.966  29.059  0.00  0.00    +0.210 HD
ENDBRANCH  30  31
ENDBRANCH   4  30
BRANCH   1  33
ATOM     33  O   UNL     1       6.936  -2.656  23.217  0.00  0.00    -0.338 OA
BRANCH  33  39
ATOM     34  C   UNL     1       3.300  -3.037  26.221  0.00  0.00    +0.041 C 
ATOM     35  C   UNL     1       4.207  -3.613  25.140  0.00  0.00    +0.149 C 
ATOM     36  C   UNL     1       3.724  -4.899  24.472  0.00  0.00    +0.174 C 
ATOM     37  C   UNL     1       4.538  -5.295  23.234  0.00  0.00    +0.179 C 
ATOM     38  C   UNL     1       4.974  -4.117  22.344  0.00  0.00    +0.201 C 
ATOM     39  C   UNL     1       5.496  -2.892  23.150  0.00  0.00    +0.282 C 
ATOM     40  O   UNL     1       4.686  -2.564  24.288  0.00  0.00    -0.343 OA
BRANCH  36  41
ATOM     41  O   UNL     1       2.336  -4.843  24.180  0.00  0.00    -0.387 OA
ATOM     42  H   UNL     1       2.226  -4.007  23.684  0.00  0.00    +0.210 HD
ENDBRANCH  36  41
BRANCH  38  43
ATOM     43  O   UNL     1       5.913  -4.578  21.351  0.00  0.00    -0.384 OA
ATOM     44  H   UNL     1       6.635  -3.924  21.299  0.00  0.00    +0.210 HD
ENDBRANCH  38  43
BRANCH  37  45
ATOM     45  O   UNL     1       3.827  -6.285  22.472  0.00  0.00    -0.386 OA
ATOM     46  H   UNL     1       4.514  -6.814  22.020  0.00  0.00    +0.210 HD
ENDBRANCH  37  45
ENDBRANCH  33  39
ENDBRANCH   1  33
TORSDOF 16
ENDMDL
MODEL 6
REMARK VINA RESULT:      -6.6      2.985      6.458
REMARK  Name = 
REMARK  18 active torsions:
REMARK  status: ('A' for Active; 'I' for Inactive)
REMARK    1  A    between atoms: C_1  and  C_2
REMARK    2  A    between atoms: C_5  and  O_7
REMARK    3  A    between atoms: O_7  and  C_8
REMARK    4  A    between atoms: C_10  and  O_12
REMARK    5  A    between atoms: C_13  and  O_15
REMARK    6  A    between atoms: C_16  and  C_18
REMARK    7  A    between atoms: C_18  and  O_19
REMARK    8  A    between atoms: C_21  and  O_23
REMARK    9  A    between atoms: O_23  and  C_24
REMARK   10  A    between atoms: C_26  and  O_28
REMARK   11  A    between atoms: C_29  and  N_31
REMARK   12  A    between atoms: C_32  and  C_33
REMARK   13  A    between atoms: C_35  and  O_37
REMARK   14  A    between atoms: C_39  and  C_41
REMARK   15  A    between atoms: C_41  and  O_42
REMARK   16  A    between atoms: C_43  and  O_45
REMARK   17  A    between atoms: C_46  and  O_48
REMARK   18  A    between atoms: C_49  and  O_51
REMARK                            x       y       z     vdW  Elec       q    Type
REMARK                         _______ _______ _______ _____ _____    ______ ____
ROOT
ATOM      1  C   UNL     1       4.440  -2.619  26.041  0.00  0.00    +0.208 C 
ATOM      2  C   UNL     1       5.583  -1.584  25.839  0.00  0.00    +0.283 C 
ATOM      3  O   UNL     1       5.788  -0.769  27.028  0.00  0.00    -0.341 OA
ATOM      4  C   UNL     1       4.525  -0.213  27.516  0.00  0.00    +0.178 C 
ATOM      5  C   UNL     1       3.725  -1.274  28.236  0.00  0.00    +0.177 C 
ATOM      6  C   UNL     1       3.412  -2.345  27.175  0.00  0.00    +0.179 C 
ENDROOT
BRANCH   6   7
ATOM      7  O   UNL     1       2.847  -3.538  27.714  0.00  0.00    -0.386 OA
ATOM      8  H   UNL     1       2.067  -3.743  27.161  0.00  0.00    +0.210 HD
ENDBRANCH   6   7
BRANCH   5   9
ATOM      9  O   UNL     1       4.351  -1.718  29.419  0.00  0.00    -0.386 OA
ATOM     10  H   UNL     1       3.669  -2.046  30.020  0.00  0.00    +0.210 HD
ENDBRANCH   5   9
BRANCH   2  11
ATOM     11  O   UNL     1       6.758  -2.091  25.077  0.00  0.00    -0.340 OA
BRANCH  11  12
ATOM     12  C   UNL     1       6.936  -3.576  25.152  0.00  0.00    +0.183 C 
ATOM     13  C   UNL     1       7.518  -4.204  26.522  0.00  0.00    +0.178 C 
ATOM     14  O   UNL     1       8.947  -4.122  26.706  0.00  0.00    -0.341 OA
ATOM     15  C   UNL     1       9.768  -4.375  25.571  0.00  0.00    +0.270 C 
ATOM     16  C   UNL     1       9.316  -3.460  24.416  0.00  0.00    +0.160 C 
ATOM     17  C   UNL     1       7.893  -3.943  24.007  0.00  0.00    +0.171 C 
BRANCH  16  18
ATOM     18  N   UNL     1       9.291  -2.024  24.832  0.00  0.00    -0.305 N 
ATOM     19  H   UNL     1       9.205  -1.864  25.828  0.00  0.00    +0.149 HD
ATOM     20  C   UNL     1       9.899  -0.931  24.251  0.00  0.00    +0.210 C 
ATOM     21  O   UNL     1      10.089   0.080  24.955  0.00  0.00    -0.276 OA
ATOM     22  C   UNL     1      10.241  -0.969  22.815  0.00  0.00    +0.109 C 
ENDBRANCH  16  18
BRANCH  17  23
ATOM     23  O   UNL     1       7.863  -5.351  23.729  0.00  0.00    -0.387 OA
ATOM     24  H   UNL     1       7.980  -5.488  22.769  0.00  0.00    +0.210 HD
ENDBRANCH  17  23
BRANCH  15  25
ATOM     25  O   UNL     1       9.825  -5.759  25.241  0.00  0.00    -0.365 OA
ATOM     26  H   UNL     1       8.920  -6.038  24.986  0.00  0.00    +0.213 HD
ENDBRANCH  15  25
BRANCH  13  27
ATOM     27  C   UNL     1       7.124  -5.703  26.740  0.00  0.00    +0.190 C 
BRANCH  27  28
ATOM     28  O   UNL     1       7.526  -6.190  28.026  0.00  0.00    -0.392 OA
ATOM     29  H   UNL     1       8.479  -6.400  27.954  0.00  0.00    +0.210 HD
ENDBRANCH  27  28
ENDBRANCH  13  27
ENDBRANCH  11  12
ENDBRANCH   2  11
BRANCH   4  30
ATOM     30  C   UNL     1       4.535   1.131  28.258  0.00  0.00    +0.190 C 
BRANCH  30  31
ATOM     31  O   UNL     1       5.396   1.045  29.402  0.00  0.00    -0.392 OA
ATOM     32  H   UNL     1       4.849   0.721  30.143  0.00  0.00    +0.210 HD
ENDBRANCH  30  31
ENDBRANCH   4  30
BRANCH   1  33
ATOM     33  O   UNL     1       3.706  -2.824  24.798  0.00  0.00    -0.338 OA
BRANCH  33  39
ATOM     34  C   UNL     1       2.534  -7.030  26.622  0.00  0.00    +0.041 C 
ATOM     35  C   UNL     1       3.398  -6.158  25.718  0.00  0.00    +0.149 C 
ATOM     36  C   UNL     1       4.266  -6.898  24.700  0.00  0.00    +0.174 C 
ATOM     37  C   UNL     1       4.918  -5.978  23.660  0.00  0.00    +0.179 C 
ATOM     38  C   UNL     1       4.027  -4.822  23.171  0.00  0.00    +0.201 C 
ATOM     39  C   UNL     1       3.239  -4.120  24.316  0.00  0.00    +0.282 C 
ATOM     40  O   UNL     1       2.642  -5.033  25.248  0.00  0.00    -0.343 OA
BRANCH  36  41
ATOM     41  O   UNL     1       3.551  -7.954  24.079  0.00  0.00    -0.387 OA
ATOM     42  H   UNL     1       2.636  -7.856  24.410  0.00  0.00    +0.210 HD
ENDBRANCH  36  41
BRANCH  38  43
ATOM     43  O   UNL     1       4.809  -3.904  22.381  0.00  0.00    -0.384 OA
ATOM     44  H   UNL     1       5.291  -3.320  22.997  0.00  0.00    +0.210 HD
ENDBRANCH  38  43
BRANCH  37  45
ATOM     45  O   UNL     1       5.412  -6.755  22.557  0.00  0.00    -0.386 OA
ATOM     46  H   UNL     1       5.116  -6.286  21.751  0.00  0.00    +0.210 HD
ENDBRANCH  37  45
ENDBRANCH  33  39
ENDBRANCH   1  33
TORSDOF 16
ENDMDL
MODEL 7
REMARK VINA RESULT:      -6.6      2.249      6.236
REMARK  Name = 
REMARK  18 active torsions:
REMARK  status: ('A' for Active; 'I' for Inactive)
REMARK    1  A    between atoms: C_1  and  C_2
REMARK    2  A    between atoms: C_5  and  O_7
REMARK    3  A    between atoms: O_7  and  C_8
REMARK    4  A    between atoms: C_10  and  O_12
REMARK    5  A    between atoms: C_13  and  O_15
REMARK    6  A    between atoms: C_16  and  C_18
REMARK    7  A    between atoms: C_18  and  O_19
REMARK    8  A    between atoms: C_21  and  O_23
REMARK    9  A    between atoms: O_23  and  C_24
REMARK   10  A    between atoms: C_26  and  O_28
REMARK   11  A    between atoms: C_29  and  N_31
REMARK   12  A    between atoms: C_32  and  C_33
REMARK   13  A    between atoms: C_35  and  O_37
REMARK   14  A    between atoms: C_39  and  C_41
REMARK   15  A    between atoms: C_41  and  O_42
REMARK   16  A    between atoms: C_43  and  O_45
REMARK   17  A    between atoms: C_46  and  O_48
REMARK   18  A    between atoms: C_49  and  O_51
REMARK                            x       y       z     vdW  Elec       q    Type
REMARK                         _______ _______ _______ _____ _____    ______ ____
ROOT
ATOM      1  C   UNL     1       5.055   0.654  25.548  0.00  0.00    +0.208 C 
ATOM      2  C   UNL     1       5.971  -0.478  25.002  0.00  0.00    +0.283 C 
ATOM      3  O   UNL     1       5.451  -1.797  25.335  0.00  0.00    -0.341 OA
ATOM      4  C   UNL     1       5.120  -1.896  26.756  0.00  0.00    +0.178 C 
ATOM      5  C   UNL     1       3.821  -1.181  27.047  0.00  0.00    +0.177 C 
ATOM      6  C   UNL     1       4.079   0.298  26.705  0.00  0.00    +0.179 C 
ENDROOT
BRANCH   6   7
ATOM      7  O   UNL     1       2.901   1.101  26.707  0.00  0.00    -0.386 OA
ATOM      8  H   UNL     1       2.243   0.617  27.243  0.00  0.00    +0.210 HD
ENDBRANCH   6   7
BRANCH   5   9
ATOM      9  O   UNL     1       2.713  -1.791  26.423  0.00  0.00    -0.386 OA
ATOM     10  H   UNL     1       2.968  -2.683  26.151  0.00  0.00    +0.210 HD
ENDBRANCH   5   9
BRANCH   2  11
ATOM     11  O   UNL     1       6.540  -0.225  23.649  0.00  0.00    -0.340 OA
BRANCH  11  12
ATOM     12  C   UNL     1       8.015   0.026  23.649  0.00  0.00    +0.183 C 
ATOM     13  C   UNL     1       8.730   0.359  22.238  0.00  0.00    +0.178 C 
ATOM     14  O   UNL     1       9.019  -0.770  21.386  0.00  0.00    -0.341 OA
ATOM     15  C   UNL     1       9.516  -1.949  22.010  0.00  0.00    +0.270 C 
ATOM     16  C   UNL     1       8.552  -2.356  23.142  0.00  0.00    +0.160 C 
ATOM     17  C   UNL     1       8.657  -1.244  24.227  0.00  0.00    +0.171 C 
BRANCH  16  18
ATOM     18  N   UNL     1       7.147  -2.484  22.646  0.00  0.00    -0.305 N 
ATOM     19  H   UNL     1       6.742  -1.635  22.272  0.00  0.00    +0.149 HD
ATOM     20  C   UNL     1       6.508  -3.572  22.088  0.00  0.00    +0.210 C 
ATOM     21  O   UNL     1       5.499  -3.365  21.387  0.00  0.00    -0.276 OA
ATOM     22  C   UNL     1       6.996  -4.932  22.389  0.00  0.00    +0.109 C 
ENDBRANCH  16  18
BRANCH  17  23
ATOM     23  O   UNL     1      10.016  -1.011  24.626  0.00  0.00    -0.387 OA
ATOM     24  H   UNL     1      10.273  -1.683  25.287  0.00  0.00    +0.210 HD
ENDBRANCH  17  23
BRANCH  15  25
ATOM     25  O   UNL     1      10.876  -1.820  22.411  0.00  0.00    -0.365 OA
ATOM     26  H   UNL     1      10.946  -2.161  23.328  0.00  0.00    +0.213 HD
ENDBRANCH  15  25
BRANCH  13  27
ATOM     27  C   UNL     1      10.066   1.162  22.387  0.00  0.00    +0.190 C 
BRANCH  27  28
ATOM     28  O   UNL     1      10.136   2.274  21.486  0.00  0.00    -0.392 OA
ATOM     29  H   UNL     1      10.096   3.079  22.039  0.00  0.00    +0.210 HD
ENDBRANCH  27  28
ENDBRANCH  13  27
ENDBRANCH  11  12
ENDBRANCH   2  11
BRANCH   4  30
ATOM     30  C   UNL     1       5.218  -3.260  27.455  0.00  0.00    +0.190 C 
BRANCH  30  31
ATOM     31  O   UNL     1       4.215  -3.353  28.476  0.00  0.00    -0.392 OA
ATOM     32  H   UNL     1       3.886  -2.446  28.633  0.00  0.00    +0.210 HD
ENDBRANCH  30  31
ENDBRANCH   4  30
BRANCH   1  33
ATOM     33  O   UNL     1       5.850   1.805  25.958  0.00  0.00    -0.338 OA
BRANCH  33  39
ATOM     34  C   UNL     1       3.668   3.834  22.282  0.00  0.00    +0.041 C 
ATOM     35  C   UNL     1       4.931   3.362  22.993  0.00  0.00    +0.149 C 
ATOM     36  C   UNL     1       6.253   3.878  22.428  0.00  0.00    +0.174 C 
ATOM     37  C   UNL     1       7.465   3.578  23.320  0.00  0.00    +0.179 C 
ATOM     38  C   UNL     1       7.203   3.714  24.831  0.00  0.00    +0.201 C 
ATOM     39  C   UNL     1       5.845   3.099  25.282  0.00  0.00    +0.282 C 
ATOM     40  O   UNL     1       4.750   3.424  24.415  0.00  0.00    -0.343 OA
BRANCH  36  41
ATOM     41  O   UNL     1       6.178   5.257  22.106  0.00  0.00    -0.387 OA
ATOM     42  H   UNL     1       6.126   5.706  22.973  0.00  0.00    +0.210 HD
ENDBRANCH  36  41
BRANCH  38  43
ATOM     43  O   UNL     1       8.328   3.195  25.569  0.00  0.00    -0.384 OA
ATOM     44  H   UNL     1       8.168   3.370  26.515  0.00  0.00    +0.210 HD
ENDBRANCH  38  43
BRANCH  37  45
ATOM     45  O   UNL     1       8.586   4.381  22.914  0.00  0.00    -0.386 OA
ATOM     46  H   UNL     1       9.240   3.754  22.547  0.00  0.00    +0.210 HD
ENDBRANCH  37  45
ENDBRANCH  33  39
ENDBRANCH   1  33
TORSDOF 16
ENDMDL
MODEL 8
REMARK VINA RESULT:      -6.5      1.786      4.076
REMARK  Name = 
REMARK  18 active torsions:
REMARK  status: ('A' for Active; 'I' for Inactive)
REMARK    1  A    between atoms: C_1  and  C_2
REMARK    2  A    between atoms: C_5  and  O_7
REMARK    3  A    between atoms: O_7  and  C_8
REMARK    4  A    between atoms: C_10  and  O_12
REMARK    5  A    between atoms: C_13  and  O_15
REMARK    6  A    between atoms: C_16  and  C_18
REMARK    7  A    between atoms: C_18  and  O_19
REMARK    8  A    between atoms: C_21  and  O_23
REMARK    9  A    between atoms: O_23  and  C_24
REMARK   10  A    between atoms: C_26  and  O_28
REMARK   11  A    between atoms: C_29  and  N_31
REMARK   12  A    between atoms: C_32  and  C_33
REMARK   13  A    between atoms: C_35  and  O_37
REMARK   14  A    between atoms: C_39  and  C_41
REMARK   15  A    between atoms: C_41  and  O_42
REMARK   16  A    between atoms: C_43  and  O_45
REMARK   17  A    between atoms: C_46  and  O_48
REMARK   18  A    between atoms: C_49  and  O_51
REMARK                            x       y       z     vdW  Elec       q    Type
REMARK                         _______ _______ _______ _____ _____    ______ ____
ROOT
ATOM      1  C   UNL     1       7.247  -1.594  24.614  0.00  0.00    +0.208 C 
ATOM      2  C   UNL     1       6.318  -0.486  24.043  0.00  0.00    +0.283 C 
ATOM      3  O   UNL     1       5.833   0.402  25.092  0.00  0.00    -0.341 OA
ATOM      4  C   UNL     1       5.279  -0.355  26.215  0.00  0.00    +0.178 C 
ATOM      5  C   UNL     1       6.391  -0.935  27.058  0.00  0.00    +0.177 C 
ATOM      6  C   UNL     1       7.143  -1.910  26.134  0.00  0.00    +0.179 C 
ENDROOT
BRANCH   6   7
ATOM      7  O   UNL     1       8.365  -2.397  26.685  0.00  0.00    -0.386 OA
ATOM      8  H   UNL     1       8.471  -1.950  27.547  0.00  0.00    +0.210 HD
ENDBRANCH   6   7
BRANCH   5   9
ATOM      9  O   UNL     1       7.164   0.056  27.696  0.00  0.00    -0.386 OA
ATOM     10  H   UNL     1       7.833   0.369  27.073  0.00  0.00    +0.210 HD
ENDBRANCH   5   9
BRANCH   2  11
ATOM     11  O   UNL     1       6.750   0.080  22.735  0.00  0.00    -0.340 OA
BRANCH  11  12
ATOM     12  C   UNL     1       8.102   0.721  22.768  0.00  0.00    +0.183 C 
ATOM     13  C   UNL     1       8.575   1.429  24.142  0.00  0.00    +0.178 C 
ATOM     14  O   UNL     1       8.049   2.749  24.395  0.00  0.00    -0.341 OA
ATOM     15  C   UNL     1       7.974   3.645  23.291  0.00  0.00    +0.270 C 
ATOM     16  C   UNL     1       7.198   2.961  22.148  0.00  0.00    +0.160 C 
ATOM     17  C   UNL     1       8.091   1.783  21.657  0.00  0.00    +0.171 C 
BRANCH  16  18
ATOM     18  N   UNL     1       5.866   2.463  22.611  0.00  0.00    -0.305 N 
ATOM     19  H   UNL     1       5.874   1.550  23.046  0.00  0.00    +0.149 HD
ATOM     20  C   UNL     1       4.775   3.172  23.069  0.00  0.00    +0.210 C 
ATOM     21  O   UNL     1       3.936   2.572  23.769  0.00  0.00    -0.276 OA
ATOM     22  C   UNL     1       4.604   4.582  22.666  0.00  0.00    +0.109 C 
ENDBRANCH  16  18
BRANCH  17  23
ATOM     23  O   UNL     1       9.420   2.216  21.331  0.00  0.00    -0.387 OA
ATOM     24  H   UNL     1       9.593   3.070  21.772  0.00  0.00    +0.210 HD
ENDBRANCH  17  23
BRANCH  15  25
ATOM     25  O   UNL     1       9.250   4.154  22.917  0.00  0.00    -0.365 OA
ATOM     26  H   UNL     1       9.538   4.773  23.623  0.00  0.00    +0.213 HD
ENDBRANCH  15  25
BRANCH  13  27
ATOM     27  C   UNL     1      10.130   1.530  24.291  0.00  0.00    +0.190 C 
BRANCH  27  28
ATOM     28  O   UNL     1      10.815   0.513  23.549  0.00  0.00    -0.392 OA
ATOM     29  H   UNL     1      10.897   0.848  22.634  0.00  0.00    +0.210 HD
ENDBRANCH  27  28
ENDBRANCH  13  27
ENDBRANCH  11  12
ENDBRANCH   2  11
BRANCH   4  30
ATOM     30  C   UNL     1       4.157   0.268  27.058  0.00  0.00    +0.190 C 
BRANCH  30  31
ATOM     31  O   UNL     1       3.383   1.163  26.247  0.00  0.00    -0.392 OA
ATOM     32  H   UNL     1       4.012   1.788  25.838  0.00  0.00    +0.210 HD
ENDBRANCH  30  31
ENDBRANCH   4  30
BRANCH   1  33
ATOM     33  O   UNL     1       7.075  -2.840  23.876  0.00  0.00    -0.338 OA
BRANCH  33  39
ATOM     34  C   UNL     1       5.147  -6.442  26.262  0.00  0.00    +0.041 C 
ATOM     35  C   UNL     1       5.676  -5.822  24.974  0.00  0.00    +0.149 C 
ATOM     36  C   UNL     1       5.327  -6.558  23.681  0.00  0.00    +0.174 C 
ATOM     37  C   UNL     1       5.666  -5.768  22.410  0.00  0.00    +0.179 C 
ATOM     38  C   UNL     1       5.390  -4.256  22.498  0.00  0.00    +0.201 C 
ATOM     39  C   UNL     1       5.843  -3.622  23.846  0.00  0.00    +0.282 C 
ATOM     40  O   UNL     1       5.487  -4.400  24.997  0.00  0.00    -0.343 OA
BRANCH  36  41
ATOM     41  O   UNL     1       3.976  -6.989  23.676  0.00  0.00    -0.387 OA
ATOM     42  H   UNL     1       3.926  -7.641  24.403  0.00  0.00    +0.210 HD
ENDBRANCH  36  41
BRANCH  38  43
ATOM     43  O   UNL     1       5.951  -3.592  21.347  0.00  0.00    -0.384 OA
ATOM     44  H   UNL     1       5.530  -2.714  21.278  0.00  0.00    +0.210 HD
ENDBRANCH  38  43
BRANCH  37  45
ATOM     45  O   UNL     1       5.002  -6.351  21.277  0.00  0.00    -0.386 OA
ATOM     46  H   UNL     1       4.522  -5.616  20.845  0.00  0.00    +0.210 HD
ENDBRANCH  37  45
ENDBRANCH  33  39
ENDBRANCH   1  33
TORSDOF 16
ENDMDL
MODEL 9
REMARK VINA RESULT:      -6.5      1.552      3.481
REMARK  Name = 
REMARK  18 active torsions:
REMARK  status: ('A' for Active; 'I' for Inactive)
REMARK    1  A    between atoms: C_1  and  C_2
REMARK    2  A    between atoms: C_5  and  O_7
REMARK    3  A    between atoms: O_7  and  C_8
REMARK    4  A    between atoms: C_10  and  O_12
REMARK    5  A    between atoms: C_13  and  O_15
REMARK    6  A    between atoms: C_16  and  C_18
REMARK    7  A    between atoms: C_18  and  O_19
REMARK    8  A    between atoms: C_21  and  O_23
REMARK    9  A    between atoms: O_23  and  C_24
REMARK   10  A    between atoms: C_26  and  O_28
REMARK   11  A    between atoms: C_29  and  N_31
REMARK   12  A    between atoms: C_32  and  C_33
REMARK   13  A    between atoms: C_35  and  O_37
REMARK   14  A    between atoms: C_39  and  C_41
REMARK   15  A    between atoms: C_41  and  O_42
REMARK   16  A    between atoms: C_43  and  O_45
REMARK   17  A    between atoms: C_46  and  O_48
REMARK   18  A    between atoms: C_49  and  O_51
REMARK                            x       y       z     vdW  Elec       q    Type
REMARK                         _______ _______ _______ _____ _____    ______ ____
ROOT
ATOM      1  C   UNL     1       7.751  -1.456  24.750  0.00  0.00    +0.208 C 
ATOM      2  C   UNL     1       6.528  -0.775  24.073  0.00  0.00    +0.283 C 
ATOM      3  O   UNL     1       5.653  -0.145  25.053  0.00  0.00    -0.341 OA
ATOM      4  C   UNL     1       5.329  -1.062  26.145  0.00  0.00    +0.178 C 
ATOM      5  C   UNL     1       6.498  -1.187  27.094  0.00  0.00    +0.177 C 
ATOM      6  C   UNL     1       7.641  -1.798  26.263  0.00  0.00    +0.179 C 
ENDROOT
BRANCH   6   7
ATOM      7  O   UNL     1       8.902  -1.793  26.928  0.00  0.00    -0.386 OA
ATOM      8  H   UNL     1       9.143  -0.853  27.045  0.00  0.00    +0.210 HD
ENDBRANCH   6   7
BRANCH   5   9
ATOM      9  O   UNL     1       6.782   0.018  27.769  0.00  0.00    -0.386 OA
ATOM     10  H   UNL     1       6.545  -0.090  28.700  0.00  0.00    +0.210 HD
ENDBRANCH   5   9
BRANCH   2  11
ATOM     11  O   UNL     1       6.829  -0.079  22.792  0.00  0.00    -0.340 OA
BRANCH  11  12
ATOM     12  C   UNL     1       8.159   0.607  22.772  0.00  0.00    +0.183 C 
ATOM     13  C   UNL     1       8.681   1.294  24.138  0.00  0.00    +0.178 C 
ATOM     14  O   UNL     1       8.127   2.589  24.455  0.00  0.00    -0.341 OA
ATOM     15  C   UNL     1       7.964   3.510  23.381  0.00  0.00    +0.270 C 
ATOM     16  C   UNL     1       7.151   2.831  22.262  0.00  0.00    +0.160 C 
ATOM     17  C   UNL     1       8.054   1.696  21.693  0.00  0.00    +0.171 C 
BRANCH  16  18
ATOM     18  N   UNL     1       5.863   2.276  22.780  0.00  0.00    -0.305 N 
ATOM     19  H   UNL     1       5.932   1.377  23.239  0.00  0.00    +0.149 HD
ATOM     20  C   UNL     1       4.749   2.938  23.253  0.00  0.00    +0.210 C 
ATOM     21  O   UNL     1       3.966   2.315  23.996  0.00  0.00    -0.276 OA
ATOM     22  C   UNL     1       4.490   4.325  22.819  0.00  0.00    +0.109 C 
ENDBRANCH  16  18
BRANCH  17  23
ATOM     23  O   UNL     1       9.349   2.182  21.310  0.00  0.00    -0.387 OA
ATOM     24  H   UNL     1       9.474   2.030  20.353  0.00  0.00    +0.210 HD
ENDBRANCH  17  23
BRANCH  15  25
ATOM     25  O   UNL     1       9.201   4.071  22.956  0.00  0.00    -0.365 OA
ATOM     26  H   UNL     1       9.792   3.328  22.707  0.00  0.00    +0.213 HD
ENDBRANCH  15  25
BRANCH  13  27
ATOM     27  C   UNL     1      10.238   1.444  24.208  0.00  0.00    +0.190 C 
BRANCH  27  28
ATOM     28  O   UNL     1      10.820   0.611  25.218  0.00  0.00    -0.392 OA
ATOM     29  H   UNL     1      10.077   0.267  25.752  0.00  0.00    +0.210 HD
ENDBRANCH  27  28
ENDBRANCH  13  27
ENDBRANCH  11  12
ENDBRANCH   2  11
BRANCH   4  30
ATOM     30  C   UNL     1       3.985  -0.915  26.873  0.00  0.00    +0.190 C 
BRANCH  30  31
ATOM     31  O   UNL     1       3.335   0.291  26.451  0.00  0.00    -0.392 OA
ATOM     32  H   UNL     1       3.566   0.422  25.511  0.00  0.00    +0.210 HD
ENDBRANCH  30  31
ENDBRANCH   4  30
BRANCH   1  33
ATOM     33  O   UNL     1       8.127  -2.668  24.033  0.00  0.00    -0.338 OA
BRANCH  33  39
ATOM     34  C   UNL     1       3.898  -4.513  25.081  0.00  0.00    +0.041 C 
ATOM     35  C   UNL     1       5.364  -4.258  25.410  0.00  0.00    +0.149 C 
ATOM     36  C   UNL     1       5.953  -5.094  26.545  0.00  0.00    +0.174 C 
ATOM     37  C   UNL     1       7.478  -4.980  26.668  0.00  0.00    +0.179 C 
ATOM     38  C   UNL     1       8.232  -4.917  25.327  0.00  0.00    +0.201 C 
ATOM     39  C   UNL     1       7.552  -3.988  24.279  0.00  0.00    +0.282 C 
ATOM     40  O   UNL     1       6.129  -4.150  24.202  0.00  0.00    -0.343 OA
BRANCH  36  41
ATOM     41  O   UNL     1       5.543  -6.450  26.459  0.00  0.00    -0.387 OA
ATOM     42  H   UNL     1       6.024  -6.895  27.185  0.00  0.00    +0.210 HD
ENDBRANCH  36  41
BRANCH  38  43
ATOM     43  O   UNL     1       9.615  -4.585  25.561  0.00  0.00    -0.384 OA
ATOM     44  H   UNL     1       9.650  -3.984  26.330  0.00  0.00    +0.210 HD
ENDBRANCH  38  43
BRANCH  37  45
ATOM     45  O   UNL     1       7.986  -6.037  27.499  0.00  0.00    -0.386 OA
ATOM     46  H   UNL     1       7.338  -6.137  28.225  0.00  0.00    +0.210 HD
ENDBRANCH  37  45
ENDBRANCH  33  39
ENDBRANCH   1  33
TORSDOF 16
ENDMDL
