MODEL 1
REMARK VINA RESULT:      -9.3      0.000      0.000
REMARK  Name = 
REMARK  5 active torsions:
REMARK  status: ('A' for Active; 'I' for Inactive)
REMARK    1  A    between atoms: N_6  and  S_7
REMARK    2  A    between atoms: S_7  and  C_10
REMARK    3  A    between atoms: C_11  and  N_12
REMARK    4  A    between atoms: C_13  and  C_15
REMARK    5  A    between atoms: C_18  and  N_21
REMARK                            x       y       z     vdW  Elec       q    Type
REMARK                         _______ _______ _______ _____ _____    ______ ____
ROOT
ATOM      1  C   UNL     1       7.889  -4.701  23.442  0.00  0.00    +0.130 A 
ATOM      2  C   UNL     1       7.380  -5.969  23.103  0.00  0.00    +0.031 A 
ATOM      3  C   UNL     1       6.564  -6.135  21.982  0.00  0.00    +0.002 A 
ATOM      4  C   UNL     1       6.230  -5.035  21.202  0.00  0.00    +0.002 A 
ATOM      5  C   UNL     1       6.714  -3.773  21.541  0.00  0.00    +0.025 A 
ATOM      6  C   UNL     1       7.567  -3.594  22.644  0.00  0.00    +0.061 A 
ENDROOT
BRANCH   6   7
ATOM      7  N   UNL     1       7.977  -2.265  22.855  0.00  0.00    -0.280 N 
ATOM      8  H   UNL     1       7.230  -1.598  22.971  0.00  0.00    +0.155 HD
ATOM      9  C   UNL     1       9.266  -1.792  22.677  0.00  0.00    +0.248 C 
ATOM     10  O   UNL     1      10.208  -2.489  22.308  0.00  0.00    -0.270 OA
BRANCH   9  11
ATOM     11  C   UNL     1       9.467  -0.335  22.953  0.00  0.00    +0.037 A 
ATOM     12  C   UNL     1       9.649   0.168  24.242  0.00  0.00    +0.015 A 
ATOM     13  C   UNL     1       9.967   1.518  24.443  0.00  0.00    +0.027 A 
ATOM     14  C   UNL     1      10.107   2.424  23.375  0.00  0.00    +0.049 A 
ATOM     15  C   UNL     1       9.823   1.916  22.095  0.00  0.00    +0.027 A 
ATOM     16  C   UNL     1       9.506   0.560  21.884  0.00  0.00    +0.015 A 
BRANCH  14  17
ATOM     17  N   UNL     1      10.541   3.795  23.619  0.00  0.00    -0.284 N 
ATOM     18  C   UNL     1       9.624   4.778  24.065  0.00  0.00    +0.256 A 
ATOM     19  O   UNL     1       8.426   4.635  24.307  0.00  0.00    -0.267 OA
ATOM     20  C   UNL     1      10.172   6.146  24.311  0.00  0.00    +0.071 A 
ATOM     21  C   UNL     1      11.462   6.424  24.115  0.00  0.00    +0.007 A 
ATOM     22  C   UNL     1      12.338   5.405  23.623  0.00  0.00    +0.018 A 
ATOM     23  C   UNL     1      11.873   4.171  23.395  0.00  0.00    +0.095 A 
ENDBRANCH  14  17
ENDBRANCH   9  11
ENDBRANCH   6   7
BRANCH   1  24
ATOM     24  S   UNL     1       8.623  -4.545  25.064  0.00  0.00    +0.075 S 
ATOM     25  O   UNL     1      10.057  -4.687  24.935  0.00  0.00    -0.150 OA
ATOM     26  O   UNL     1       8.074  -3.340  25.661  0.00  0.00    -0.150 OA
BRANCH  24  32
ATOM     27 CL   UNL     1       3.212  -4.061  28.745  0.00  0.00    -0.082 Cl
ATOM     28  C   UNL     1       4.563  -4.660  27.872  0.00  0.00    +0.059 A 
ATOM     29  C   UNL     1       4.426  -5.084  26.555  0.00  0.00    +0.025 A 
ATOM     30  C   UNL     1       5.553  -5.532  25.868  0.00  0.00    +0.046 A 
ATOM     31  C   UNL     1       6.765  -5.550  26.543  0.00  0.00    +0.138 A 
ATOM     32  N   UNL     1       7.977  -5.877  25.892  0.00  0.00    -0.199 N 
ATOM     33  H   UNL     1       8.663  -6.134  26.621  0.00  0.00    +0.175 HD
ATOM     34  N   UNL     1       6.928  -5.174  27.823  0.00  0.00    -0.238 NA
ATOM     35  C   UNL     1       5.818  -4.724  28.458  0.00  0.00    +0.133 A 
ENDBRANCH  24  32
ENDBRANCH   1  24
TORSDOF 5
ENDMDL
MODEL 2
REMARK VINA RESULT:      -9.1      0.909      1.300
REMARK  Name = 
REMARK  5 active torsions:
REMARK  status: ('A' for Active; 'I' for Inactive)
REMARK    1  A    between atoms: N_6  and  S_7
REMARK    2  A    between atoms: S_7  and  C_10
REMARK    3  A    between atoms: C_11  and  N_12
REMARK    4  A    between atoms: C_13  and  C_15
REMARK    5  A    between atoms: C_18  and  N_21
REMARK                            x       y       z     vdW  Elec       q    Type
REMARK                         _______ _______ _______ _____ _____    ______ ____
ROOT
ATOM      1  C   UNL     1       7.920  -4.670  23.393  0.00  0.00    +0.130 A 
ATOM      2  C   UNL     1       7.579  -5.979  23.000  0.00  0.00    +0.031 A 
ATOM      3  C   UNL     1       6.759  -6.202  21.893  0.00  0.00    +0.002 A 
ATOM      4  C   UNL     1       6.251  -5.123  21.180  0.00  0.00    +0.002 A 
ATOM      5  C   UNL     1       6.568  -3.823  21.574  0.00  0.00    +0.025 A 
ATOM      6  C   UNL     1       7.423  -3.581  22.663  0.00  0.00    +0.061 A 
ENDROOT
BRANCH   6   7
ATOM      7  N   UNL     1       7.653  -2.220  22.933  0.00  0.00    -0.280 N 
ATOM      8  H   UNL     1       6.860  -1.715  23.298  0.00  0.00    +0.155 HD
ATOM      9  C   UNL     1       8.764  -1.504  22.523  0.00  0.00    +0.248 C 
ATOM     10  O   UNL     1       9.684  -1.982  21.865  0.00  0.00    -0.270 OA
BRANCH   9  11
ATOM     11  C   UNL     1       8.789  -0.061  22.920  0.00  0.00    +0.037 A 
ATOM     12  C   UNL     1       9.060   0.356  24.224  0.00  0.00    +0.015 A 
ATOM     13  C   UNL     1       9.206   1.717  24.522  0.00  0.00    +0.027 A 
ATOM     14  C   UNL     1       9.079   2.719  23.542  0.00  0.00    +0.049 A 
ATOM     15  C   UNL     1       8.711   2.281  22.257  0.00  0.00    +0.027 A 
ATOM     16  C   UNL     1       8.565   0.915  21.949  0.00  0.00    +0.015 A 
BRANCH  14  17
ATOM     17  N   UNL     1       9.342   4.115  23.872  0.00  0.00    -0.284 N 
ATOM     18  C   UNL     1      10.641   4.662  23.732  0.00  0.00    +0.256 A 
ATOM     19  O   UNL     1      11.657   4.094  23.331  0.00  0.00    -0.267 OA
ATOM     20  C   UNL     1      10.803   6.108  24.070  0.00  0.00    +0.071 A 
ATOM     21  C   UNL     1       9.770   6.843  24.489  0.00  0.00    +0.007 A 
ATOM     22  C   UNL     1       8.488   6.232  24.653  0.00  0.00    +0.018 A 
ATOM     23  C   UNL     1       8.316   4.939  24.357  0.00  0.00    +0.095 A 
ENDBRANCH  14  17
ENDBRANCH   9  11
ENDBRANCH   6   7
BRANCH   1  24
ATOM     24  S   UNL     1       8.677  -4.494  25.002  0.00  0.00    +0.075 S 
ATOM     25  O   UNL     1      10.114  -4.549  24.842  0.00  0.00    -0.150 OA
ATOM     26  O   UNL     1       8.071  -3.330  25.627  0.00  0.00    -0.150 OA
BRANCH  24  32
ATOM     27 CL   UNL     1       3.312  -4.380  28.779  0.00  0.00    -0.082 Cl
ATOM     28  C   UNL     1       4.681  -4.886  27.876  0.00  0.00    +0.059 A 
ATOM     29  C   UNL     1       4.547  -5.302  26.556  0.00  0.00    +0.025 A 
ATOM     30  C   UNL     1       5.687  -5.673  25.845  0.00  0.00    +0.046 A 
ATOM     31  C   UNL     1       6.910  -5.626  26.499  0.00  0.00    +0.138 A 
ATOM     32  N   UNL     1       8.127  -5.872  25.823  0.00  0.00    -0.199 N 
ATOM     33  H   UNL     1       8.840  -6.095  26.537  0.00  0.00    +0.175 HD
ATOM     34  N   UNL     1       7.072  -5.256  27.780  0.00  0.00    -0.238 NA
ATOM     35  C   UNL     1       5.948  -4.882  28.440  0.00  0.00    +0.133 A 
ENDBRANCH  24  32
ENDBRANCH   1  24
TORSDOF 5
ENDMDL
MODEL 3
REMARK VINA RESULT:      -8.9      2.590      3.247
REMARK  Name = 
REMARK  5 active torsions:
REMARK  status: ('A' for Active; 'I' for Inactive)
REMARK    1  A    between atoms: N_6  and  S_7
REMARK    2  A    between atoms: S_7  and  C_10
REMARK    3  A    between atoms: C_11  and  N_12
REMARK    4  A    between atoms: C_13  and  C_15
REMARK    5  A    between atoms: C_18  and  N_21
REMARK                            x       y       z     vdW  Elec       q    Type
REMARK                         _______ _______ _______ _____ _____    ______ ____
ROOT
ATOM      1  C   UNL     1       6.578  -4.365  24.104  0.00  0.00    +0.130 A 
ATOM      2  C   UNL     1       5.972  -5.617  23.886  0.00  0.00    +0.031 A 
ATOM      3  C   UNL     1       6.031  -6.232  22.634  0.00  0.00    +0.002 A 
ATOM      4  C   UNL     1       6.676  -5.594  21.581  0.00  0.00    +0.002 A 
ATOM      5  C   UNL     1       7.262  -4.345  21.784  0.00  0.00    +0.025 A 
ATOM      6  C   UNL     1       7.244  -3.729  23.047  0.00  0.00    +0.061 A 
ENDROOT
BRANCH   6   7
ATOM      7  N   UNL     1       7.881  -2.476  23.094  0.00  0.00    -0.280 N 
ATOM      8  H   UNL     1       7.366  -1.716  22.679  0.00  0.00    +0.155 HD
ATOM      9  C   UNL     1       9.207  -2.270  23.435  0.00  0.00    +0.248 C 
ATOM     10  O   UNL     1       9.987  -3.171  23.735  0.00  0.00    -0.270 OA
BRANCH   9  11
ATOM     11  C   UNL     1       9.671  -0.847  23.408  0.00  0.00    +0.037 A 
ATOM     12  C   UNL     1       9.565  -0.043  22.273  0.00  0.00    +0.015 A 
ATOM     13  C   UNL     1       9.887   1.320  22.330  0.00  0.00    +0.027 A 
ATOM     14  C   UNL     1      10.338   1.935  23.513  0.00  0.00    +0.049 A 
ATOM     15  C   UNL     1      10.530   1.085  24.616  0.00  0.00    +0.027 A 
ATOM     16  C   UNL     1      10.205  -0.285  24.567  0.00  0.00    +0.015 A 
BRANCH  14  17
ATOM     17  N   UNL     1      10.563   3.376  23.558  0.00  0.00    -0.284 N 
ATOM     18  C   UNL     1       9.495   4.269  23.821  0.00  0.00    +0.256 A 
ATOM     19  O   UNL     1       8.318   3.988  24.045  0.00  0.00    -0.267 OA
ATOM     20  C   UNL     1       9.832   5.723  23.872  0.00  0.00    +0.071 A 
ATOM     21  C   UNL     1      11.079   6.155  23.675  0.00  0.00    +0.007 A 
ATOM     22  C   UNL     1      12.113   5.214  23.372  0.00  0.00    +0.018 A 
ATOM     23  C   UNL     1      11.838   3.906  23.321  0.00  0.00    +0.095 A 
ENDBRANCH  14  17
ENDBRANCH   9  11
ENDBRANCH   6   7
BRANCH   1  24
ATOM     24  S   UNL     1       6.149  -3.526  25.623  0.00  0.00    +0.075 S 
ATOM     25  O   UNL     1       5.550  -4.486  26.525  0.00  0.00    -0.150 OA
ATOM     26  O   UNL     1       7.328  -2.788  26.043  0.00  0.00    -0.150 OA
BRANCH  24  32
ATOM     27 CL   UNL     1       6.705   2.886  26.904  0.00  0.00    -0.082 Cl
ATOM     28  C   UNL     1       6.191   1.366  26.295  0.00  0.00    +0.059 A 
ATOM     29  C   UNL     1       6.655   0.898  25.071  0.00  0.00    +0.025 A 
ATOM     30  C   UNL     1       6.241  -0.358  24.626  0.00  0.00    +0.046 A 
ATOM     31  C   UNL     1       5.365  -1.078  25.425  0.00  0.00    +0.138 A 
ATOM     32  N   UNL     1       4.986  -2.403  25.110  0.00  0.00    -0.199 N 
ATOM     33  H   UNL     1       4.120  -2.612  25.634  0.00  0.00    +0.175 HD
ATOM     34  N   UNL     1       4.876  -0.644  26.599  0.00  0.00    -0.238 NA
ATOM     35  C   UNL     1       5.312   0.570  27.015  0.00  0.00    +0.133 A 
ENDBRANCH  24  32
ENDBRANCH   1  24
TORSDOF 5
ENDMDL
MODEL 4
REMARK VINA RESULT:      -8.2      3.566      9.153
REMARK  Name = 
REMARK  5 active torsions:
REMARK  status: ('A' for Active; 'I' for Inactive)
REMARK    1  A    between atoms: N_6  and  S_7
REMARK    2  A    between atoms: S_7  and  C_10
REMARK    3  A    between atoms: C_11  and  N_12
REMARK    4  A    between atoms: C_13  and  C_15
REMARK    5  A    between atoms: C_18  and  N_21
REMARK                            x       y       z     vdW  Elec       q    Type
REMARK                         _______ _______ _______ _____ _____    ______ ____
ROOT
ATOM      1  C   UNL     1       8.089   4.528  25.159  0.00  0.00    +0.130 A 
ATOM      2  C   UNL     1       8.275   5.795  25.745  0.00  0.00    +0.031 A 
ATOM      3  C   UNL     1       7.801   6.065  27.030  0.00  0.00    +0.002 A 
ATOM      4  C   UNL     1       7.118   5.082  27.735  0.00  0.00    +0.002 A 
ATOM      5  C   UNL     1       6.913   3.831  27.155  0.00  0.00    +0.025 A 
ATOM      6  C   UNL     1       7.416   3.530  25.877  0.00  0.00    +0.061 A 
ENDROOT
BRANCH   6   7
ATOM      7  N   UNL     1       7.135   2.226  25.431  0.00  0.00    -0.280 N 
ATOM      8  H   UNL     1       6.731   2.165  24.509  0.00  0.00    +0.155 HD
ATOM      9  C   UNL     1       7.144   1.093  26.227  0.00  0.00    +0.248 C 
ATOM     10  O   UNL     1       7.401   1.100  27.428  0.00  0.00    -0.270 OA
BRANCH   9  11
ATOM     11  C   UNL     1       6.803  -0.190  25.535  0.00  0.00    +0.037 A 
ATOM     12  C   UNL     1       6.433  -0.243  24.190  0.00  0.00    +0.015 A 
ATOM     13  C   UNL     1       6.252  -1.476  23.548  0.00  0.00    +0.027 A 
ATOM     14  C   UNL     1       6.421  -2.702  24.217  0.00  0.00    +0.049 A 
ATOM     15  C   UNL     1       6.698  -2.622  25.593  0.00  0.00    +0.027 A 
ATOM     16  C   UNL     1       6.884  -1.387  26.244  0.00  0.00    +0.015 A 
BRANCH  14  17
ATOM     17  N   UNL     1       6.327  -3.962  23.487  0.00  0.00    -0.284 N 
ATOM     18  C   UNL     1       5.076  -4.598  23.296  0.00  0.00    +0.256 A 
ATOM     19  O   UNL     1       3.970  -4.210  23.672  0.00  0.00    -0.267 OA
ATOM     20  C   UNL     1       5.080  -5.870  22.513  0.00  0.00    +0.071 A 
ATOM     21  C   UNL     1       6.212  -6.381  22.024  0.00  0.00    +0.007 A 
ATOM     22  C   UNL     1       7.455  -5.721  22.282  0.00  0.00    +0.018 A 
ATOM     23  C   UNL     1       7.478  -4.580  22.979  0.00  0.00    +0.095 A 
ENDBRANCH  14  17
ENDBRANCH   9  11
ENDBRANCH   6   7
BRANCH   1  24
ATOM     24  S   UNL     1       8.423   4.404  23.408  0.00  0.00    +0.075 S 
ATOM     25  O   UNL     1       7.558   3.390  22.845  0.00  0.00    -0.150 OA
ATOM     26  O   UNL     1       8.383   5.755  22.875  0.00  0.00    -0.150 OA
BRANCH  24  32
ATOM     27 CL   UNL     1      10.005  -1.964  23.306  0.00  0.00    -0.082 Cl
ATOM     28  C   UNL     1      10.068  -0.250  23.255  0.00  0.00    +0.059 A 
ATOM     29  C   UNL     1       9.993   0.428  22.044  0.00  0.00    +0.025 A 
ATOM     30  C   UNL     1      10.012   1.822  22.047  0.00  0.00    +0.046 A 
ATOM     31  C   UNL     1      10.125   2.472  23.267  0.00  0.00    +0.138 A 
ATOM     32  N   UNL     1      10.036   3.879  23.375  0.00  0.00    -0.199 N 
ATOM     33  H   UNL     1      10.454   4.149  24.280  0.00  0.00    +0.175 HD
ATOM     34  N   UNL     1      10.228   1.849  24.453  0.00  0.00    -0.238 NA
ATOM     35  C   UNL     1      10.185   0.494  24.421  0.00  0.00    +0.133 A 
ENDBRANCH  24  32
ENDBRANCH   1  24
TORSDOF 5
ENDMDL
MODEL 5
REMARK VINA RESULT:      -8.2      2.825      4.341
REMARK  Name = 
REMARK  5 active torsions:
REMARK  status: ('A' for Active; 'I' for Inactive)
REMARK    1  A    between atoms: N_6  and  S_7
REMARK    2  A    between atoms: S_7  and  C_10
REMARK    3  A    between atoms: C_11  and  N_12
REMARK    4  A    between atoms: C_13  and  C_15
REMARK    5  A    between atoms: C_18  and  N_21
REMARK                            x       y       z     vdW  Elec       q    Type
REMARK                         _______ _______ _______ _____ _____    ______ ____
ROOT
ATOM      1  C   UNL     1       5.717  -4.765  25.288  0.00  0.00    +0.130 A 
ATOM      2  C   UNL     1       4.878  -5.889  25.407  0.00  0.00    +0.031 A 
ATOM      3  C   UNL     1       3.530  -5.817  25.052  0.00  0.00    +0.002 A 
ATOM      4  C   UNL     1       2.999  -4.616  24.596  0.00  0.00    +0.002 A 
ATOM      5  C   UNL     1       3.818  -3.493  24.493  0.00  0.00    +0.025 A 
ATOM      6  C   UNL     1       5.186  -3.558  24.811  0.00  0.00    +0.061 A 
ENDROOT
BRANCH   6   7
ATOM      7  N   UNL     1       5.881  -2.346  24.650  0.00  0.00    -0.280 N 
ATOM      8  H   UNL     1       6.786  -2.424  24.214  0.00  0.00    +0.155 HD
ATOM      9  C   UNL     1       5.532  -1.144  25.242  0.00  0.00    +0.248 C 
ATOM     10  O   UNL     1       4.566  -1.000  25.987  0.00  0.00    -0.270 OA
BRANCH   9  11
ATOM     11  C   UNL     1       6.427   0.016  24.934  0.00  0.00    +0.037 A 
ATOM     12  C   UNL     1       6.036   1.067  24.103  0.00  0.00    +0.015 A 
ATOM     13  C   UNL     1       6.853   2.196  23.949  0.00  0.00    +0.027 A 
ATOM     14  C   UNL     1       8.091   2.322  24.604  0.00  0.00    +0.049 A 
ATOM     15  C   UNL     1       8.507   1.210  25.357  0.00  0.00    +0.027 A 
ATOM     16  C   UNL     1       7.691   0.073  25.519  0.00  0.00    +0.015 A 
BRANCH  14  17
ATOM     17  N   UNL     1       8.861   3.557  24.500  0.00  0.00    -0.284 N 
ATOM     18  C   UNL     1      10.052   3.607  23.735  0.00  0.00    +0.256 A 
ATOM     19  O   UNL     1      10.568   2.697  23.085  0.00  0.00    -0.267 OA
ATOM     20  C   UNL     1      10.754   4.924  23.669  0.00  0.00    +0.071 A 
ATOM     21  C   UNL     1      10.280   5.997  24.305  0.00  0.00    +0.007 A 
ATOM     22  C   UNL     1       9.096   5.882  25.099  0.00  0.00    +0.018 A 
ATOM     23  C   UNL     1       8.447   4.714  25.174  0.00  0.00    +0.095 A 
ENDBRANCH  14  17
ENDBRANCH   9  11
ENDBRANCH   6   7
BRANCH   1  24
ATOM     24  S   UNL     1       7.313  -4.873  26.085  0.00  0.00    +0.075 S 
ATOM     25  O   UNL     1       7.652  -3.570  26.614  0.00  0.00    -0.150 OA
ATOM     26  O   UNL     1       7.259  -6.017  26.980  0.00  0.00    -0.150 OA
BRANCH  24  32
ATOM     27 CL   UNL     1       9.393  -0.366  21.793  0.00  0.00    -0.082 Cl
ATOM     28  C   UNL     1       9.173  -1.819  22.680  0.00  0.00    +0.059 A 
ATOM     29  C   UNL     1       9.989  -2.119  23.764  0.00  0.00    +0.025 A 
ATOM     30  C   UNL     1       9.756  -3.293  24.481  0.00  0.00    +0.046 A 
ATOM     31  C   UNL     1       8.724  -4.120  24.063  0.00  0.00    +0.138 A 
ATOM     32  N   UNL     1       8.343  -5.267  24.797  0.00  0.00    -0.199 N 
ATOM     33  H   UNL     1       7.804  -5.878  24.162  0.00  0.00    +0.175 HD
ATOM     34  N   UNL     1       7.935  -3.874  23.004  0.00  0.00    -0.238 NA
ATOM     35  C   UNL     1       8.172  -2.717  22.339  0.00  0.00    +0.133 A 
ENDBRANCH  24  32
ENDBRANCH   1  24
TORSDOF 5
ENDMDL
MODEL 6
REMARK VINA RESULT:      -8.1      3.476      5.668
REMARK  Name = 
REMARK  5 active torsions:
REMARK  status: ('A' for Active; 'I' for Inactive)
REMARK    1  A    between atoms: N_6  and  S_7
REMARK    2  A    between atoms: S_7  and  C_10
REMARK    3  A    between atoms: C_11  and  N_12
REMARK    4  A    between atoms: C_13  and  C_15
REMARK    5  A    between atoms: C_18  and  N_21
REMARK                            x       y       z     vdW  Elec       q    Type
REMARK                         _______ _______ _______ _____ _____    ______ ____
ROOT
ATOM      1  C   UNL     1       2.593  -5.938  25.433  0.00  0.00    +0.130 A 
ATOM      2  C   UNL     1       1.455  -6.696  25.766  0.00  0.00    +0.031 A 
ATOM      3  C   UNL     1       0.443  -6.155  26.561  0.00  0.00    +0.002 A 
ATOM      4  C   UNL     1       0.566  -4.860  27.049  0.00  0.00    +0.002 A 
ATOM      5  C   UNL     1       1.699  -4.109  26.740  0.00  0.00    +0.025 A 
ATOM      6  C   UNL     1       2.710  -4.625  25.910  0.00  0.00    +0.061 A 
ENDROOT
BRANCH   6   7
ATOM      7  N   UNL     1       3.784  -3.746  25.684  0.00  0.00    -0.280 N 
ATOM      8  H   UNL     1       3.927  -3.481  24.722  0.00  0.00    +0.155 HD
ATOM      9  C   UNL     1       4.763  -3.430  26.611  0.00  0.00    +0.248 C 
ATOM     10  O   UNL     1       4.805  -3.891  27.749  0.00  0.00    -0.270 OA
BRANCH   9  11
ATOM     11  C   UNL     1       5.817  -2.476  26.143  0.00  0.00    +0.037 A 
ATOM     12  C   UNL     1       7.117  -2.882  25.839  0.00  0.00    +0.015 A 
ATOM     13  C   UNL     1       8.033  -1.982  25.277  0.00  0.00    +0.027 A 
ATOM     14  C   UNL     1       7.699  -0.642  25.006  0.00  0.00    +0.049 A 
ATOM     15  C   UNL     1       6.416  -0.232  25.412  0.00  0.00    +0.027 A 
ATOM     16  C   UNL     1       5.489  -1.132  25.973  0.00  0.00    +0.015 A 
BRANCH  14  17
ATOM     17  N   UNL     1       8.646   0.234  24.326  0.00  0.00    -0.284 N 
ATOM     18  C   UNL     1       8.299   0.874  23.111  0.00  0.00    +0.256 A 
ATOM     19  O   UNL     1       7.231   0.806  22.503  0.00  0.00    -0.267 OA
ATOM     20  C   UNL     1       9.328   1.772  22.506  0.00  0.00    +0.071 A 
ATOM     21  C   UNL     1      10.517   1.955  23.083  0.00  0.00    +0.007 A 
ATOM     22  C   UNL     1      10.833   1.251  24.288  0.00  0.00    +0.018 A 
ATOM     23  C   UNL     1       9.929   0.442  24.851  0.00  0.00    +0.095 A 
ENDBRANCH  14  17
ENDBRANCH   9  11
ENDBRANCH   6   7
BRANCH   1  24
ATOM     24  S   UNL     1       3.963  -6.832  24.713  0.00  0.00    +0.075 S 
ATOM     25  O   UNL     1       5.194  -6.317  25.273  0.00  0.00    -0.150 OA
ATOM     26  O   UNL     1       3.656  -8.247  24.842  0.00  0.00    -0.150 OA
BRANCH  24  32
ATOM     27 CL   UNL     1       8.054  -2.528  21.920  0.00  0.00    -0.082 Cl
ATOM     28  C   UNL     1       6.849  -3.720  22.189  0.00  0.00    +0.059 A 
ATOM     29  C   UNL     1       7.155  -5.073  22.096  0.00  0.00    +0.025 A 
ATOM     30  C   UNL     1       6.157  -6.011  22.356  0.00  0.00    +0.046 A 
ATOM     31  C   UNL     1       4.891  -5.546  22.680  0.00  0.00    +0.138 A 
ATOM     32  N   UNL     1       3.852  -6.422  23.071  0.00  0.00    -0.199 N 
ATOM     33  H   UNL     1       2.958  -5.917  22.952  0.00  0.00    +0.175 HD
ATOM     34  N   UNL     1       4.554  -4.247  22.751  0.00  0.00    -0.238 NA
ATOM     35  C   UNL     1       5.550  -3.359  22.514  0.00  0.00    +0.133 A 
ENDBRANCH  24  32
ENDBRANCH   1  24
TORSDOF 5
ENDMDL
MODEL 7
REMARK VINA RESULT:      -8.0      3.516      8.995
REMARK  Name = 
REMARK  5 active torsions:
REMARK  status: ('A' for Active; 'I' for Inactive)
REMARK    1  A    between atoms: N_6  and  S_7
REMARK    2  A    between atoms: S_7  and  C_10
REMARK    3  A    between atoms: C_11  and  N_12
REMARK    4  A    between atoms: C_13  and  C_15
REMARK    5  A    between atoms: C_18  and  N_21
REMARK                            x       y       z     vdW  Elec       q    Type
REMARK                         _______ _______ _______ _____ _____    ______ ____
ROOT
ATOM      1  C   UNL     1       9.696   4.909  24.350  0.00  0.00    +0.130 A 
ATOM      2  C   UNL     1      10.390   6.118  24.545  0.00  0.00    +0.031 A 
ATOM      3  C   UNL     1      11.704   6.268  24.099  0.00  0.00    +0.002 A 
ATOM      4  C   UNL     1      12.347   5.207  23.473  0.00  0.00    +0.002 A 
ATOM      5  C   UNL     1      11.673   4.000  23.292  0.00  0.00    +0.025 A 
ATOM      6  C   UNL     1      10.337   3.844  23.702  0.00  0.00    +0.061 A 
ENDROOT
BRANCH   6   7
ATOM      7  N   UNL     1       9.793   2.572  23.445  0.00  0.00    -0.280 N 
ATOM      8  H   UNL     1      10.324   1.796  23.809  0.00  0.00    +0.155 HD
ATOM      9  C   UNL     1       8.760   2.312  22.561  0.00  0.00    +0.248 C 
ATOM     10  O   UNL     1       8.198   3.174  21.890  0.00  0.00    -0.270 OA
BRANCH   9  11
ATOM     11  C   UNL     1       8.351   0.877  22.444  0.00  0.00    +0.037 A 
ATOM     12  C   UNL     1       9.126  -0.073  21.776  0.00  0.00    +0.015 A 
ATOM     13  C   UNL     1       8.772  -1.429  21.805  0.00  0.00    +0.027 A 
ATOM     14  C   UNL     1       7.633  -1.894  22.488  0.00  0.00    +0.049 A 
ATOM     15  C   UNL     1       6.817  -0.907  23.069  0.00  0.00    +0.027 A 
ATOM     16  C   UNL     1       7.167   0.457  23.047  0.00  0.00    +0.015 A 
BRANCH  14  17
ATOM     17  N   UNL     1       7.359  -3.324  22.582  0.00  0.00    -0.284 N 
ATOM     18  C   UNL     1       6.361  -3.926  21.778  0.00  0.00    +0.256 A 
ATOM     19  O   UNL     1       5.643  -3.383  20.938  0.00  0.00    -0.267 OA
ATOM     20  C   UNL     1       6.173  -5.400  21.929  0.00  0.00    +0.071 A 
ATOM     21  C   UNL     1       6.910  -6.110  22.785  0.00  0.00    +0.007 A 
ATOM     22  C   UNL     1       7.877  -5.446  23.605  0.00  0.00    +0.018 A 
ATOM     23  C   UNL     1       8.065  -4.127  23.489  0.00  0.00    +0.095 A 
ENDBRANCH  14  17
ENDBRANCH   9  11
ENDBRANCH   6   7
BRANCH   1  24
ATOM     24  S   UNL     1       8.167   4.713  25.254  0.00  0.00    +0.075 S 
ATOM     25  O   UNL     1       8.051   3.331  25.667  0.00  0.00    -0.150 OA
ATOM     26  O   UNL     1       8.134   5.764  26.257  0.00  0.00    -0.150 OA
BRANCH  24  32
ATOM     27 CL   UNL     1       1.954   2.673  25.809  0.00  0.00    -0.082 Cl
ATOM     28  C   UNL     1       3.391   3.455  25.292  0.00  0.00    +0.059 A 
ATOM     29  C   UNL     1       3.707   4.732  25.742  0.00  0.00    +0.025 A 
ATOM     30  C   UNL     1       4.901   5.321  25.327  0.00  0.00    +0.046 A 
ATOM     31  C   UNL     1       5.716   4.605  24.462  0.00  0.00    +0.138 A 
ATOM     32  N   UNL     1       6.995   5.073  24.083  0.00  0.00    -0.199 N 
ATOM     33  H   UNL     1       7.269   4.569  23.224  0.00  0.00    +0.175 HD
ATOM     34  N   UNL     1       5.429   3.382  23.985  0.00  0.00    -0.238 NA
ATOM     35  C   UNL     1       4.272   2.827  24.422  0.00  0.00    +0.133 A 
ENDBRANCH  24  32
ENDBRANCH   1  24
TORSDOF 5
ENDMDL
MODEL 8
REMARK VINA RESULT:      -7.8      3.105      8.390
REMARK  Name = 
REMARK  5 active torsions:
REMARK  status: ('A' for Active; 'I' for Inactive)
REMARK    1  A    between atoms: N_6  and  S_7
REMARK    2  A    between atoms: S_7  and  C_10
REMARK    3  A    between atoms: C_11  and  N_12
REMARK    4  A    between atoms: C_13  and  C_15
REMARK    5  A    between atoms: C_18  and  N_21
REMARK                            x       y       z     vdW  Elec       q    Type
REMARK                         _______ _______ _______ _____ _____    ______ ____
ROOT
ATOM      1  C   UNL     1       9.282   4.422  23.955  0.00  0.00    +0.130 A 
ATOM      2  C   UNL     1       9.921   5.669  24.091  0.00  0.00    +0.031 A 
ATOM      3  C   UNL     1      11.278   5.812  23.796  0.00  0.00    +0.002 A 
ATOM      4  C   UNL     1      12.016   4.709  23.384  0.00  0.00    +0.002 A 
ATOM      5  C   UNL     1      11.394   3.467  23.264  0.00  0.00    +0.025 A 
ATOM      6  C   UNL     1      10.021   3.313  23.521  0.00  0.00    +0.061 A 
ENDROOT
BRANCH   6   7
ATOM      7  N   UNL     1       9.539   2.003  23.351  0.00  0.00    -0.280 N 
ATOM      8  H   UNL     1       8.664   1.928  22.856  0.00  0.00    +0.155 HD
ATOM      9  C   UNL     1      10.033   0.882  23.998  0.00  0.00    +0.248 C 
ATOM     10  O   UNL     1      10.957   0.908  24.806  0.00  0.00    -0.270 OA
BRANCH   9  11
ATOM     11  C   UNL     1       9.355  -0.410  23.667  0.00  0.00    +0.037 A 
ATOM     12  C   UNL     1       9.842  -1.646  24.096  0.00  0.00    +0.015 A 
ATOM     13  C   UNL     1       9.105  -2.818  23.877  0.00  0.00    +0.027 A 
ATOM     14  C   UNL     1       7.863  -2.812  23.216  0.00  0.00    +0.049 A 
ATOM     15  C   UNL     1       7.441  -1.571  22.707  0.00  0.00    +0.027 A 
ATOM     16  C   UNL     1       8.174  -0.388  22.926  0.00  0.00    +0.015 A 
BRANCH  14  17
ATOM     17  N   UNL     1       7.080  -4.037  23.102  0.00  0.00    -0.284 N 
ATOM     18  C   UNL     1       6.268  -4.482  24.174  0.00  0.00    +0.256 A 
ATOM     19  O   UNL     1       6.103  -3.942  25.267  0.00  0.00    -0.267 OA
ATOM     20  C   UNL     1       5.484  -5.734  23.949  0.00  0.00    +0.071 A 
ATOM     21  C   UNL     1       5.552  -6.399  22.794  0.00  0.00    +0.007 A 
ATOM     22  C   UNL     1       6.420  -5.929  21.758  0.00  0.00    +0.018 A 
ATOM     23  C   UNL     1       7.132  -4.811  21.934  0.00  0.00    +0.095 A 
ENDBRANCH  14  17
ENDBRANCH   9  11
ENDBRANCH   6   7
BRANCH   1  24
ATOM     24  S   UNL     1       7.655   4.279  24.681  0.00  0.00    +0.075 S 
ATOM     25  O   UNL     1       7.141   5.609  24.925  0.00  0.00    -0.150 OA
ATOM     26  O   UNL     1       6.899   3.363  23.842  0.00  0.00    -0.150 OA
BRANCH  24  32
ATOM     27 CL   UNL     1       3.458  -0.030  27.306  0.00  0.00    -0.082 Cl
ATOM     28  C   UNL     1       4.838   0.936  26.979  0.00  0.00    +0.059 A 
ATOM     29  C   UNL     1       5.878   0.448  26.197  0.00  0.00    +0.025 A 
ATOM     30  C   UNL     1       6.967   1.275  25.925  0.00  0.00    +0.046 A 
ATOM     31  C   UNL     1       6.970   2.552  26.469  0.00  0.00    +0.138 A 
ATOM     32  N   UNL     1       7.973   3.496  26.151  0.00  0.00    -0.199 N 
ATOM     33  H   UNL     1       7.958   4.224  26.884  0.00  0.00    +0.175 HD
ATOM     34  N   UNL     1       5.995   3.046  27.251  0.00  0.00    -0.238 NA
ATOM     35  C   UNL     1       4.940   2.226  27.480  0.00  0.00    +0.133 A 
ENDBRANCH  24  32
ENDBRANCH   1  24
TORSDOF 5
ENDMDL
MODEL 9
REMARK VINA RESULT:      -7.7      3.138      5.288
REMARK  Name = 
REMARK  5 active torsions:
REMARK  status: ('A' for Active; 'I' for Inactive)
REMARK    1  A    between atoms: N_6  and  S_7
REMARK    2  A    between atoms: S_7  and  C_10
REMARK    3  A    between atoms: C_11  and  N_12
REMARK    4  A    between atoms: C_13  and  C_15
REMARK    5  A    between atoms: C_18  and  N_21
REMARK                            x       y       z     vdW  Elec       q    Type
REMARK                         _______ _______ _______ _____ _____    ______ ____
ROOT
ATOM      1  C   UNL     1       3.978  -5.386  27.585  0.00  0.00    +0.130 A 
ATOM      2  C   UNL     1       3.007  -6.245  28.136  0.00  0.00    +0.031 A 
ATOM      3  C   UNL     1       1.692  -5.814  28.318  0.00  0.00    +0.002 A 
ATOM      4  C   UNL     1       1.336  -4.516  27.973  0.00  0.00    +0.002 A 
ATOM      5  C   UNL     1       2.296  -3.653  27.444  0.00  0.00    +0.025 A 
ATOM      6  C   UNL     1       3.615  -4.082  27.220  0.00  0.00    +0.061 A 
ENDROOT
BRANCH   6   7
ATOM      7  N   UNL     1       4.463  -3.101  26.677  0.00  0.00    -0.280 N 
ATOM      8  H   UNL     1       4.907  -3.351  25.806  0.00  0.00    +0.155 HD
ATOM      9  C   UNL     1       4.903  -1.970  27.344  0.00  0.00    +0.248 C 
ATOM     10  O   UNL     1       4.599  -1.695  28.502  0.00  0.00    -0.270 OA
BRANCH   9  11
ATOM     11  C   UNL     1       5.810  -1.069  26.567  0.00  0.00    +0.037 A 
ATOM     12  C   UNL     1       7.101  -0.754  26.992  0.00  0.00    +0.015 A 
ATOM     13  C   UNL     1       7.963  -0.015  26.169  0.00  0.00    +0.027 A 
ATOM     14  C   UNL     1       7.575   0.448  24.899  0.00  0.00    +0.049 A 
ATOM     15  C   UNL     1       6.239   0.202  24.534  0.00  0.00    +0.027 A 
ATOM     16  C   UNL     1       5.368  -0.542  25.354  0.00  0.00    +0.015 A 
BRANCH  14  17
ATOM     17  N   UNL     1       8.535   1.122  24.031  0.00  0.00    -0.284 N 
ATOM     18  C   UNL     1       8.791   0.643  22.723  0.00  0.00    +0.256 A 
ATOM     19  O   UNL     1       8.276  -0.323  22.161  0.00  0.00    -0.267 OA
ATOM     20  C   UNL     1       9.771   1.417  21.904  0.00  0.00    +0.071 A 
ATOM     21  C   UNL     1      10.377   2.504  22.387  0.00  0.00    +0.007 A 
ATOM     22  C   UNL     1      10.114   2.920  23.730  0.00  0.00    +0.018 A 
ATOM     23  C   UNL     1       9.240   2.245  24.485  0.00  0.00    +0.095 A 
ENDBRANCH  14  17
ENDBRANCH   9  11
ENDBRANCH   6   7
BRANCH   1  24
ATOM     24  S   UNL     1       5.679  -5.918  27.719  0.00  0.00    +0.075 S 
ATOM     25  O   UNL     1       6.477  -4.797  28.166  0.00  0.00    -0.150 OA
ATOM     26  O   UNL     1       5.676  -7.148  28.493  0.00  0.00    -0.150 OA
BRANCH  24  32
ATOM     27 CL   UNL     1       9.904  -2.343  24.193  0.00  0.00    -0.082 Cl
ATOM     28  C   UNL     1       8.834  -3.572  24.731  0.00  0.00    +0.059 A 
ATOM     29  C   UNL     1       9.317  -4.692  25.397  0.00  0.00    +0.025 A 
ATOM     30  C   UNL     1       8.413  -5.653  25.850  0.00  0.00    +0.046 A 
ATOM     31  C   UNL     1       7.064  -5.452  25.595  0.00  0.00    +0.138 A 
ATOM     32  N   UNL     1       6.070  -6.312  26.116  0.00  0.00    -0.199 N 
ATOM     33  H   UNL     1       5.212  -6.170  25.558  0.00  0.00    +0.175 HD
ATOM     34  N   UNL     1       6.566  -4.396  24.931  0.00  0.00    -0.238 NA
ATOM     35  C   UNL     1       7.467  -3.469  24.521  0.00  0.00    +0.133 A 
ENDBRANCH  24  32
ENDBRANCH   1  24
TORSDOF 5
ENDMDL
