MODEL 1
REMARK VINA RESULT:      -8.0      0.000      0.000
REMARK  Name = 
REMARK  7 active torsions:
REMARK  status: ('A' for Active; 'I' for Inactive)
REMARK    1  A    between atoms: C_1  and  C_2
REMARK    2  A    between atoms: C_2  and  S_3
REMARK    3  A    between atoms: S_3  and  N_6
REMARK    4  A    between atoms: N_6  and  C_7
REMARK    5  A    between atoms: C_12  and  C_13
REMARK    6  A    between atoms: C_13  and  C_15
REMARK    7  A    between atoms: C_21  and  C_24
REMARK                            x       y       z     vdW  Elec       q    Type
REMARK                         _______ _______ _______ _____ _____    ______ ____
ROOT
ATOM      1  C   UNL     1       8.816  -3.918  24.341  0.00  0.00    +0.201 C 
ATOM      2  O   UNL     1       9.797  -4.636  24.517  0.00  0.00    -0.286 OA
ENDROOT
BRANCH   1   3
ATOM      3  C   UNL     1       7.632  -4.446  23.661  0.00  0.00    +0.049 A 
ATOM      4  C   UNL     1       6.450  -5.055  24.183  0.00  0.00    +0.030 A 
ATOM      5  C   UNL     1       5.723  -5.540  23.105  0.00  0.00    +0.139 A 
ATOM      6  N   UNL     1       4.612  -6.294  23.142  0.00  0.00    -0.237 NA
ATOM      7  C   UNL     1       4.220  -6.590  24.410  0.00  0.00    +0.121 A 
ATOM      8  C   UNL     1       4.796  -6.131  25.603  0.00  0.00    +0.002 A 
ATOM      9  N   UNL     1       6.333  -5.114  21.961  0.00  0.00    -0.345 N 
ATOM     10  H   UNL     1       5.986  -5.305  21.032  0.00  0.00    +0.167 HD
ATOM     11  C   UNL     1       5.920  -5.299  25.461  0.00  0.00    +0.022 A 
ATOM     12  C   UNL     1       7.481  -4.435  22.281  0.00  0.00    +0.096 A 
BRANCH   8  13
ATOM     13  C   UNL     1       4.296  -6.513  26.940  0.00  0.00    +0.002 A 
ATOM     14  C   UNL     1       2.933  -6.573  27.259  0.00  0.00    +0.011 A 
ATOM     15  C   UNL     1       2.519  -6.923  28.546  0.00  0.00    +0.020 A 
ATOM     16  C   UNL     1       3.481  -7.202  29.499  0.00  0.00    +0.111 A 
ATOM     17  N   UNL     1       4.802  -7.173  29.247  0.00  0.00    -0.263 NA
ATOM     18  C   UNL     1       5.169  -6.841  27.985  0.00  0.00    +0.119 A 
ENDBRANCH   8  13
ENDBRANCH   1   3
BRANCH   1  22
ATOM     19  C   UNL     1       9.808  -0.318  24.928  0.00  0.00    +0.084 A 
ATOM     20  C   UNL     1       9.551  -1.541  24.296  0.00  0.00    +0.159 A 
ATOM     21  F   UNL     1      10.047  -1.720  23.061  0.00  0.00    -0.203 F 
ATOM     22  C   UNL     1       8.838  -2.558  24.947  0.00  0.00    +0.094 A 
ATOM     23  C   UNL     1       8.340  -2.285  26.224  0.00  0.00    +0.137 A 
ATOM     24  F   UNL     1       7.730  -3.226  26.957  0.00  0.00    -0.205 F 
ATOM     25  C   UNL     1       8.511  -1.036  26.823  0.00  0.00    +0.041 A 
ATOM     26  C   UNL     1       9.258  -0.050  26.180  0.00  0.00    +0.030 A 
BRANCH  19  27
ATOM     27  N   UNL     1      10.717   0.621  24.354  0.00  0.00    -0.218 N 
ATOM     28  H   UNL     1      11.547   0.225  23.910  0.00  0.00    +0.173 HD
BRANCH  27  29
ATOM     29  S   UNL     1      10.139   2.003  23.590  0.00  0.00    +0.043 S 
ATOM     30  O   UNL     1       8.860   2.363  24.158  0.00  0.00    -0.155 OA
ATOM     31  O   UNL     1      11.247   2.930  23.560  0.00  0.00    -0.155 OA
BRANCH  29  33
ATOM     32  C   UNL     1       8.421   1.442  21.530  0.00  0.00    +0.030 C 
ATOM     33  C   UNL     1       9.891   1.415  21.914  0.00  0.00    +0.185 C 
ENDBRANCH  29  33
ENDBRANCH  27  29
ENDBRANCH  19  27
ENDBRANCH   1  22
TORSDOF 6
ENDMDL
MODEL 2
REMARK VINA RESULT:      -7.8      2.536      2.781
REMARK  Name = 
REMARK  7 active torsions:
REMARK  status: ('A' for Active; 'I' for Inactive)
REMARK    1  A    between atoms: C_1  and  C_2
REMARK    2  A    between atoms: C_2  and  S_3
REMARK    3  A    between atoms: S_3  and  N_6
REMARK    4  A    between atoms: N_6  and  C_7
REMARK    5  A    between atoms: C_12  and  C_13
REMARK    6  A    between atoms: C_13  and  C_15
REMARK    7  A    between atoms: C_21  and  C_24
REMARK                            x       y       z     vdW  Elec       q    Type
REMARK                         _______ _______ _______ _____ _____    ______ ____
ROOT
ATOM      1  C   UNL     1       8.316  -4.765  24.127  0.00  0.00    +0.201 C 
ATOM      2  O   UNL     1       9.179  -5.580  24.443  0.00  0.00    -0.286 OA
ENDROOT
BRANCH   1   3
ATOM      3  C   UNL     1       7.138  -5.201  23.375  0.00  0.00    +0.049 A 
ATOM      4  C   UNL     1       5.753  -4.895  23.551  0.00  0.00    +0.030 A 
ATOM      5  C   UNL     1       5.036  -5.709  22.686  0.00  0.00    +0.139 A 
ATOM      6  N   UNL     1       3.702  -5.846  22.610  0.00  0.00    -0.237 NA
ATOM      7  C   UNL     1       3.043  -5.083  23.522  0.00  0.00    +0.121 A 
ATOM      8  C   UNL     1       3.604  -4.163  24.419  0.00  0.00    +0.002 A 
ATOM      9  N   UNL     1       5.930  -6.371  21.894  0.00  0.00    -0.345 N 
ATOM     10  H   UNL     1       5.665  -7.006  21.155  0.00  0.00    +0.167 HD
ATOM     11  C   UNL     1       5.004  -4.046  24.383  0.00  0.00    +0.022 A 
ATOM     12  C   UNL     1       7.206  -6.060  22.287  0.00  0.00    +0.096 A 
BRANCH   8  13
ATOM     13  C   UNL     1       2.800  -3.377  25.379  0.00  0.00    +0.002 A 
ATOM     14  C   UNL     1       1.399  -3.385  25.390  0.00  0.00    +0.011 A 
ATOM     15  C   UNL     1       0.691  -2.609  26.309  0.00  0.00    +0.020 A 
ATOM     16  C   UNL     1       1.400  -1.829  27.203  0.00  0.00    +0.111 A 
ATOM     17  N   UNL     1       2.745  -1.791  27.247  0.00  0.00    -0.263 NA
ATOM     18  C   UNL     1       3.400  -2.565  26.349  0.00  0.00    +0.119 A 
ENDBRANCH   8  13
ENDBRANCH   1   3
BRANCH   1  22
ATOM     19  C   UNL     1       9.328  -1.126  24.258  0.00  0.00    +0.084 A 
ATOM     20  C   UNL     1       8.949  -2.385  23.775  0.00  0.00    +0.159 A 
ATOM     21  F   UNL     1       9.113  -2.625  22.464  0.00  0.00    -0.203 F 
ATOM     22  C   UNL     1       8.457  -3.375  24.638  0.00  0.00    +0.094 A 
ATOM     23  C   UNL     1       8.299  -3.039  25.986  0.00  0.00    +0.137 A 
ATOM     24  F   UNL     1       7.926  -3.947  26.898  0.00  0.00    -0.205 F 
ATOM     25  C   UNL     1       8.586  -1.756  26.458  0.00  0.00    +0.041 A 
ATOM     26  C   UNL     1       9.113  -0.798  25.595  0.00  0.00    +0.030 A 
BRANCH  19  27
ATOM     27  N   UNL     1      10.031  -0.207  23.422  0.00  0.00    -0.218 N 
ATOM     28  H   UNL     1      10.965  -0.496  23.128  0.00  0.00    +0.173 HD
BRANCH  27  29
ATOM     29  S   UNL     1       9.206   0.685  22.260  0.00  0.00    +0.043 S 
ATOM     30  O   UNL     1       9.336   0.034  20.976  0.00  0.00    -0.155 OA
ATOM     31  O   UNL     1       7.914   0.982  22.836  0.00  0.00    -0.155 OA
BRANCH  29  33
ATOM     32  C   UNL     1      10.597   2.603  23.635  0.00  0.00    +0.030 C 
ATOM     33  C   UNL     1      10.144   2.213  22.239  0.00  0.00    +0.185 C 
ENDBRANCH  29  33
ENDBRANCH  27  29
ENDBRANCH  19  27
ENDBRANCH   1  22
TORSDOF 6
ENDMDL
MODEL 3
REMARK VINA RESULT:      -7.8      3.687      9.171
REMARK  Name = 
REMARK  7 active torsions:
REMARK  status: ('A' for Active; 'I' for Inactive)
REMARK    1  A    between atoms: C_1  and  C_2
REMARK    2  A    between atoms: C_2  and  S_3
REMARK    3  A    between atoms: S_3  and  N_6
REMARK    4  A    between atoms: N_6  and  C_7
REMARK    5  A    between atoms: C_12  and  C_13
REMARK    6  A    between atoms: C_13  and  C_15
REMARK    7  A    between atoms: C_21  and  C_24
REMARK                            x       y       z     vdW  Elec       q    Type
REMARK                         _______ _______ _______ _____ _____    ______ ____
ROOT
ATOM      1  C   UNL     1       8.457  -1.255  25.498  0.00  0.00    +0.201 C 
ATOM      2  O   UNL     1       9.087  -0.664  26.372  0.00  0.00    -0.286 OA
ENDROOT
BRANCH   1   3
ATOM      3  C   UNL     1       7.828  -0.503  24.412  0.00  0.00    +0.049 A 
ATOM      4  C   UNL     1       8.162   0.762  23.836  0.00  0.00    +0.030 A 
ATOM      5  C   UNL     1       7.140   1.102  22.961  0.00  0.00    +0.139 A 
ATOM      6  N   UNL     1       6.981   2.262  22.303  0.00  0.00    -0.237 NA
ATOM      7  C   UNL     1       7.957   3.164  22.584  0.00  0.00    +0.121 A 
ATOM      8  C   UNL     1       9.089   2.963  23.387  0.00  0.00    +0.002 A 
ATOM      9  N   UNL     1       6.295   0.034  22.868  0.00  0.00    -0.345 N 
ATOM     10  H   UNL     1       5.482   0.010  22.269  0.00  0.00    +0.167 HD
ATOM     11  C   UNL     1       9.200   1.697  23.986  0.00  0.00    +0.022 A 
ATOM     12  C   UNL     1       6.707  -0.952  23.727  0.00  0.00    +0.096 A 
BRANCH   8  13
ATOM     13  C   UNL     1      10.100   4.013  23.635  0.00  0.00    +0.002 A 
ATOM     14  C   UNL     1       9.788   5.258  24.197  0.00  0.00    +0.011 A 
ATOM     15  C   UNL     1      10.782   6.219  24.392  0.00  0.00    +0.020 A 
ATOM     16  C   UNL     1      12.078   5.919  24.014  0.00  0.00    +0.111 A 
ATOM     17  N   UNL     1      12.438   4.736  23.482  0.00  0.00    -0.263 NA
ATOM     18  C   UNL     1      11.451   3.823  23.317  0.00  0.00    +0.119 A 
ENDBRANCH   8  13
ENDBRANCH   1   3
BRANCH   1  22
ATOM     19  C   UNL     1       7.777  -4.782  26.675  0.00  0.00    +0.084 A 
ATOM     20  C   UNL     1       7.638  -3.408  26.436  0.00  0.00    +0.159 A 
ATOM     21  F   UNL     1       6.706  -2.745  27.140  0.00  0.00    -0.203 F 
ATOM     22  C   UNL     1       8.470  -2.743  25.524  0.00  0.00    +0.094 A 
ATOM     23  C   UNL     1       9.401  -3.510  24.818  0.00  0.00    +0.137 A 
ATOM     24  F   UNL     1      10.299  -2.947  23.998  0.00  0.00    -0.205 F 
ATOM     25  C   UNL     1       9.482  -4.894  24.982  0.00  0.00    +0.041 A 
ATOM     26  C   UNL     1       8.676  -5.534  25.921  0.00  0.00    +0.030 A 
BRANCH  19  27
ATOM     27  N   UNL     1       7.085  -5.406  27.756  0.00  0.00    -0.218 N 
ATOM     28  H   UNL     1       7.162  -4.943  28.662  0.00  0.00    +0.173 HD
BRANCH  27  29
ATOM     29  S   UNL     1       5.592  -6.137  27.499  0.00  0.00    +0.043 S 
ATOM     30  O   UNL     1       5.318  -6.176  26.080  0.00  0.00    -0.155 OA
ATOM     31  O   UNL     1       5.595  -7.335  28.308  0.00  0.00    -0.155 OA
BRANCH  29  33
ATOM     32  C   UNL     1       4.690  -4.920  29.782  0.00  0.00    +0.030 C 
ATOM     33  C   UNL     1       4.476  -4.970  28.279  0.00  0.00    +0.185 C 
ENDBRANCH  29  33
ENDBRANCH  27  29
ENDBRANCH  19  27
ENDBRANCH   1  22
TORSDOF 6
ENDMDL
MODEL 4
REMARK VINA RESULT:      -7.8      3.723      9.078
REMARK  Name = 
REMARK  7 active torsions:
REMARK  status: ('A' for Active; 'I' for Inactive)
REMARK    1  A    between atoms: C_1  and  C_2
REMARK    2  A    between atoms: C_2  and  S_3
REMARK    3  A    between atoms: S_3  and  N_6
REMARK    4  A    between atoms: N_6  and  C_7
REMARK    5  A    between atoms: C_12  and  C_13
REMARK    6  A    between atoms: C_13  and  C_15
REMARK    7  A    between atoms: C_21  and  C_24
REMARK                            x       y       z     vdW  Elec       q    Type
REMARK                         _______ _______ _______ _____ _____    ______ ____
ROOT
ATOM      1  C   UNL     1       9.092  -0.751  24.204  0.00  0.00    +0.201 C 
ATOM      2  O   UNL     1      10.280  -0.505  24.397  0.00  0.00    -0.286 OA
ENDROOT
BRANCH   1   3
ATOM      3  C   UNL     1       8.221   0.263  23.609  0.00  0.00    +0.049 A 
ATOM      4  C   UNL     1       8.393   1.674  23.465  0.00  0.00    +0.030 A 
ATOM      5  C   UNL     1       7.193   2.192  22.997  0.00  0.00    +0.139 A 
ATOM      6  N   UNL     1       6.868   3.486  22.842  0.00  0.00    -0.237 NA
ATOM      7  C   UNL     1       7.867   4.328  23.218  0.00  0.00    +0.121 A 
ATOM      8  C   UNL     1       9.154   3.975  23.646  0.00  0.00    +0.002 A 
ATOM      9  N   UNL     1       6.368   1.144  22.707  0.00  0.00    -0.345 N 
ATOM     10  H   UNL     1       5.441   1.248  22.319  0.00  0.00    +0.167 HD
ATOM     11  C   UNL     1       9.420   2.597  23.721  0.00  0.00    +0.022 A 
ATOM     12  C   UNL     1       6.982  -0.031  23.055  0.00  0.00    +0.096 A 
BRANCH   8  13
ATOM     13  C   UNL     1      10.176   4.969  24.038  0.00  0.00    +0.002 A 
ATOM     14  C   UNL     1      11.484   4.959  23.537  0.00  0.00    +0.011 A 
ATOM     15  C   UNL     1      12.414   5.914  23.957  0.00  0.00    +0.020 A 
ATOM     16  C   UNL     1      12.017   6.863  24.880  0.00  0.00    +0.111 A 
ATOM     17  N   UNL     1      10.771   6.929  25.385  0.00  0.00    -0.263 NA
ATOM     18  C   UNL     1       9.893   5.995  24.948  0.00  0.00    +0.119 A 
ENDBRANCH   8  13
ENDBRANCH   1   3
BRANCH   1  22
ATOM     19  C   UNL     1       7.782  -4.238  23.561  0.00  0.00    +0.084 A 
ATOM     20  C   UNL     1       8.444  -3.014  23.398  0.00  0.00    +0.159 A 
ATOM     21  F   UNL     1       8.866  -2.693  22.164  0.00  0.00    -0.203 F 
ATOM     22  C   UNL     1       8.621  -2.136  24.477  0.00  0.00    +0.094 A 
ATOM     23  C   UNL     1       8.169  -2.553  25.733  0.00  0.00    +0.137 A 
ATOM     24  F   UNL     1       8.210  -1.743  26.800  0.00  0.00    -0.205 F 
ATOM     25  C   UNL     1       7.593  -3.811  25.921  0.00  0.00    +0.041 A 
ATOM     26  C   UNL     1       7.387  -4.654  24.831  0.00  0.00    +0.030 A 
BRANCH  19  27
ATOM     27  N   UNL     1       7.409  -5.020  22.427  0.00  0.00    -0.218 N 
ATOM     28  H   UNL     1       7.707  -5.997  22.441  0.00  0.00    +0.173 HD
BRANCH  27  29
ATOM     29  S   UNL     1       5.920  -4.781  21.684  0.00  0.00    +0.043 S 
ATOM     30  O   UNL     1       5.593  -3.374  21.711  0.00  0.00    -0.155 OA
ATOM     31  O   UNL     1       5.972  -5.528  20.447  0.00  0.00    -0.155 OA
BRANCH  29  33
ATOM     32  C   UNL     1       3.870  -4.707  23.500  0.00  0.00    +0.030 C 
ATOM     33  C   UNL     1       4.816  -5.660  22.790  0.00  0.00    +0.185 C 
ENDBRANCH  29  33
ENDBRANCH  27  29
ENDBRANCH  19  27
ENDBRANCH   1  22
TORSDOF 6
ENDMDL
MODEL 5
REMARK VINA RESULT:      -7.7      3.616      8.563
REMARK  Name = 
REMARK  7 active torsions:
REMARK  status: ('A' for Active; 'I' for Inactive)
REMARK    1  A    between atoms: C_1  and  C_2
REMARK    2  A    between atoms: C_2  and  S_3
REMARK    3  A    between atoms: S_3  and  N_6
REMARK    4  A    between atoms: N_6  and  C_7
REMARK    5  A    between atoms: C_12  and  C_13
REMARK    6  A    between atoms: C_13  and  C_15
REMARK    7  A    between atoms: C_21  and  C_24
REMARK                            x       y       z     vdW  Elec       q    Type
REMARK                         _______ _______ _______ _____ _____    ______ ____
ROOT
ATOM      1  C   UNL     1       8.631  -1.889  25.594  0.00  0.00    +0.201 C 
ATOM      2  O   UNL     1       8.702  -1.270  26.653  0.00  0.00    -0.286 OA
ENDROOT
BRANCH   1   3
ATOM      3  C   UNL     1       9.259  -1.352  24.387  0.00  0.00    +0.049 A 
ATOM      4  C   UNL     1       9.507  -0.004  23.984  0.00  0.00    +0.030 A 
ATOM      5  C   UNL     1       9.961  -0.040  22.673  0.00  0.00    +0.139 A 
ATOM      6  N   UNL     1      10.193   1.004  21.860  0.00  0.00    -0.237 NA
ATOM      7  C   UNL     1       9.917   2.198  22.447  0.00  0.00    +0.121 A 
ATOM      8  C   UNL     1       9.517   2.417  23.773  0.00  0.00    +0.002 A 
ATOM      9  N   UNL     1      10.145  -1.348  22.328  0.00  0.00    -0.345 N 
ATOM     10  H   UNL     1      10.501  -1.649  21.432  0.00  0.00    +0.167 HD
ATOM     11  C   UNL     1       9.358   1.267  24.564  0.00  0.00    +0.022 A 
ATOM     12  C   UNL     1       9.741  -2.154  23.360  0.00  0.00    +0.096 A 
BRANCH   8  13
ATOM     13  C   UNL     1       9.237   3.761  24.321  0.00  0.00    +0.002 A 
ATOM     14  C   UNL     1       9.941   4.908  23.931  0.00  0.00    +0.011 A 
ATOM     15  C   UNL     1       9.645   6.151  24.496  0.00  0.00    +0.020 A 
ATOM     16  C   UNL     1       8.648   6.223  25.451  0.00  0.00    +0.111 A 
ATOM     17  N   UNL     1       7.930   5.159  25.854  0.00  0.00    -0.263 NA
ATOM     18  C   UNL     1       8.236   3.972  25.278  0.00  0.00    +0.119 A 
ENDBRANCH   8  13
ENDBRANCH   1   3
BRANCH   1  22
ATOM     19  C   UNL     1       6.012  -4.586  25.196  0.00  0.00    +0.084 A 
ATOM     20  C   UNL     1       6.761  -3.418  25.000  0.00  0.00    +0.159 A 
ATOM     21  F   UNL     1       6.227  -2.460  24.224  0.00  0.00    -0.203 F 
ATOM     22  C   UNL     1       8.002  -3.238  25.625  0.00  0.00    +0.094 A 
ATOM     23  C   UNL     1       8.496  -4.292  26.401  0.00  0.00    +0.137 A 
ATOM     24  F   UNL     1       9.626  -4.173  27.110  0.00  0.00    -0.205 F 
ATOM     25  C   UNL     1       7.799  -5.496  26.525  0.00  0.00    +0.041 A 
ATOM     26  C   UNL     1       6.548  -5.642  25.931  0.00  0.00    +0.030 A 
BRANCH  19  27
ATOM     27  N   UNL     1       4.662  -4.671  24.742  0.00  0.00    -0.218 N 
ATOM     28  H   UNL     1       4.136  -3.795  24.740  0.00  0.00    +0.173 HD
BRANCH  27  29
ATOM     29  S   UNL     1       4.255  -5.702  23.478  0.00  0.00    +0.043 S 
ATOM     30  O   UNL     1       4.457  -7.071  23.895  0.00  0.00    -0.155 OA
ATOM     31  O   UNL     1       2.978  -5.237  22.985  0.00  0.00    -0.155 OA
BRANCH  29  33
ATOM     32  C   UNL     1       6.504  -6.391  22.075  0.00  0.00    +0.030 C 
ATOM     33  C   UNL     1       5.488  -5.276  22.248  0.00  0.00    +0.185 C 
ENDBRANCH  29  33
ENDBRANCH  27  29
ENDBRANCH  19  27
ENDBRANCH   1  22
TORSDOF 6
ENDMDL
MODEL 6
REMARK VINA RESULT:      -7.6      3.738      7.879
REMARK  Name = 
REMARK  7 active torsions:
REMARK  status: ('A' for Active; 'I' for Inactive)
REMARK    1  A    between atoms: C_1  and  C_2
REMARK    2  A    between atoms: C_2  and  S_3
REMARK    3  A    between atoms: S_3  and  N_6
REMARK    4  A    between atoms: N_6  and  C_7
REMARK    5  A    between atoms: C_12  and  C_13
REMARK    6  A    between atoms: C_13  and  C_15
REMARK    7  A    between atoms: C_21  and  C_24
REMARK                            x       y       z     vdW  Elec       q    Type
REMARK                         _______ _______ _______ _____ _____    ______ ____
ROOT
ATOM      1  C   UNL     1       9.465  -1.252  23.298  0.00  0.00    +0.201 C 
ATOM      2  O   UNL     1      10.518  -1.840  23.065  0.00  0.00    -0.286 OA
ENDROOT
BRANCH   1   3
ATOM      3  C   UNL     1       9.214   0.064  22.710  0.00  0.00    +0.049 A 
ATOM      4  C   UNL     1       8.789   1.289  23.311  0.00  0.00    +0.030 A 
ATOM      5  C   UNL     1       8.529   2.186  22.283  0.00  0.00    +0.139 A 
ATOM      6  N   UNL     1       7.987   3.411  22.386  0.00  0.00    -0.237 NA
ATOM      7  C   UNL     1       7.667   3.738  23.666  0.00  0.00    +0.121 A 
ATOM      8  C   UNL     1       7.920   2.984  24.821  0.00  0.00    +0.002 A 
ATOM      9  N   UNL     1       8.928   1.609  21.112  0.00  0.00    -0.345 N 
ATOM     10  H   UNL     1       8.877   2.067  20.213  0.00  0.00    +0.167 HD
ATOM     11  C   UNL     1       8.544   1.742  24.618  0.00  0.00    +0.022 A 
ATOM     12  C   UNL     1       9.361   0.331  21.356  0.00  0.00    +0.096 A 
BRANCH   8  13
ATOM     13  C   UNL     1       7.530   3.427  26.176  0.00  0.00    +0.002 A 
ATOM     14  C   UNL     1       7.065   2.549  27.164  0.00  0.00    +0.011 A 
ATOM     15  C   UNL     1       6.693   3.027  28.422  0.00  0.00    +0.020 A 
ATOM     16  C   UNL     1       6.789   4.384  28.670  0.00  0.00    +0.111 A 
ATOM     17  N   UNL     1       7.240   5.272  27.765  0.00  0.00    -0.263 NA
ATOM     18  C   UNL     1       7.603   4.773  26.559  0.00  0.00    +0.119 A 
ENDBRANCH   8  13
ENDBRANCH   1   3
BRANCH   1  22
ATOM     19  C   UNL     1       6.266  -3.110  24.076  0.00  0.00    +0.084 A 
ATOM     20  C   UNL     1       7.390  -2.620  23.397  0.00  0.00    +0.159 A 
ATOM     21  F   UNL     1       7.417  -2.753  22.061  0.00  0.00    -0.203 F 
ATOM     22  C   UNL     1       8.429  -1.977  24.084  0.00  0.00    +0.094 A 
ATOM     23  C   UNL     1       8.333  -1.896  25.476  0.00  0.00    +0.137 A 
ATOM     24  F   UNL     1       9.230  -1.218  26.205  0.00  0.00    -0.205 F 
ATOM     25  C   UNL     1       7.262  -2.464  26.169  0.00  0.00    +0.041 A 
ATOM     26  C   UNL     1       6.218  -3.064  25.468  0.00  0.00    +0.030 A 
BRANCH  19  27
ATOM     27  N   UNL     1       5.119  -3.560  23.355  0.00  0.00    -0.218 N 
ATOM     28  H   UNL     1       4.849  -2.995  22.549  0.00  0.00    +0.173 HD
BRANCH  27  29
ATOM     29  S   UNL     1       4.839  -5.204  23.149  0.00  0.00    +0.043 S 
ATOM     30  O   UNL     1       5.415  -5.930  24.258  0.00  0.00    -0.155 OA
ATOM     31  O   UNL     1       3.440  -5.326  22.803  0.00  0.00    -0.155 OA
BRANCH  29  33
ATOM     32  C   UNL     1       7.158  -6.110  22.005  0.00  0.00    +0.030 C 
ATOM     33  C   UNL     1       5.786  -5.553  21.667  0.00  0.00    +0.185 C 
ENDBRANCH  29  33
ENDBRANCH  27  29
ENDBRANCH  19  27
ENDBRANCH   1  22
TORSDOF 6
ENDMDL
MODEL 7
REMARK VINA RESULT:      -7.5      2.716      3.992
REMARK  Name = 
REMARK  7 active torsions:
REMARK  status: ('A' for Active; 'I' for Inactive)
REMARK    1  A    between atoms: C_1  and  C_2
REMARK    2  A    between atoms: C_2  and  S_3
REMARK    3  A    between atoms: S_3  and  N_6
REMARK    4  A    between atoms: N_6  and  C_7
REMARK    5  A    between atoms: C_12  and  C_13
REMARK    6  A    between atoms: C_13  and  C_15
REMARK    7  A    between atoms: C_21  and  C_24
REMARK                            x       y       z     vdW  Elec       q    Type
REMARK                         _______ _______ _______ _____ _____    ______ ____
ROOT
ATOM      1  C   UNL     1       7.278  -1.141  24.360  0.00  0.00    +0.201 C 
ATOM      2  O   UNL     1       6.106  -0.803  24.211  0.00  0.00    -0.286 OA
ENDROOT
BRANCH   1   3
ATOM      3  C   UNL     1       7.603  -2.336  25.139  0.00  0.00    +0.049 A 
ATOM      4  C   UNL     1       6.960  -3.610  25.207  0.00  0.00    +0.030 A 
ATOM      5  C   UNL     1       7.562  -4.324  26.235  0.00  0.00    +0.139 A 
ATOM      6  N   UNL     1       7.188  -5.515  26.729  0.00  0.00    -0.237 NA
ATOM      7  C   UNL     1       6.081  -6.013  26.119  0.00  0.00    +0.121 A 
ATOM      8  C   UNL     1       5.393  -5.459  25.029  0.00  0.00    +0.002 A 
ATOM      9  N   UNL     1       8.632  -3.601  26.677  0.00  0.00    -0.345 N 
ATOM     10  H   UNL     1       9.261  -3.913  27.403  0.00  0.00    +0.167 HD
ATOM     11  C   UNL     1       5.895  -4.240  24.543  0.00  0.00    +0.022 A 
ATOM     12  C   UNL     1       8.681  -2.402  26.012  0.00  0.00    +0.096 A 
BRANCH   8  13
ATOM     13  C   UNL     1       4.191  -6.079  24.434  0.00  0.00    +0.002 A 
ATOM     14  C   UNL     1       3.369  -5.421  23.510  0.00  0.00    +0.011 A 
ATOM     15  C   UNL     1       2.234  -6.050  22.993  0.00  0.00    +0.020 A 
ATOM     16  C   UNL     1       1.936  -7.331  23.417  0.00  0.00    +0.111 A 
ATOM     17  N   UNL     1       2.695  -8.017  24.291  0.00  0.00    -0.263 NA
ATOM     18  C   UNL     1       3.795  -7.382  24.764  0.00  0.00    +0.119 A 
ENDBRANCH   8  13
ENDBRANCH   1   3
BRANCH   1  22
ATOM     19  C   UNL     1       9.565   1.718  23.419  0.00  0.00    +0.084 A 
ATOM     20  C   UNL     1       8.774   0.837  24.169  0.00  0.00    +0.159 A 
ATOM     21  F   UNL     1       8.436   1.211  25.414  0.00  0.00    -0.203 F 
ATOM     22  C   UNL     1       8.317  -0.371  23.623  0.00  0.00    +0.094 A 
ATOM     23  C   UNL     1       8.729  -0.694  22.327  0.00  0.00    +0.137 A 
ATOM     24  F   UNL     1       8.267  -1.779  21.692  0.00  0.00    -0.205 F 
ATOM     25  C   UNL     1       9.594   0.134  21.608  0.00  0.00    +0.041 A 
ATOM     26  C   UNL     1      10.005   1.351  22.149  0.00  0.00    +0.030 A 
BRANCH  19  27
ATOM     27  N   UNL     1       9.838   3.035  23.894  0.00  0.00    -0.218 N 
ATOM     28  H   UNL     1      10.762   3.409  23.669  0.00  0.00    +0.173 HD
BRANCH  27  29
ATOM     29  S   UNL     1       8.627   4.201  23.908  0.00  0.00    +0.043 S 
ATOM     30  O   UNL     1       7.756   3.999  22.772  0.00  0.00    -0.155 OA
ATOM     31  O   UNL     1       8.119   4.227  25.261  0.00  0.00    -0.155 OA
BRANCH  29  33
ATOM     32  C   UNL     1      11.062   5.440  23.707  0.00  0.00    +0.030 C 
ATOM     33  C   UNL     1       9.567   5.708  23.664  0.00  0.00    +0.185 C 
ENDBRANCH  29  33
ENDBRANCH  27  29
ENDBRANCH  19  27
ENDBRANCH   1  22
TORSDOF 6
ENDMDL
MODEL 8
REMARK VINA RESULT:      -7.5      3.351      4.947
REMARK  Name = 
REMARK  7 active torsions:
REMARK  status: ('A' for Active; 'I' for Inactive)
REMARK    1  A    between atoms: C_1  and  C_2
REMARK    2  A    between atoms: C_2  and  S_3
REMARK    3  A    between atoms: S_3  and  N_6
REMARK    4  A    between atoms: N_6  and  C_7
REMARK    5  A    between atoms: C_12  and  C_13
REMARK    6  A    between atoms: C_13  and  C_15
REMARK    7  A    between atoms: C_21  and  C_24
REMARK                            x       y       z     vdW  Elec       q    Type
REMARK                         _______ _______ _______ _____ _____    ______ ____
ROOT
ATOM      1  C   UNL     1      10.073   0.667  24.325  0.00  0.00    +0.201 C 
ATOM      2  O   UNL     1      10.959   0.372  25.123  0.00  0.00    -0.286 OA
ENDROOT
BRANCH   1   3
ATOM      3  C   UNL     1       9.532  -0.349  23.421  0.00  0.00    +0.049 A 
ATOM      4  C   UNL     1       8.747  -1.513  23.688  0.00  0.00    +0.030 A 
ATOM      5  C   UNL     1       8.655  -2.231  22.504  0.00  0.00    +0.139 A 
ATOM      6  N   UNL     1       8.119  -3.450  22.327  0.00  0.00    -0.237 NA
ATOM      7  C   UNL     1       7.646  -3.988  23.482  0.00  0.00    +0.121 A 
ATOM      8  C   UNL     1       7.599  -3.377  24.744  0.00  0.00    +0.002 A 
ATOM      9  N   UNL     1       9.212  -1.477  21.511  0.00  0.00    -0.345 N 
ATOM     10  H   UNL     1       9.246  -1.759  20.542  0.00  0.00    +0.167 HD
ATOM     11  C   UNL     1       8.130  -2.078  24.816  0.00  0.00    +0.022 A 
ATOM     12  C   UNL     1       9.732  -0.327  22.047  0.00  0.00    +0.096 A 
BRANCH   8  13
ATOM     13  C   UNL     1       7.064  -4.049  25.947  0.00  0.00    +0.002 A 
ATOM     14  C   UNL     1       5.850  -3.690  26.547  0.00  0.00    +0.011 A 
ATOM     15  C   UNL     1       5.403  -4.348  27.695  0.00  0.00    +0.020 A 
ATOM     16  C   UNL     1       6.184  -5.356  28.228  0.00  0.00    +0.111 A 
ATOM     17  N   UNL     1       7.352  -5.751  27.687  0.00  0.00    -0.263 NA
ATOM     18  C   UNL     1       7.750  -5.100  26.569  0.00  0.00    +0.119 A 
ENDBRANCH   8  13
ENDBRANCH   1   3
BRANCH   1  22
ATOM     19  C   UNL     1       7.523   3.418  24.789  0.00  0.00    +0.084 A 
ATOM     20  C   UNL     1       8.202   2.199  24.910  0.00  0.00    +0.159 A 
ATOM     21  F   UNL     1       7.550   1.178  25.490  0.00  0.00    -0.203 F 
ATOM     22  C   UNL     1       9.500   2.038  24.404  0.00  0.00    +0.094 A 
ATOM     23  C   UNL     1      10.115   3.156  23.832  0.00  0.00    +0.137 A 
ATOM     24  F   UNL     1      11.314   3.072  23.240  0.00  0.00    -0.205 F 
ATOM     25  C   UNL     1       9.481   4.399  23.793  0.00  0.00    +0.041 A 
ATOM     26  C   UNL     1       8.175   4.531  24.262  0.00  0.00    +0.030 A 
BRANCH  19  27
ATOM     27  N   UNL     1       6.133   3.511  25.101  0.00  0.00    -0.218 N 
ATOM     28  H   UNL     1       5.851   4.329  25.644  0.00  0.00    +0.173 HD
BRANCH  27  29
ATOM     29  S   UNL     1       4.978   3.014  23.985  0.00  0.00    +0.043 S 
ATOM     30  O   UNL     1       5.622   2.742  22.720  0.00  0.00    -0.155 OA
ATOM     31  O   UNL     1       4.178   2.019  24.662  0.00  0.00    -0.155 OA
BRANCH  29  33
ATOM     32  C   UNL     1       4.726   5.601  23.119  0.00  0.00    +0.030 C 
ATOM     33  C   UNL     1       3.970   4.488  23.823  0.00  0.00    +0.185 C 
ENDBRANCH  29  33
ENDBRANCH  27  29
ENDBRANCH  19  27
ENDBRANCH   1  22
TORSDOF 6
ENDMDL
MODEL 9
REMARK VINA RESULT:      -7.5      2.338      3.596
REMARK  Name = 
REMARK  7 active torsions:
REMARK  status: ('A' for Active; 'I' for Inactive)
REMARK    1  A    between atoms: C_1  and  C_2
REMARK    2  A    between atoms: C_2  and  S_3
REMARK    3  A    between atoms: S_3  and  N_6
REMARK    4  A    between atoms: N_6  and  C_7
REMARK    5  A    between atoms: C_12  and  C_13
REMARK    6  A    between atoms: C_13  and  C_15
REMARK    7  A    between atoms: C_21  and  C_24
REMARK                            x       y       z     vdW  Elec       q    Type
REMARK                         _______ _______ _______ _____ _____    ______ ____
ROOT
ATOM      1  C   UNL     1       6.969  -2.235  24.764  0.00  0.00    +0.201 C 
ATOM      2  O   UNL     1       5.960  -1.536  24.725  0.00  0.00    -0.286 OA
ENDROOT
BRANCH   1   3
ATOM      3  C   UNL     1       6.955  -3.502  25.497  0.00  0.00    +0.049 A 
ATOM      4  C   UNL     1       6.079  -4.626  25.401  0.00  0.00    +0.030 A 
ATOM      5  C   UNL     1       6.393  -5.486  26.444  0.00  0.00    +0.139 A 
ATOM      6  N   UNL     1       5.737  -6.601  26.809  0.00  0.00    -0.237 NA
ATOM      7  C   UNL     1       4.646  -6.845  26.037  0.00  0.00    +0.121 A 
ATOM      8  C   UNL     1       4.226  -6.122  24.911  0.00  0.00    +0.002 A 
ATOM      9  N   UNL     1       7.513  -5.008  27.060  0.00  0.00    -0.345 N 
ATOM     10  H   UNL     1       7.969  -5.467  27.835  0.00  0.00    +0.167 HD
ATOM     11  C   UNL     1       5.010  -5.006  24.572  0.00  0.00    +0.022 A 
ATOM     12  C   UNL     1       7.876  -3.816  26.488  0.00  0.00    +0.096 A 
BRANCH   8  13
ATOM     13  C   UNL     1       3.018  -6.467  24.134  0.00  0.00    +0.002 A 
ATOM     14  C   UNL     1       2.287  -5.526  23.397  0.00  0.00    +0.011 A 
ATOM     15  C   UNL     1       1.141  -5.906  22.695  0.00  0.00    +0.020 A 
ATOM     16  C   UNL     1       0.740  -7.228  22.748  0.00  0.00    +0.111 A 
ATOM     17  N   UNL     1       1.409  -8.177  23.429  0.00  0.00    -0.263 NA
ATOM     18  C   UNL     1       2.522  -7.776  24.088  0.00  0.00    +0.119 A 
ENDBRANCH   8  13
ENDBRANCH   1   3
BRANCH   1  22
ATOM     19  C   UNL     1       9.910  -0.163  23.603  0.00  0.00    +0.084 A 
ATOM     20  C   UNL     1       8.949  -0.768  24.424  0.00  0.00    +0.159 A 
ATOM     21  F   UNL     1       8.805  -0.289  25.671  0.00  0.00    -0.203 F 
ATOM     22  C   UNL     1       8.138  -1.807  23.948  0.00  0.00    +0.094 A 
ATOM     23  C   UNL     1       8.364  -2.261  22.644  0.00  0.00    +0.137 A 
ATOM     24  F   UNL     1       7.577  -3.183  22.074  0.00  0.00    -0.205 F 
ATOM     25  C   UNL     1       9.382  -1.727  21.852  0.00  0.00    +0.041 A 
ATOM     26  C   UNL     1      10.152  -0.666  22.326  0.00  0.00    +0.030 A 
BRANCH  19  27
ATOM     27  N   UNL     1      10.573   1.031  24.016  0.00  0.00    -0.218 N 
ATOM     28  H   UNL     1      11.585   1.049  23.884  0.00  0.00    +0.173 HD
BRANCH  27  29
ATOM     29  S   UNL     1       9.839   2.528  23.793  0.00  0.00    +0.043 S 
ATOM     30  O   UNL     1       8.928   2.781  24.885  0.00  0.00    -0.155 OA
ATOM     31  O   UNL     1      10.907   3.445  23.464  0.00  0.00    -0.155 OA
BRANCH  29  33
ATOM     32  C   UNL     1       7.401   2.302  22.565  0.00  0.00    +0.030 C 
ATOM     33  C   UNL     1       8.895   2.252  22.294  0.00  0.00    +0.185 C 
ENDBRANCH  29  33
ENDBRANCH  27  29
ENDBRANCH  19  27
ENDBRANCH   1  22
TORSDOF 6
ENDMDL
