MODEL 1
REMARK VINA RESULT:      -7.3      0.000      0.000
REMARK  Name = 
REMARK  6 active torsions:
REMARK  status: ('A' for Active; 'I' for Inactive)
REMARK    1  A    between atoms: O_1  and  C_2
REMARK    2  A    between atoms: C_2  and  C_3
REMARK    3  A    between atoms: C_3  and  O_4
REMARK    4  A    between atoms: O_4  and  C_5
REMARK    5  A    between atoms: C_5  and  C_6
REMARK    6  A    between atoms: C_6  and  N_7
REMARK                            x       y       z     vdW  Elec       q    Type
REMARK                         _______ _______ _______ _____ _____    ______ ____
ROOT
ATOM      1  N   UNL     1       9.963   1.959  23.210  0.00  0.00    -0.293 NA
ATOM      2  C   UNL     1       9.499   1.160  22.050  0.00  0.00    +0.128 C 
ATOM      3  C   UNL     1       8.144   0.440  22.243  0.00  0.00    +0.241 C 
ATOM      4  N   UNL     1       8.082  -0.291  23.519  0.00  0.00    -0.218 N 
ATOM      5  C   UNL     1       7.544  -1.576  23.592  0.00  0.00    +0.322 C 
ATOM      6  C   UNL     1       6.802  -1.942  24.847  0.00  0.00    +0.079 A 
ATOM      7  C   UNL     1       7.074  -3.105  25.574  0.00  0.00    +0.028 A 
ATOM      8  C   UNL     1       6.407  -3.327  26.787  0.00  0.00    +0.016 A 
ATOM      9  C   UNL     1       5.488  -2.395  27.277  0.00  0.00    +0.001 A 
ATOM     10  C   UNL     1       5.217  -1.239  26.553  0.00  0.00    +0.001 A 
ATOM     11  S   UNL     1       8.223  -4.340  25.006  0.00  0.00    -0.084 S 
ATOM     12  C   UNL     1       7.411  -4.682  23.452  0.00  0.00    +0.063 A 
ATOM     13  C   UNL     1       7.220  -3.685  22.477  0.00  0.00    +0.190 A 
ATOM     14  C   UNL     1       6.599  -4.048  21.274  0.00  0.00    +0.056 A 
ATOM     15  C   UNL     1       6.126  -5.345  21.060  0.00  0.00    +0.004 A 
ATOM     16  C   UNL     1       6.278  -6.310  22.051  0.00  0.00    +0.001 A 
ATOM     17  C   UNL     1       6.926  -5.982  23.241  0.00  0.00    +0.019 A 
ATOM     18  C   UNL     1       5.863  -1.017  25.337  0.00  0.00    +0.017 A 
ATOM     19  N   UNL     1       7.698  -2.367  22.562  0.00  0.00    -0.040 NA
ATOM     20  C   UNL     1       8.593   0.428  24.692  0.00  0.00    +0.241 C 
ATOM     21  C   UNL     1       9.959   1.073  24.391  0.00  0.00    +0.128 C 
ENDROOT
BRANCH   1  22
ATOM     22  C   UNL     1       9.152   3.183  23.383  0.00  0.00    +0.112 C 
BRANCH  22  23
ATOM     23  C   UNL     1       9.946   4.444  23.777  0.00  0.00    +0.175 C 
BRANCH  23  24
ATOM     24  O   UNL     1      11.312   4.297  23.396  0.00  0.00    -0.376 OA
BRANCH  24  25
ATOM     25  C   UNL     1      12.052   5.497  23.586  0.00  0.00    +0.187 C 
BRANCH  25  26
ATOM     26  C   UNL     1      13.180   5.543  22.565  0.00  0.00    +0.184 C 
BRANCH  26  27
ATOM     27  O   UNL     1      14.381   5.041  23.136  0.00  0.00    -0.393 OA
ATOM     28  H   UNL     1      15.073   5.146  22.461  0.00  0.00    +0.209 HD
ENDBRANCH  26  27
ENDBRANCH  25  26
ENDBRANCH  24  25
ENDBRANCH  23  24
ENDBRANCH  22  23
ENDBRANCH   1  22
TORSDOF 6
ENDMDL
MODEL 2
REMARK VINA RESULT:      -6.9      1.924      2.512
REMARK  Name = 
REMARK  6 active torsions:
REMARK  status: ('A' for Active; 'I' for Inactive)
REMARK    1  A    between atoms: O_1  and  C_2
REMARK    2  A    between atoms: C_2  and  C_3
REMARK    3  A    between atoms: C_3  and  O_4
REMARK    4  A    between atoms: O_4  and  C_5
REMARK    5  A    between atoms: C_5  and  C_6
REMARK    6  A    between atoms: C_6  and  N_7
REMARK                            x       y       z     vdW  Elec       q    Type
REMARK                         _______ _______ _______ _____ _____    ______ ____
ROOT
ATOM      1  N   UNL     1       9.069   1.303  22.584  0.00  0.00    -0.293 NA
ATOM      2  C   UNL     1       7.605   1.071  22.613  0.00  0.00    +0.128 C 
ATOM      3  C   UNL     1       7.112   0.091  23.703  0.00  0.00    +0.241 C 
ATOM      4  N   UNL     1       7.901  -1.151  23.729  0.00  0.00    -0.218 N 
ATOM      5  C   UNL     1       7.288  -2.397  23.861  0.00  0.00    +0.322 C 
ATOM      6  C   UNL     1       8.030  -3.451  24.635  0.00  0.00    +0.079 A 
ATOM      7  C   UNL     1       8.251  -4.738  24.136  0.00  0.00    +0.028 A 
ATOM      8  C   UNL     1       9.037  -5.634  24.876  0.00  0.00    +0.016 A 
ATOM      9  C   UNL     1       9.604  -5.249  26.093  0.00  0.00    +0.001 A 
ATOM     10  C   UNL     1       9.382  -3.968  26.589  0.00  0.00    +0.001 A 
ATOM     11  S   UNL     1       7.551  -5.302  22.600  0.00  0.00    -0.084 S 
ATOM     12  C   UNL     1       5.842  -5.025  23.036  0.00  0.00    +0.063 A 
ATOM     13  C   UNL     1       5.356  -3.748  23.372  0.00  0.00    +0.190 A 
ATOM     14  C   UNL     1       3.994  -3.616  23.673  0.00  0.00    +0.056 A 
ATOM     15  C   UNL     1       3.143  -4.724  23.699  0.00  0.00    +0.004 A 
ATOM     16  C   UNL     1       3.645  -5.989  23.411  0.00  0.00    +0.001 A 
ATOM     17  C   UNL     1       4.988  -6.139  23.073  0.00  0.00    +0.019 A 
ATOM     18  C   UNL     1       8.589  -3.075  25.869  0.00  0.00    +0.017 A 
ATOM     19  N   UNL     1       6.104  -2.560  23.329  0.00  0.00    -0.040 NA
ATOM     20  C   UNL     1       9.356  -0.984  23.634  0.00  0.00    +0.241 C 
ATOM     21  C   UNL     1       9.727  -0.015  22.495  0.00  0.00    +0.128 C 
ENDROOT
BRANCH   1  22
ATOM     22  C   UNL     1       9.512   2.111  23.741  0.00  0.00    +0.112 C 
BRANCH  22  23
ATOM     23  C   UNL     1       9.903   3.565  23.412  0.00  0.00    +0.175 C 
BRANCH  23  24
ATOM     24  O   UNL     1      11.323   3.695  23.399  0.00  0.00    -0.376 OA
BRANCH  24  25
ATOM     25  C   UNL     1      11.738   5.046  23.560  0.00  0.00    +0.187 C 
BRANCH  25  26
ATOM     26  C   UNL     1      12.872   5.329  22.584  0.00  0.00    +0.184 C 
BRANCH  26  27
ATOM     27  O   UNL     1      14.123   5.006  23.178  0.00  0.00    -0.393 OA
ATOM     28  H   UNL     1      14.550   4.362  22.587  0.00  0.00    +0.209 HD
ENDBRANCH  26  27
ENDBRANCH  25  26
ENDBRANCH  24  25
ENDBRANCH  23  24
ENDBRANCH  22  23
ENDBRANCH   1  22
TORSDOF 6
ENDMDL
MODEL 3
REMARK VINA RESULT:      -6.8      2.584      4.787
REMARK  Name = 
REMARK  6 active torsions:
REMARK  status: ('A' for Active; 'I' for Inactive)
REMARK    1  A    between atoms: O_1  and  C_2
REMARK    2  A    between atoms: C_2  and  C_3
REMARK    3  A    between atoms: C_3  and  O_4
REMARK    4  A    between atoms: O_4  and  C_5
REMARK    5  A    between atoms: C_5  and  C_6
REMARK    6  A    between atoms: C_6  and  N_7
REMARK                            x       y       z     vdW  Elec       q    Type
REMARK                         _______ _______ _______ _____ _____    ______ ____
ROOT
ATOM      1  N   UNL     1       8.769  -0.070  25.093  0.00  0.00    -0.293 NA
ATOM      2  C   UNL     1       8.498  -0.778  26.367  0.00  0.00    +0.128 C 
ATOM      3  C   UNL     1       8.405  -2.317  26.261  0.00  0.00    +0.241 C 
ATOM      4  N   UNL     1       7.531  -2.745  25.157  0.00  0.00    -0.218 N 
ATOM      5  C   UNL     1       6.614  -3.784  25.319  0.00  0.00    +0.322 C 
ATOM      6  C   UNL     1       6.358  -4.668  24.131  0.00  0.00    +0.079 A 
ATOM      7  C   UNL     1       5.071  -4.954  23.666  0.00  0.00    +0.028 A 
ATOM      8  C   UNL     1       4.917  -5.707  22.492  0.00  0.00    +0.016 A 
ATOM      9  C   UNL     1       6.033  -6.160  21.784  0.00  0.00    +0.001 A 
ATOM     10  C   UNL     1       7.314  -5.876  22.248  0.00  0.00    +0.001 A 
ATOM     11  S   UNL     1       3.605  -4.420  24.522  0.00  0.00    -0.084 S 
ATOM     12  C   UNL     1       3.963  -5.228  26.074  0.00  0.00    +0.063 A 
ATOM     13  C   UNL     1       5.119  -4.929  26.819  0.00  0.00    +0.190 A 
ATOM     14  C   UNL     1       5.307  -5.589  28.041  0.00  0.00    +0.056 A 
ATOM     15  C   UNL     1       4.410  -6.562  28.489  0.00  0.00    +0.004 A 
ATOM     16  C   UNL     1       3.296  -6.883  27.721  0.00  0.00    +0.001 A 
ATOM     17  C   UNL     1       3.068  -6.213  26.520  0.00  0.00    +0.019 A 
ATOM     18  C   UNL     1       7.477  -5.142  23.423  0.00  0.00    +0.017 A 
ATOM     19  N   UNL     1       6.059  -3.937  26.493  0.00  0.00    -0.040 NA
ATOM     20  C   UNL     1       7.710  -2.030  23.888  0.00  0.00    +0.241 C 
ATOM     21  C   UNL     1       7.754  -0.507  24.115  0.00  0.00    +0.128 C 
ENDROOT
BRANCH   1  22
ATOM     22  C   UNL     1      10.161  -0.285  24.640  0.00  0.00    +0.112 C 
BRANCH  22  23
ATOM     23  C   UNL     1      10.965   1.000  24.361  0.00  0.00    +0.175 C 
BRANCH  23  24
ATOM     24  O   UNL     1      10.124   2.141  24.512  0.00  0.00    -0.376 OA
BRANCH  24  25
ATOM     25  C   UNL     1      10.133   2.968  23.354  0.00  0.00    +0.187 C 
BRANCH  25  26
ATOM     26  C   UNL     1       8.969   2.568  22.458  0.00  0.00    +0.184 C 
BRANCH  26  27
ATOM     27  O   UNL     1       9.452   1.947  21.274  0.00  0.00    -0.393 OA
ATOM     28  H   UNL     1       9.388   2.612  20.567  0.00  0.00    +0.209 HD
ENDBRANCH  26  27
ENDBRANCH  25  26
ENDBRANCH  24  25
ENDBRANCH  23  24
ENDBRANCH  22  23
ENDBRANCH   1  22
TORSDOF 6
ENDMDL
MODEL 4
REMARK VINA RESULT:      -6.6      3.986      7.947
REMARK  Name = 
REMARK  6 active torsions:
REMARK  status: ('A' for Active; 'I' for Inactive)
REMARK    1  A    between atoms: O_1  and  C_2
REMARK    2  A    between atoms: C_2  and  C_3
REMARK    3  A    between atoms: C_3  and  O_4
REMARK    4  A    between atoms: O_4  and  C_5
REMARK    5  A    between atoms: C_5  and  C_6
REMARK    6  A    between atoms: C_6  and  N_7
REMARK                            x       y       z     vdW  Elec       q    Type
REMARK                         _______ _______ _______ _____ _____    ______ ____
ROOT
ATOM      1  N   UNL     1       9.159  -2.768  23.088  0.00  0.00    -0.293 NA
ATOM      2  C   UNL     1      10.174  -1.692  23.197  0.00  0.00    +0.128 C 
ATOM      3  C   UNL     1       9.814  -0.540  24.163  0.00  0.00    +0.241 C 
ATOM      4  N   UNL     1       8.449  -0.036  23.940  0.00  0.00    -0.218 N 
ATOM      5  C   UNL     1       8.174   1.331  23.932  0.00  0.00    +0.322 C 
ATOM      6  C   UNL     1       6.843   1.768  24.479  0.00  0.00    +0.079 A 
ATOM      7  C   UNL     1       5.980   2.615  23.777  0.00  0.00    +0.028 A 
ATOM      8  C   UNL     1       4.714   2.899  24.311  0.00  0.00    +0.016 A 
ATOM      9  C   UNL     1       4.308   2.336  25.523  0.00  0.00    +0.001 A 
ATOM     10  C   UNL     1       5.168   1.494  26.222  0.00  0.00    +0.001 A 
ATOM     11  S   UNL     1       6.434   3.377  22.234  0.00  0.00    -0.084 S 
ATOM     12  C   UNL     1       7.881   4.230  22.840  0.00  0.00    +0.063 A 
ATOM     13  C   UNL     1       8.972   3.539  23.401  0.00  0.00    +0.190 A 
ATOM     14  C   UNL     1      10.080   4.285  23.824  0.00  0.00    +0.056 A 
ATOM     15  C   UNL     1      10.090   5.680  23.751  0.00  0.00    +0.004 A 
ATOM     16  C   UNL     1       8.987   6.355  23.239  0.00  0.00    +0.001 A 
ATOM     17  C   UNL     1       7.888   5.632  22.777  0.00  0.00    +0.019 A 
ATOM     18  C   UNL     1       6.435   1.219  25.708  0.00  0.00    +0.017 A 
ATOM     19  N   UNL     1       9.093   2.142  23.477  0.00  0.00    -0.040 NA
ATOM     20  C   UNL     1       7.413  -1.060  23.757  0.00  0.00    +0.241 C 
ATOM     21  C   UNL     1       7.870  -2.133  22.751  0.00  0.00    +0.128 C 
ENDROOT
BRANCH   1  22
ATOM     22  C   UNL     1       9.112  -3.594  24.314  0.00  0.00    +0.112 C 
BRANCH  22  23
ATOM     23  C   UNL     1       8.322  -4.911  24.187  0.00  0.00    +0.175 C 
BRANCH  23  24
ATOM     24  O   UNL     1       7.198  -4.890  25.063  0.00  0.00    -0.376 OA
BRANCH  24  25
ATOM     25  C   UNL     1       7.473  -4.185  26.268  0.00  0.00    +0.187 C 
BRANCH  25  26
ATOM     26  C   UNL     1       6.789  -4.904  27.422  0.00  0.00    +0.184 C 
BRANCH  26  27
ATOM     27  O   UNL     1       7.569  -6.018  27.839  0.00  0.00    -0.393 OA
ATOM     28  H   UNL     1       8.494  -5.717  27.850  0.00  0.00    +0.209 HD
ENDBRANCH  26  27
ENDBRANCH  25  26
ENDBRANCH  24  25
ENDBRANCH  23  24
ENDBRANCH  22  23
ENDBRANCH   1  22
TORSDOF 6
ENDMDL
MODEL 5
REMARK VINA RESULT:      -6.6      3.896      8.006
REMARK  Name = 
REMARK  6 active torsions:
REMARK  status: ('A' for Active; 'I' for Inactive)
REMARK    1  A    between atoms: O_1  and  C_2
REMARK    2  A    between atoms: C_2  and  C_3
REMARK    3  A    between atoms: C_3  and  O_4
REMARK    4  A    between atoms: O_4  and  C_5
REMARK    5  A    between atoms: C_5  and  C_6
REMARK    6  A    between atoms: C_6  and  N_7
REMARK                            x       y       z     vdW  Elec       q    Type
REMARK                         _______ _______ _______ _____ _____    ______ ____
ROOT
ATOM      1  N   UNL     1       9.087  -2.724  23.213  0.00  0.00    -0.293 NA
ATOM      2  C   UNL     1      10.162  -1.711  23.083  0.00  0.00    +0.128 C 
ATOM      3  C   UNL     1      10.113  -0.561  24.115  0.00  0.00    +0.241 C 
ATOM      4  N   UNL     1       8.768   0.026  24.227  0.00  0.00    -0.218 N 
ATOM      5  C   UNL     1       8.583   1.407  24.294  0.00  0.00    +0.322 C 
ATOM      6  C   UNL     1       7.450   1.909  25.146  0.00  0.00    +0.079 A 
ATOM      7  C   UNL     1       6.498   2.819  24.675  0.00  0.00    +0.028 A 
ATOM      8  C   UNL     1       5.415   3.165  25.497  0.00  0.00    +0.016 A 
ATOM      9  C   UNL     1       5.276   2.602  26.768  0.00  0.00    +0.001 A 
ATOM     10  C   UNL     1       6.224   1.696  27.235  0.00  0.00    +0.001 A 
ATOM     11  S   UNL     1       6.618   3.586  23.073  0.00  0.00    -0.084 S 
ATOM     12  C   UNL     1       8.218   4.340  23.321  0.00  0.00    +0.063 A 
ATOM     13  C   UNL     1       9.366   3.575  23.601  0.00  0.00    +0.190 A 
ATOM     14  C   UNL     1      10.587   4.247  23.753  0.00  0.00    +0.056 A 
ATOM     15  C   UNL     1      10.664   5.640  23.688  0.00  0.00    +0.004 A 
ATOM     16  C   UNL     1       9.514   6.388  23.458  0.00  0.00    +0.001 A 
ATOM     17  C   UNL     1       8.295   5.740  23.267  0.00  0.00    +0.019 A 
ATOM     18  C   UNL     1       7.313   1.359  26.432  0.00  0.00    +0.017 A 
ATOM     19  N   UNL     1       9.416   2.172  23.637  0.00  0.00    -0.040 NA
ATOM     20  C   UNL     1       7.658  -0.932  24.290  0.00  0.00    +0.241 C 
ATOM     21  C   UNL     1       7.796  -2.008  23.197  0.00  0.00    +0.128 C 
ENDROOT
BRANCH   1  22
ATOM     22  C   UNL     1       9.282  -3.571  24.409  0.00  0.00    +0.112 C 
BRANCH  22  23
ATOM     23  C   UNL     1       8.283  -4.735  24.558  0.00  0.00    +0.175 C 
BRANCH  23  24
ATOM     24  O   UNL     1       8.205  -5.468  23.338  0.00  0.00    -0.376 OA
BRANCH  24  25
ATOM     25  C   UNL     1       6.860  -5.668  22.919  0.00  0.00    +0.187 C 
BRANCH  25  26
ATOM     26  C   UNL     1       6.822  -5.701  21.397  0.00  0.00    +0.184 C 
BRANCH  26  27
ATOM     27  O   UNL     1       5.881  -4.754  20.909  0.00  0.00    -0.393 OA
ATOM     28  H   UNL     1       6.054  -4.659  19.957  0.00  0.00    +0.209 HD
ENDBRANCH  26  27
ENDBRANCH  25  26
ENDBRANCH  24  25
ENDBRANCH  23  24
ENDBRANCH  22  23
ENDBRANCH   1  22
TORSDOF 6
ENDMDL
MODEL 6
REMARK VINA RESULT:      -6.5      1.399      1.911
REMARK  Name = 
REMARK  6 active torsions:
REMARK  status: ('A' for Active; 'I' for Inactive)
REMARK    1  A    between atoms: O_1  and  C_2
REMARK    2  A    between atoms: C_2  and  C_3
REMARK    3  A    between atoms: C_3  and  O_4
REMARK    4  A    between atoms: O_4  and  C_5
REMARK    5  A    between atoms: C_5  and  C_6
REMARK    6  A    between atoms: C_6  and  N_7
REMARK                            x       y       z     vdW  Elec       q    Type
REMARK                         _______ _______ _______ _____ _____    ______ ____
ROOT
ATOM      1  N   UNL     1      10.100   1.943  23.204  0.00  0.00    -0.293 NA
ATOM      2  C   UNL     1       9.632   1.148  22.042  0.00  0.00    +0.128 C 
ATOM      3  C   UNL     1       8.273   0.437  22.233  0.00  0.00    +0.241 C 
ATOM      4  N   UNL     1       8.205  -0.296  23.507  0.00  0.00    -0.218 N 
ATOM      5  C   UNL     1       7.660  -1.578  23.578  0.00  0.00    +0.322 C 
ATOM      6  C   UNL     1       6.913  -1.941  24.832  0.00  0.00    +0.079 A 
ATOM      7  C   UNL     1       7.178  -3.107  25.557  0.00  0.00    +0.028 A 
ATOM      8  C   UNL     1       6.507  -3.326  26.770  0.00  0.00    +0.016 A 
ATOM      9  C   UNL     1       5.593  -2.390  27.259  0.00  0.00    +0.001 A 
ATOM     10  C   UNL     1       5.330  -1.230  26.536  0.00  0.00    +0.001 A 
ATOM     11  S   UNL     1       8.319  -4.348  24.990  0.00  0.00    -0.084 S 
ATOM     12  C   UNL     1       7.508  -4.683  23.434  0.00  0.00    +0.063 A 
ATOM     13  C   UNL     1       7.324  -3.684  22.460  0.00  0.00    +0.190 A 
ATOM     14  C   UNL     1       6.703  -4.041  21.256  0.00  0.00    +0.056 A 
ATOM     15  C   UNL     1       6.222  -5.335  21.040  0.00  0.00    +0.004 A 
ATOM     16  C   UNL     1       6.367  -6.302  22.029  0.00  0.00    +0.001 A 
ATOM     17  C   UNL     1       7.015  -5.980  23.220  0.00  0.00    +0.019 A 
ATOM     18  C   UNL     1       5.979  -1.011  25.321  0.00  0.00    +0.017 A 
ATOM     19  N   UNL     1       7.810  -2.369  22.547  0.00  0.00    -0.040 NA
ATOM     20  C   UNL     1       8.719   0.418  24.682  0.00  0.00    +0.241 C 
ATOM     21  C   UNL     1      10.089   1.056  24.384  0.00  0.00    +0.128 C 
ENDROOT
BRANCH   1  22
ATOM     22  C   UNL     1       9.296   3.172  23.378  0.00  0.00    +0.112 C 
BRANCH  22  23
ATOM     23  C   UNL     1      10.085   4.410  23.845  0.00  0.00    +0.175 C 
BRANCH  23  24
ATOM     24  O   UNL     1       9.183   5.446  24.226  0.00  0.00    -0.376 OA
BRANCH  24  25
ATOM     25  C   UNL     1       9.100   6.470  23.242  0.00  0.00    +0.187 C 
BRANCH  25  26
ATOM     26  C   UNL     1       7.663   6.555  22.746  0.00  0.00    +0.184 C 
BRANCH  26  27
ATOM     27  O   UNL     1       7.593   6.174  21.377  0.00  0.00    -0.393 OA
ATOM     28  H   UNL     1       7.924   5.261  21.328  0.00  0.00    +0.209 HD
ENDBRANCH  26  27
ENDBRANCH  25  26
ENDBRANCH  24  25
ENDBRANCH  23  24
ENDBRANCH  22  23
ENDBRANCH   1  22
TORSDOF 6
ENDMDL
MODEL 7
REMARK VINA RESULT:      -6.3      2.035      2.671
REMARK  Name = 
REMARK  6 active torsions:
REMARK  status: ('A' for Active; 'I' for Inactive)
REMARK    1  A    between atoms: O_1  and  C_2
REMARK    2  A    between atoms: C_2  and  C_3
REMARK    3  A    between atoms: C_3  and  O_4
REMARK    4  A    between atoms: O_4  and  C_5
REMARK    5  A    between atoms: C_5  and  C_6
REMARK    6  A    between atoms: C_6  and  N_7
REMARK                            x       y       z     vdW  Elec       q    Type
REMARK                         _______ _______ _______ _____ _____    ______ ____
ROOT
ATOM      1  N   UNL     1      10.511   0.121  23.153  0.00  0.00    -0.293 NA
ATOM      2  C   UNL     1       9.976  -1.020  22.370  0.00  0.00    +0.128 C 
ATOM      3  C   UNL     1       8.458  -1.269  22.518  0.00  0.00    +0.241 C 
ATOM      4  N   UNL     1       8.033  -1.277  23.928  0.00  0.00    -0.218 N 
ATOM      5  C   UNL     1       7.139  -2.233  24.410  0.00  0.00    +0.322 C 
ATOM      6  C   UNL     1       6.178  -1.799  25.481  0.00  0.00    +0.079 A 
ATOM      7  C   UNL     1       6.010  -2.505  26.676  0.00  0.00    +0.028 A 
ATOM      8  C   UNL     1       5.167  -1.983  27.668  0.00  0.00    +0.016 A 
ATOM      9  C   UNL     1       4.507  -0.766  27.476  0.00  0.00    +0.001 A 
ATOM     10  C   UNL     1       4.675  -0.065  26.287  0.00  0.00    +0.001 A 
ATOM     11  S   UNL     1       6.807  -4.066  26.984  0.00  0.00    -0.084 S 
ATOM     12  C   UNL     1       6.123  -4.931  25.580  0.00  0.00    +0.063 A 
ATOM     13  C   UNL     1       6.349  -4.502  24.259  0.00  0.00    +0.190 A 
ATOM     14  C   UNL     1       5.799  -5.258  23.214  0.00  0.00    +0.056 A 
ATOM     15  C   UNL     1       4.997  -6.373  23.467  0.00  0.00    +0.004 A 
ATOM     16  C   UNL     1       4.741  -6.760  24.779  0.00  0.00    +0.001 A 
ATOM     17  C   UNL     1       5.309  -6.046  25.833  0.00  0.00    +0.019 A 
ATOM     18  C   UNL     1       5.498  -0.583  25.287  0.00  0.00    +0.017 A 
ATOM     19  N   UNL     1       7.177  -3.431  23.886  0.00  0.00    -0.040 NA
ATOM     20  C   UNL     1       8.587  -0.208  24.767  0.00  0.00    +0.241 C 
ATOM     21  C   UNL     1      10.108  -0.076  24.559  0.00  0.00    +0.128 C 
ENDROOT
BRANCH   1  22
ATOM     22  C   UNL     1      10.078   1.416  22.586  0.00  0.00    +0.112 C 
BRANCH  22  23
ATOM     23  C   UNL     1      10.470   2.656  23.413  0.00  0.00    +0.175 C 
BRANCH  23  24
ATOM     24  O   UNL     1       9.357   3.542  23.518  0.00  0.00    -0.376 OA
BRANCH  24  25
ATOM     25  C   UNL     1       8.215   3.049  22.827  0.00  0.00    +0.187 C 
BRANCH  25  26
ATOM     26  C   UNL     1       7.331   4.227  22.441  0.00  0.00    +0.184 C 
BRANCH  26  27
ATOM     27  O   UNL     1       8.126   5.384  22.215  0.00  0.00    -0.393 OA
ATOM     28  H   UNL     1       8.213   5.475  21.250  0.00  0.00    +0.209 HD
ENDBRANCH  26  27
ENDBRANCH  25  26
ENDBRANCH  24  25
ENDBRANCH  23  24
ENDBRANCH  22  23
ENDBRANCH   1  22
TORSDOF 6
ENDMDL
MODEL 8
REMARK VINA RESULT:      -6.2      4.151      8.112
REMARK  Name = 
REMARK  6 active torsions:
REMARK  status: ('A' for Active; 'I' for Inactive)
REMARK    1  A    between atoms: O_1  and  C_2
REMARK    2  A    between atoms: C_2  and  C_3
REMARK    3  A    between atoms: C_3  and  O_4
REMARK    4  A    between atoms: O_4  and  C_5
REMARK    5  A    between atoms: C_5  and  C_6
REMARK    6  A    between atoms: C_6  and  N_7
REMARK                            x       y       z     vdW  Elec       q    Type
REMARK                         _______ _______ _______ _____ _____    ______ ____
ROOT
ATOM      1  N   UNL     1       7.180  -3.527  26.422  0.00  0.00    -0.293 NA
ATOM      2  C   UNL     1       5.903  -2.794  26.254  0.00  0.00    +0.128 C 
ATOM      3  C   UNL     1       5.805  -1.920  24.982  0.00  0.00    +0.241 C 
ATOM      4  N   UNL     1       6.994  -1.071  24.800  0.00  0.00    -0.218 N 
ATOM      5  C   UNL     1       6.880   0.265  24.417  0.00  0.00    +0.322 C 
ATOM      6  C   UNL     1       7.957   0.821  23.528  0.00  0.00    +0.079 A 
ATOM      7  C   UNL     1       8.634   2.010  23.816  0.00  0.00    +0.028 A 
ATOM      8  C   UNL     1       9.694   2.412  22.990  0.00  0.00    +0.016 A 
ATOM      9  C   UNL     1      10.083   1.633  21.898  0.00  0.00    +0.001 A 
ATOM     10  C   UNL     1       9.409   0.450  21.612  0.00  0.00    +0.001 A 
ATOM     11  S   UNL     1       8.186   3.059  25.182  0.00  0.00    -0.084 S 
ATOM     12  C   UNL     1       6.495   3.341  24.683  0.00  0.00    +0.063 A 
ATOM     13  C   UNL     1       5.576   2.285  24.536  0.00  0.00    +0.190 A 
ATOM     14  C   UNL     1       4.260   2.599  24.170  0.00  0.00    +0.056 A 
ATOM     15  C   UNL     1       3.874   3.914  23.897  0.00  0.00    +0.004 A 
ATOM     16  C   UNL     1       4.804   4.944  24.000  0.00  0.00    +0.001 A 
ATOM     17  C   UNL     1       6.108   4.660  24.400  0.00  0.00    +0.019 A 
ATOM     18  C   UNL     1       8.342   0.050  22.417  0.00  0.00    +0.017 A 
ATOM     19  N   UNL     1       5.837   0.937  24.832  0.00  0.00    -0.040 NA
ATOM     20  C   UNL     1       8.287  -1.730  25.022  0.00  0.00    +0.241 C 
ATOM     21  C   UNL     1       8.276  -2.542  26.330  0.00  0.00    +0.128 C 
ENDROOT
BRANCH   1  22
ATOM     22  C   UNL     1       7.299  -4.638  25.452  0.00  0.00    +0.112 C 
BRANCH  22  23
ATOM     23  C   UNL     1       6.035  -5.506  25.293  0.00  0.00    +0.175 C 
BRANCH  23  24
ATOM     24  O   UNL     1       5.626  -5.523  23.927  0.00  0.00    -0.376 OA
BRANCH  24  25
ATOM     25  C   UNL     1       6.677  -5.137  23.050  0.00  0.00    +0.187 C 
BRANCH  25  26
ATOM     26  C   UNL     1       6.598  -5.986  21.788  0.00  0.00    +0.184 C 
BRANCH  26  27
ATOM     27  O   UNL     1       5.988  -5.248  20.737  0.00  0.00    -0.393 OA
ATOM     28  H   UNL     1       5.450  -5.882  20.232  0.00  0.00    +0.209 HD
ENDBRANCH  26  27
ENDBRANCH  25  26
ENDBRANCH  24  25
ENDBRANCH  23  24
ENDBRANCH  22  23
ENDBRANCH   1  22
TORSDOF 6
ENDMDL
MODEL 9
REMARK VINA RESULT:      -6.1      4.526      8.500
REMARK  Name = 
REMARK  6 active torsions:
REMARK  status: ('A' for Active; 'I' for Inactive)
REMARK    1  A    between atoms: O_1  and  C_2
REMARK    2  A    between atoms: C_2  and  C_3
REMARK    3  A    between atoms: C_3  and  O_4
REMARK    4  A    between atoms: O_4  and  C_5
REMARK    5  A    between atoms: C_5  and  C_6
REMARK    6  A    between atoms: C_6  and  N_7
REMARK                            x       y       z     vdW  Elec       q    Type
REMARK                         _______ _______ _______ _____ _____    ______ ____
ROOT
ATOM      1  N   UNL     1       6.969  -3.485  26.281  0.00  0.00    -0.293 NA
ATOM      2  C   UNL     1       5.710  -2.729  26.077  0.00  0.00    +0.128 C 
ATOM      3  C   UNL     1       5.677  -1.827  24.822  0.00  0.00    +0.241 C 
ATOM      4  N   UNL     1       6.884  -0.993  24.708  0.00  0.00    -0.218 N 
ATOM      5  C   UNL     1       6.804   0.353  24.350  0.00  0.00    +0.322 C 
ATOM      6  C   UNL     1       7.926   0.911  23.518  0.00  0.00    +0.079 A 
ATOM      7  C   UNL     1       8.606   2.084  23.859  0.00  0.00    +0.028 A 
ATOM      8  C   UNL     1       9.705   2.488  23.086  0.00  0.00    +0.016 A 
ATOM      9  C   UNL     1      10.128   1.726  21.994  0.00  0.00    +0.001 A 
ATOM     10  C   UNL     1       9.449   0.560  21.655  0.00  0.00    +0.001 A 
ATOM     11  S   UNL     1       8.118   3.110  25.228  0.00  0.00    -0.084 S 
ATOM     12  C   UNL     1       6.452   3.428  24.667  0.00  0.00    +0.063 A 
ATOM     13  C   UNL     1       5.526   2.389  24.459  0.00  0.00    +0.190 A 
ATOM     14  C   UNL     1       4.231   2.731  24.046  0.00  0.00    +0.056 A 
ATOM     15  C   UNL     1       3.875   4.057  23.787  0.00  0.00    +0.004 A 
ATOM     16  C   UNL     1       4.814   5.071  23.950  0.00  0.00    +0.001 A 
ATOM     17  C   UNL     1       6.097   4.759  24.397  0.00  0.00    +0.019 A 
ATOM     18  C   UNL     1       8.345   0.159  22.407  0.00  0.00    +0.017 A 
ATOM     19  N   UNL     1       5.755   1.031  24.736  0.00  0.00    -0.040 NA
ATOM     20  C   UNL     1       8.158  -1.675  24.968  0.00  0.00    +0.241 C 
ATOM     21  C   UNL     1       8.081  -2.515  26.257  0.00  0.00    +0.128 C 
ENDROOT
BRANCH   1  22
ATOM     22  C   UNL     1       7.111  -4.576  25.293  0.00  0.00    +0.112 C 
BRANCH  22  23
ATOM     23  C   UNL     1       5.995  -5.639  25.326  0.00  0.00    +0.175 C 
BRANCH  23  24
ATOM     24  O   UNL     1       6.081  -6.397  26.530  0.00  0.00    -0.376 OA
BRANCH  24  25
ATOM     25  C   UNL     1       4.884  -6.322  27.295  0.00  0.00    +0.187 C 
BRANCH  25  26
ATOM     26  C   UNL     1       5.239  -5.925  28.722  0.00  0.00    +0.184 C 
BRANCH  26  27
ATOM     27  O   UNL     1       6.502  -5.272  28.750  0.00  0.00    -0.393 OA
ATOM     28  H   UNL     1       6.801  -5.290  29.675  0.00  0.00    +0.209 HD
ENDBRANCH  26  27
ENDBRANCH  25  26
ENDBRANCH  24  25
ENDBRANCH  23  24
ENDBRANCH  22  23
ENDBRANCH   1  22
TORSDOF 6
ENDMDL
