MODEL 1
REMARK VINA RESULT:      -7.2      0.000      0.000
REMARK  Name = 
REMARK  14 active torsions:
REMARK  status: ('A' for Active; 'I' for Inactive)
REMARK    1  A    between atoms: N_8  and  C_9
REMARK    2  A    between atoms: C_12  and  C_14
REMARK    3  A    between atoms: C_14  and  O_15
REMARK    4  A    between atoms: O_15  and  P_16
REMARK    5  A    between atoms: P_16  and  O_17
REMARK    6  A    between atoms: P_16  and  O_19
REMARK    7  A    between atoms: O_19  and  P_20
REMARK    8  A    between atoms: P_20  and  O_21
REMARK    9  A    between atoms: P_20  and  O_23
REMARK   10  A    between atoms: O_23  and  P_24
REMARK   11  A    between atoms: P_24  and  O_25
REMARK   12  A    between atoms: P_24  and  O_26
REMARK   13  A    between atoms: C_28  and  O_30
REMARK   14  A    between atoms: C_31  and  O_33
REMARK                            x       y       z     vdW  Elec       q    Type
REMARK                         _______ _______ _______ _____ _____    ______ ____
ROOT
ATOM      1  C   UNL     1       6.887  -4.775  22.994  0.00  0.00    +0.253 C 
ATOM      2  C   UNL     1       6.020  -3.611  22.474  0.00  0.00    +0.195 C 
ATOM      3  C   UNL     1       6.871  -2.354  22.701  0.00  0.00    +0.178 C 
ATOM      4  C   UNL     1       8.127  -2.869  23.399  0.00  0.00    +0.178 C 
ATOM      5  O   UNL     1       8.249  -4.238  22.982  0.00  0.00    -0.346 OA
ENDROOT
BRANCH   1  17
ATOM      6  N   UNL     1       2.677  -7.929  23.932  0.00  0.00    -0.329 N 
ATOM      7  H   UNL     1       1.771  -7.990  24.378  0.00  0.00    +0.145 HD
ATOM      8  H   UNL     1       2.628  -7.691  22.949  0.00  0.00    +0.145 HD
ATOM      9  C   UNL     1       3.662  -7.270  24.592  0.00  0.00    +0.195 A 
ATOM     10  N   UNL     1       3.610  -7.338  25.970  0.00  0.00    -0.293 N 
ATOM     11  H   UNL     1       2.890  -7.872  26.425  0.00  0.00    +0.172 HD
ATOM     12  C   UNL     1       4.546  -6.780  26.821  0.00  0.00    +0.280 A 
ATOM     13  O   UNL     1       4.469  -6.890  28.041  0.00  0.00    -0.265 OA
ATOM     14  C   UNL     1       5.585  -6.072  26.102  0.00  0.00    +0.172 A 
ATOM     15  N   UNL     1       6.697  -5.428  26.567  0.00  0.00    -0.229 NA
ATOM     16  C   UNL     1       7.292  -4.985  25.480  0.00  0.00    +0.203 A 
ATOM     17  N   UNL     1       6.567  -5.243  24.340  0.00  0.00    -0.285 N 
ATOM     18  C   UNL     1       5.509  -6.030  24.724  0.00  0.00    +0.171 A 
ATOM     19  N   UNL     1       4.580  -6.615  23.927  0.00  0.00    -0.196 NA
ENDBRANCH   1  17
BRANCH   2  20
ATOM     20  O   UNL     1       5.753  -3.761  21.063  0.00  0.00    -0.385 OA
ATOM     21  H   UNL     1       6.109  -4.615  20.762  0.00  0.00    +0.210 HD
ENDBRANCH   2  20
BRANCH   3  22
ATOM     22  O   UNL     1       6.179  -1.404  23.503  0.00  0.00    -0.386 OA
ATOM     23  H   UNL     1       6.680  -1.296  24.332  0.00  0.00    +0.210 HD
ENDBRANCH   3  22
BRANCH   4  24
ATOM     24  C   UNL     1       9.390  -2.034  23.133  0.00  0.00    +0.206 C 
BRANCH  24  25
ATOM     25  O   UNL     1       9.113  -0.668  23.423  0.00  0.00    -0.284 OA
BRANCH  25  26
ATOM     26  P   UNL     1       9.151   0.421  22.238  0.00  0.00    +0.483 P 
ATOM     27  O   UNL     1       9.220  -0.125  20.855  0.00  0.00    -0.227 OA
BRANCH  26  28
ATOM     28  O   UNL     1       7.763   1.186  22.489  0.00  0.00    -0.302 OA
ATOM     29  H   UNL     1       7.861   2.146  22.334  0.00  0.00    +0.222 HD
ENDBRANCH  26  28
BRANCH  26  30
ATOM     30  O   UNL     1      10.221   1.527  22.662  0.00  0.00    -0.186 OA
BRANCH  30  31
ATOM     31  P   UNL     1       9.644   2.898  23.546  0.00  0.00    +0.490 P 
ATOM     32  O   UNL     1      11.068   3.448  23.531  0.00  0.00    -0.227 OA
BRANCH  31  33
ATOM     33  O   UNL     1       9.495   1.951  24.861  0.00  0.00    -0.302 OA
ATOM     34  H   UNL     1       9.709   2.406  25.698  0.00  0.00    +0.222 HD
ENDBRANCH  31  33
BRANCH  31  35
ATOM     35  O   UNL     1       9.068   4.268  24.430  0.00  0.00    -0.211 OA
BRANCH  35  36
ATOM     36  P   UNL     1       8.180   5.307  23.370  0.00  0.00    +0.312 P 
ATOM     37  S   UNL     1       7.205   6.445  22.207  0.00  0.00    +0.023 S 
BRANCH  36  38
ATOM     38  O   UNL     1       8.336   4.072  22.298  0.00  0.00    -0.327 OA
ATOM     39  H   UNL     1       7.645   4.185  21.619  0.00  0.00    +0.219 HD
ENDBRANCH  36  38
BRANCH  36  40
ATOM     40  O   UNL     1       9.654   5.941  23.004  0.00  0.00    -0.327 OA
ATOM     41  H   UNL     1       9.656   6.336  22.114  0.00  0.00    +0.219 HD
ENDBRANCH  36  40
ENDBRANCH  35  36
ENDBRANCH  31  35
ENDBRANCH  30  31
ENDBRANCH  26  30
ENDBRANCH  25  26
ENDBRANCH  24  25
ENDBRANCH   4  24
TORSDOF 14
ENDMDL
MODEL 2
REMARK VINA RESULT:      -7.1      1.934      3.101
REMARK  Name = 
REMARK  14 active torsions:
REMARK  status: ('A' for Active; 'I' for Inactive)
REMARK    1  A    between atoms: N_8  and  C_9
REMARK    2  A    between atoms: C_12  and  C_14
REMARK    3  A    between atoms: C_14  and  O_15
REMARK    4  A    between atoms: O_15  and  P_16
REMARK    5  A    between atoms: P_16  and  O_17
REMARK    6  A    between atoms: P_16  and  O_19
REMARK    7  A    between atoms: O_19  and  P_20
REMARK    8  A    between atoms: P_20  and  O_21
REMARK    9  A    between atoms: P_20  and  O_23
REMARK   10  A    between atoms: O_23  and  P_24
REMARK   11  A    between atoms: P_24  and  O_25
REMARK   12  A    between atoms: P_24  and  O_26
REMARK   13  A    between atoms: C_28  and  O_30
REMARK   14  A    between atoms: C_31  and  O_33
REMARK                            x       y       z     vdW  Elec       q    Type
REMARK                         _______ _______ _______ _____ _____    ______ ____
ROOT
ATOM      1  C   UNL     1       8.170  -4.878  25.876  0.00  0.00    +0.253 C 
ATOM      2  C   UNL     1       9.335  -4.856  24.866  0.00  0.00    +0.195 C 
ATOM      3  C   UNL     1       9.452  -3.388  24.432  0.00  0.00    +0.178 C 
ATOM      4  C   UNL     1       8.306  -2.687  25.157  0.00  0.00    +0.178 C 
ATOM      5  O   UNL     1       8.060  -3.489  26.324  0.00  0.00    -0.346 OA
ENDROOT
BRANCH   1  17
ATOM      6  N   UNL     1       4.567  -7.384  28.924  0.00  0.00    -0.329 N 
ATOM      7  H   UNL     1       4.081  -8.257  29.085  0.00  0.00    +0.145 HD
ATOM      8  H   UNL     1       5.386  -7.264  29.509  0.00  0.00    +0.145 HD
ATOM      9  C   UNL     1       4.769  -7.001  27.639  0.00  0.00    +0.195 A 
ATOM     10  N   UNL     1       3.797  -7.388  26.738  0.00  0.00    -0.293 N 
ATOM     11  H   UNL     1       2.990  -7.899  27.051  0.00  0.00    +0.172 HD
ATOM     12  C   UNL     1       3.791  -7.055  25.397  0.00  0.00    +0.280 A 
ATOM     13  O   UNL     1       2.889  -7.402  24.640  0.00  0.00    -0.265 OA
ATOM     14  C   UNL     1       4.952  -6.274  25.021  0.00  0.00    +0.172 A 
ATOM     15  N   UNL     1       5.292  -5.722  23.819  0.00  0.00    -0.229 NA
ATOM     16  C   UNL     1       6.432  -5.110  24.055  0.00  0.00    +0.203 A 
ATOM     17  N   UNL     1       6.884  -5.314  25.338  0.00  0.00    -0.285 N 
ATOM     18  C   UNL     1       5.884  -5.986  25.998  0.00  0.00    +0.171 A 
ATOM     19  N   UNL     1       5.837  -6.316  27.313  0.00  0.00    -0.196 NA
ENDBRANCH   1  17
BRANCH   2  20
ATOM     20  O   UNL     1      10.567  -5.267  25.496  0.00  0.00    -0.385 OA
ATOM     21  H   UNL     1      10.683  -6.225  25.371  0.00  0.00    +0.210 HD
ENDBRANCH   2  20
BRANCH   3  22
ATOM     22  O   UNL     1       9.332  -3.260  23.019  0.00  0.00    -0.386 OA
ATOM     23  H   UNL     1       9.536  -2.336  22.787  0.00  0.00    +0.210 HD
ENDBRANCH   3  22
BRANCH   4  24
ATOM     24  C   UNL     1       8.567  -1.206  25.477  0.00  0.00    +0.206 C 
BRANCH  24  25
ATOM     25  O   UNL     1       9.862  -0.851  25.005  0.00  0.00    -0.284 OA
BRANCH  25  26
ATOM     26  P   UNL     1      10.013   0.284  23.874  0.00  0.00    +0.483 P 
ATOM     27  O   UNL     1      10.937   1.405  24.195  0.00  0.00    -0.227 OA
BRANCH  26  28
ATOM     28  O   UNL     1      10.567  -0.588  22.646  0.00  0.00    -0.302 OA
ATOM     29  H   UNL     1      10.137  -1.464  22.617  0.00  0.00    +0.222 HD
ENDBRANCH  26  28
BRANCH  26  30
ATOM     30  O   UNL     1       8.537   0.646  23.383  0.00  0.00    -0.186 OA
BRANCH  30  31
ATOM     31  P   UNL     1       8.213   2.298  22.982  0.00  0.00    +0.490 P 
ATOM     32  O   UNL     1       6.962   1.824  22.245  0.00  0.00    -0.227 OA
BRANCH  31  33
ATOM     33  O   UNL     1       9.452   2.255  21.927  0.00  0.00    -0.302 OA
ATOM     34  H   UNL     1       9.273   2.731  21.094  0.00  0.00    +0.222 HD
ENDBRANCH  31  33
BRANCH  31  35
ATOM     35  O   UNL     1       7.887   3.949  22.580  0.00  0.00    -0.211 OA
BRANCH  35  36
ATOM     36  P   UNL     1       8.424   4.972  23.867  0.00  0.00    +0.312 P 
ATOM     37  S   UNL     1       9.013   6.096  25.277  0.00  0.00    +0.023 S 
BRANCH  36  38
ATOM     38  O   UNL     1       9.808   5.074  22.987  0.00  0.00    -0.327 OA
ATOM     39  H   UNL     1       9.572   4.926  22.053  0.00  0.00    +0.219 HD
ENDBRANCH  36  38
BRANCH  36  40
ATOM     40  O   UNL     1       8.874   3.566  24.593  0.00  0.00    -0.327 OA
ATOM     41  H   UNL     1       9.714   3.672  25.074  0.00  0.00    +0.219 HD
ENDBRANCH  36  40
ENDBRANCH  35  36
ENDBRANCH  31  35
ENDBRANCH  30  31
ENDBRANCH  26  30
ENDBRANCH  25  26
ENDBRANCH  24  25
ENDBRANCH   4  24
TORSDOF 14
ENDMDL
MODEL 3
REMARK VINA RESULT:      -7.1      1.867      2.641
REMARK  Name = 
REMARK  14 active torsions:
REMARK  status: ('A' for Active; 'I' for Inactive)
REMARK    1  A    between atoms: N_8  and  C_9
REMARK    2  A    between atoms: C_12  and  C_14
REMARK    3  A    between atoms: C_14  and  O_15
REMARK    4  A    between atoms: O_15  and  P_16
REMARK    5  A    between atoms: P_16  and  O_17
REMARK    6  A    between atoms: P_16  and  O_19
REMARK    7  A    between atoms: O_19  and  P_20
REMARK    8  A    between atoms: P_20  and  O_21
REMARK    9  A    between atoms: P_20  and  O_23
REMARK   10  A    between atoms: O_23  and  P_24
REMARK   11  A    between atoms: P_24  and  O_25
REMARK   12  A    between atoms: P_24  and  O_26
REMARK   13  A    between atoms: C_28  and  O_30
REMARK   14  A    between atoms: C_31  and  O_33
REMARK                            x       y       z     vdW  Elec       q    Type
REMARK                         _______ _______ _______ _____ _____    ______ ____
ROOT
ATOM      1  C   UNL     1       6.210  -5.398  23.737  0.00  0.00    +0.253 C 
ATOM      2  C   UNL     1       6.247  -4.706  22.359  0.00  0.00    +0.195 C 
ATOM      3  C   UNL     1       6.644  -3.253  22.659  0.00  0.00    +0.178 C 
ATOM      4  C   UNL     1       6.731  -3.191  24.182  0.00  0.00    +0.178 C 
ATOM      5  O   UNL     1       7.029  -4.537  24.591  0.00  0.00    -0.346 OA
ENDROOT
BRANCH   1  17
ATOM      6  N   UNL     1       5.532  -7.488  28.607  0.00  0.00    -0.329 N 
ATOM      7  H   UNL     1       5.157  -8.271  29.128  0.00  0.00    +0.145 HD
ATOM      8  H   UNL     1       6.521  -7.574  28.407  0.00  0.00    +0.145 HD
ATOM      9  C   UNL     1       4.813  -7.029  27.554  0.00  0.00    +0.195 A 
ATOM     10  N   UNL     1       3.442  -7.146  27.667  0.00  0.00    -0.293 N 
ATOM     11  H   UNL     1       3.032  -7.530  28.501  0.00  0.00    +0.172 HD
ATOM     12  C   UNL     1       2.534  -6.691  26.729  0.00  0.00    +0.280 A 
ATOM     13  O   UNL     1       1.321  -6.797  26.888  0.00  0.00    -0.265 OA
ATOM     14  C   UNL     1       3.185  -6.102  25.578  0.00  0.00    +0.172 A 
ATOM     15  N   UNL     1       2.650  -5.509  24.469  0.00  0.00    -0.229 NA
ATOM     16  C   UNL     1       3.696  -5.138  23.764  0.00  0.00    +0.203 A 
ATOM     17  N   UNL     1       4.883  -5.541  24.330  0.00  0.00    -0.285 N 
ATOM     18  C   UNL     1       4.565  -6.081  25.552  0.00  0.00    +0.171 A 
ATOM     19  N   UNL     1       5.419  -6.520  26.510  0.00  0.00    -0.196 NA
ENDBRANCH   1  17
BRANCH   2  20
ATOM     20  O   UNL     1       7.247  -5.308  21.510  0.00  0.00    -0.385 OA
ATOM     21  H   UNL     1       8.044  -5.489  22.038  0.00  0.00    +0.210 HD
ENDBRANCH   2  20
BRANCH   3  22
ATOM     22  O   UNL     1       5.673  -2.342  22.154  0.00  0.00    -0.386 OA
ATOM     23  H   UNL     1       5.768  -2.316  21.185  0.00  0.00    +0.210 HD
ENDBRANCH   3  22
BRANCH   4  24
ATOM     24  C   UNL     1       7.728  -2.153  24.720  0.00  0.00    +0.206 C 
BRANCH  24  25
ATOM     25  O   UNL     1       8.310  -1.457  23.623  0.00  0.00    -0.284 OA
BRANCH  25  26
ATOM     26  P   UNL     1       9.846  -1.736  23.229  0.00  0.00    +0.483 P 
ATOM     27  O   UNL     1      10.420  -3.019  23.717  0.00  0.00    -0.227 OA
BRANCH  26  28
ATOM     28  O   UNL     1       9.751  -1.717  21.627  0.00  0.00    -0.302 OA
ATOM     29  H   UNL     1       9.357  -2.545  21.290  0.00  0.00    +0.222 HD
ENDBRANCH  26  28
BRANCH  26  30
ATOM     30  O   UNL     1      10.651  -0.391  23.529  0.00  0.00    -0.186 OA
BRANCH  30  31
ATOM     31  P   UNL     1       9.755   0.956  24.145  0.00  0.00    +0.490 P 
ATOM     32  O   UNL     1      10.963   1.839  23.839  0.00  0.00    -0.227 OA
BRANCH  31  33
ATOM     33  O   UNL     1       9.948   0.360  25.647  0.00  0.00    -0.302 OA
ATOM     34  H   UNL     1       9.115   0.299  26.153  0.00  0.00    +0.222 HD
ENDBRANCH  31  33
BRANCH  31  35
ATOM     35  O   UNL     1       8.860   2.302  24.760  0.00  0.00    -0.211 OA
BRANCH  35  36
ATOM     36  P   UNL     1       7.704   2.815  23.580  0.00  0.00    +0.312 P 
ATOM     37  S   UNL     1       6.436   3.375  22.285  0.00  0.00    +0.023 S 
BRANCH  36  38
ATOM     38  O   UNL     1       8.165   1.455  22.780  0.00  0.00    -0.327 OA
ATOM     39  H   UNL     1       8.656   1.736  21.985  0.00  0.00    +0.219 HD
ENDBRANCH  36  38
BRANCH  36  40
ATOM     40  O   UNL     1       8.947   3.709  22.974  0.00  0.00    -0.327 OA
ATOM     41  H   UNL     1       9.802   3.272  23.128  0.00  0.00    +0.219 HD
ENDBRANCH  36  40
ENDBRANCH  35  36
ENDBRANCH  31  35
ENDBRANCH  30  31
ENDBRANCH  26  30
ENDBRANCH  25  26
ENDBRANCH  24  25
ENDBRANCH   4  24
TORSDOF 14
ENDMDL
MODEL 4
REMARK VINA RESULT:      -7.0      1.478      2.215
REMARK  Name = 
REMARK  14 active torsions:
REMARK  status: ('A' for Active; 'I' for Inactive)
REMARK    1  A    between atoms: N_8  and  C_9
REMARK    2  A    between atoms: C_12  and  C_14
REMARK    3  A    between atoms: C_14  and  O_15
REMARK    4  A    between atoms: O_15  and  P_16
REMARK    5  A    between atoms: P_16  and  O_17
REMARK    6  A    between atoms: P_16  and  O_19
REMARK    7  A    between atoms: O_19  and  P_20
REMARK    8  A    between atoms: P_20  and  O_21
REMARK    9  A    between atoms: P_20  and  O_23
REMARK   10  A    between atoms: O_23  and  P_24
REMARK   11  A    between atoms: P_24  and  O_25
REMARK   12  A    between atoms: P_24  and  O_26
REMARK   13  A    between atoms: C_28  and  O_30
REMARK   14  A    between atoms: C_31  and  O_33
REMARK                            x       y       z     vdW  Elec       q    Type
REMARK                         _______ _______ _______ _____ _____    ______ ____
ROOT
ATOM      1  C   UNL     1       6.881  -4.892  22.943  0.00  0.00    +0.253 C 
ATOM      2  C   UNL     1       5.990  -3.739  22.439  0.00  0.00    +0.195 C 
ATOM      3  C   UNL     1       6.829  -2.471  22.654  0.00  0.00    +0.178 C 
ATOM      4  C   UNL     1       8.102  -2.970  23.332  0.00  0.00    +0.178 C 
ATOM      5  O   UNL     1       8.235  -4.338  22.910  0.00  0.00    -0.346 OA
ENDROOT
BRANCH   1  17
ATOM      6  N   UNL     1       2.572  -7.874  23.988  0.00  0.00    -0.329 N 
ATOM      7  H   UNL     1       1.680  -7.903  24.465  0.00  0.00    +0.145 HD
ATOM      8  H   UNL     1       2.499  -7.619  23.011  0.00  0.00    +0.145 HD
ATOM      9  C   UNL     1       3.607  -7.269  24.621  0.00  0.00    +0.195 A 
ATOM     10  N   UNL     1       3.601  -7.355  25.999  0.00  0.00    -0.293 N 
ATOM     11  H   UNL     1       2.875  -7.864  26.472  0.00  0.00    +0.172 HD
ATOM     12  C   UNL     1       4.590  -6.852  26.823  0.00  0.00    +0.280 A 
ATOM     13  O   UNL     1       4.551  -6.977  28.044  0.00  0.00    -0.265 OA
ATOM     14  C   UNL     1       5.634  -6.178  26.077  0.00  0.00    +0.172 A 
ATOM     15  N   UNL     1       6.788  -5.591  26.511  0.00  0.00    -0.229 NA
ATOM     16  C   UNL     1       7.363  -5.158  25.410  0.00  0.00    +0.203 A 
ATOM     17  N   UNL     1       6.588  -5.366  24.293  0.00  0.00    -0.285 N 
ATOM     18  C   UNL     1       5.510  -6.112  24.704  0.00  0.00    +0.171 A 
ATOM     19  N   UNL     1       4.529  -6.644  23.932  0.00  0.00    -0.196 NA
ENDBRANCH   1  17
BRANCH   2  20
ATOM     20  O   UNL     1       5.704  -3.890  21.032  0.00  0.00    -0.385 OA
ATOM     21  H   UNL     1       4.990  -3.276  20.786  0.00  0.00    +0.210 HD
ENDBRANCH   2  20
BRANCH   3  22
ATOM     22  O   UNL     1       6.137  -1.531  23.469  0.00  0.00    -0.386 OA
ATOM     23  H   UNL     1       5.278  -1.924  23.710  0.00  0.00    +0.210 HD
ENDBRANCH   3  22
BRANCH   4  24
ATOM     24  C   UNL     1       9.349  -2.118  23.048  0.00  0.00    +0.206 C 
BRANCH  24  25
ATOM     25  O   UNL     1       9.759  -1.480  24.252  0.00  0.00    -0.284 OA
BRANCH  25  26
ATOM     26  P   UNL     1       9.353   0.055  24.517  0.00  0.00    +0.483 P 
ATOM     27  O   UNL     1       7.988   0.282  25.064  0.00  0.00    -0.227 OA
BRANCH  26  28
ATOM     28  O   UNL     1      10.479   0.485  25.576  0.00  0.00    -0.302 OA
ATOM     29  H   UNL     1      10.753  -0.277  26.123  0.00  0.00    +0.222 HD
ENDBRANCH  26  28
BRANCH  26  30
ATOM     30  O   UNL     1       9.787   0.878  23.220  0.00  0.00    -0.186 OA
BRANCH  30  31
ATOM     31  P   UNL     1       8.591   1.884  22.476  0.00  0.00    +0.490 P 
ATOM     32  O   UNL     1       8.757   1.059  21.202  0.00  0.00    -0.227 OA
BRANCH  31  33
ATOM     33  O   UNL     1       9.681   3.092  22.426  0.00  0.00    -0.302 OA
ATOM     34  H   UNL     1      10.344   2.991  21.717  0.00  0.00    +0.222 HD
ENDBRANCH  31  33
BRANCH  31  35
ATOM     35  O   UNL     1       7.397   2.889  21.732  0.00  0.00    -0.211 OA
BRANCH  35  36
ATOM     36  P   UNL     1       5.981   2.935  22.725  0.00  0.00    +0.312 P 
ATOM     37  S   UNL     1       4.429   2.986  23.815  0.00  0.00    +0.023 S 
BRANCH  36  38
ATOM     38  O   UNL     1       7.053   3.091  23.960  0.00  0.00    -0.327 OA
ATOM     39  H   UNL     1       7.041   2.257  24.465  0.00  0.00    +0.219 HD
ENDBRANCH  36  38
BRANCH  36  40
ATOM     40  O   UNL     1       6.098   1.293  22.702  0.00  0.00    -0.327 OA
ATOM     41  H   UNL     1       5.294   0.879  23.060  0.00  0.00    +0.219 HD
ENDBRANCH  36  40
ENDBRANCH  35  36
ENDBRANCH  31  35
ENDBRANCH  30  31
ENDBRANCH  26  30
ENDBRANCH  25  26
ENDBRANCH  24  25
ENDBRANCH   4  24
TORSDOF 14
ENDMDL
MODEL 5
REMARK VINA RESULT:      -7.0      1.515      2.161
REMARK  Name = 
REMARK  14 active torsions:
REMARK  status: ('A' for Active; 'I' for Inactive)
REMARK    1  A    between atoms: N_8  and  C_9
REMARK    2  A    between atoms: C_12  and  C_14
REMARK    3  A    between atoms: C_14  and  O_15
REMARK    4  A    between atoms: O_15  and  P_16
REMARK    5  A    between atoms: P_16  and  O_17
REMARK    6  A    between atoms: P_16  and  O_19
REMARK    7  A    between atoms: O_19  and  P_20
REMARK    8  A    between atoms: P_20  and  O_21
REMARK    9  A    between atoms: P_20  and  O_23
REMARK   10  A    between atoms: O_23  and  P_24
REMARK   11  A    between atoms: P_24  and  O_25
REMARK   12  A    between atoms: P_24  and  O_26
REMARK   13  A    between atoms: C_28  and  O_30
REMARK   14  A    between atoms: C_31  and  O_33
REMARK                            x       y       z     vdW  Elec       q    Type
REMARK                         _______ _______ _______ _____ _____    ______ ____
ROOT
ATOM      1  C   UNL     1       7.067  -4.755  23.441  0.00  0.00    +0.253 C 
ATOM      2  C   UNL     1       5.921  -3.836  22.972  0.00  0.00    +0.195 C 
ATOM      3  C   UNL     1       6.598  -2.497  22.649  0.00  0.00    +0.178 C 
ATOM      4  C   UNL     1       8.062  -2.713  23.023  0.00  0.00    +0.178 C 
ATOM      5  O   UNL     1       8.272  -4.129  22.896  0.00  0.00    -0.346 OA
ENDROOT
BRANCH   1  17
ATOM      6  N   UNL     1       3.563  -7.559  26.340  0.00  0.00    -0.329 N 
ATOM      7  H   UNL     1       2.844  -7.505  27.051  0.00  0.00    +0.145 HD
ATOM      8  H   UNL     1       3.197  -7.556  25.396  0.00  0.00    +0.145 HD
ATOM      9  C   UNL     1       4.658  -6.774  26.491  0.00  0.00    +0.195 A 
ATOM     10  N   UNL     1       5.039  -6.518  27.793  0.00  0.00    -0.293 N 
ATOM     11  H   UNL     1       4.530  -6.924  28.559  0.00  0.00    +0.172 HD
ATOM     12  C   UNL     1       6.154  -5.787  28.157  0.00  0.00    +0.280 A 
ATOM     13  O   UNL     1       6.465  -5.609  29.331  0.00  0.00    -0.265 OA
ATOM     14  C   UNL     1       6.873  -5.277  27.008  0.00  0.00    +0.172 A 
ATOM     15  N   UNL     1       8.031  -4.555  26.942  0.00  0.00    -0.229 NA
ATOM     16  C   UNL     1       8.232  -4.384  25.653  0.00  0.00    +0.203 A 
ATOM     17  N   UNL     1       7.208  -4.893  24.888  0.00  0.00    -0.285 N 
ATOM     18  C   UNL     1       6.373  -5.557  25.752  0.00  0.00    +0.171 A 
ATOM     19  N   UNL     1       5.283  -6.302  25.441  0.00  0.00    -0.196 NA
ENDBRANCH   1  17
BRANCH   2  20
ATOM     20  O   UNL     1       5.300  -4.359  21.778  0.00  0.00    -0.385 OA
ATOM     21  H   UNL     1       5.252  -3.652  21.111  0.00  0.00    +0.210 HD
ENDBRANCH   2  20
BRANCH   3  22
ATOM     22  O   UNL     1       6.018  -1.435  23.399  0.00  0.00    -0.386 OA
ATOM     23  H   UNL     1       5.298  -1.054  22.864  0.00  0.00    +0.210 HD
ENDBRANCH   3  22
BRANCH   4  24
ATOM     24  C   UNL     1       9.058  -1.871  22.209  0.00  0.00    +0.206 C 
BRANCH  24  25
ATOM     25  O   UNL     1       8.669  -0.503  22.272  0.00  0.00    -0.284 OA
BRANCH  25  26
ATOM     26  P   UNL     1       9.150   0.405  23.510  0.00  0.00    +0.483 P 
ATOM     27  O   UNL     1      10.353  -0.077  24.243  0.00  0.00    -0.227 OA
BRANCH  26  28
ATOM     28  O   UNL     1       9.446   1.796  22.765  0.00  0.00    -0.302 OA
ATOM     29  H   UNL     1      10.114   1.680  22.062  0.00  0.00    +0.222 HD
ENDBRANCH  26  28
BRANCH  26  30
ATOM     30  O   UNL     1       7.845   0.756  24.360  0.00  0.00    -0.186 OA
BRANCH  30  31
ATOM     31  P   UNL     1       6.961   2.175  23.915  0.00  0.00    +0.490 P 
ATOM     32  O   UNL     1       5.992   1.872  25.055  0.00  0.00    -0.227 OA
BRANCH  31  33
ATOM     33  O   UNL     1       6.427   1.392  22.592  0.00  0.00    -0.302 OA
ATOM     34  H   UNL     1       5.454   1.385  22.507  0.00  0.00    +0.222 HD
ENDBRANCH  31  33
BRANCH  31  35
ATOM     35  O   UNL     1       6.076   3.594  23.471  0.00  0.00    -0.211 OA
BRANCH  35  36
ATOM     36  P   UNL     1       7.167   4.926  23.304  0.00  0.00    +0.312 P 
ATOM     37  S   UNL     1       8.363   6.387  23.120  0.00  0.00    +0.023 S 
BRANCH  36  38
ATOM     38  O   UNL     1       7.663   4.136  21.952  0.00  0.00    -0.327 OA
ATOM     39  H   UNL     1       7.827   3.207  22.199  0.00  0.00    +0.219 HD
ENDBRANCH  36  38
BRANCH  36  40
ATOM     40  O   UNL     1       8.148   4.049  24.294  0.00  0.00    -0.327 OA
ATOM     41  H   UNL     1       7.674   3.763  25.094  0.00  0.00    +0.219 HD
ENDBRANCH  36  40
ENDBRANCH  35  36
ENDBRANCH  31  35
ENDBRANCH  30  31
ENDBRANCH  26  30
ENDBRANCH  25  26
ENDBRANCH  24  25
ENDBRANCH   4  24
TORSDOF 14
ENDMDL
MODEL 6
REMARK VINA RESULT:      -7.0      2.026      3.049
REMARK  Name = 
REMARK  14 active torsions:
REMARK  status: ('A' for Active; 'I' for Inactive)
REMARK    1  A    between atoms: N_8  and  C_9
REMARK    2  A    between atoms: C_12  and  C_14
REMARK    3  A    between atoms: C_14  and  O_15
REMARK    4  A    between atoms: O_15  and  P_16
REMARK    5  A    between atoms: P_16  and  O_17
REMARK    6  A    between atoms: P_16  and  O_19
REMARK    7  A    between atoms: O_19  and  P_20
REMARK    8  A    between atoms: P_20  and  O_21
REMARK    9  A    between atoms: P_20  and  O_23
REMARK   10  A    between atoms: O_23  and  P_24
REMARK   11  A    between atoms: P_24  and  O_25
REMARK   12  A    between atoms: P_24  and  O_26
REMARK   13  A    between atoms: C_28  and  O_30
REMARK   14  A    between atoms: C_31  and  O_33
REMARK                            x       y       z     vdW  Elec       q    Type
REMARK                         _______ _______ _______ _____ _____    ______ ____
ROOT
ATOM      1  C   UNL     1       8.232  -4.424  25.890  0.00  0.00    +0.253 C 
ATOM      2  C   UNL     1       9.069  -4.455  24.595  0.00  0.00    +0.195 C 
ATOM      3  C   UNL     1       9.210  -2.983  24.182  0.00  0.00    +0.178 C 
ATOM      4  C   UNL     1       8.387  -2.220  25.216  0.00  0.00    +0.178 C 
ATOM      5  O   UNL     1       8.393  -3.056  26.385  0.00  0.00    -0.346 OA
ENDROOT
BRANCH   1  17
ATOM      6  N   UNL     1       6.275  -6.297  21.285  0.00  0.00    -0.329 N 
ATOM      7  H   UNL     1       5.679  -6.091  20.492  0.00  0.00    +0.145 HD
ATOM      8  H   UNL     1       7.255  -6.111  21.111  0.00  0.00    +0.145 HD
ATOM      9  C   UNL     1       5.862  -5.884  22.508  0.00  0.00    +0.195 A 
ATOM     10  N   UNL     1       4.496  -5.856  22.704  0.00  0.00    -0.293 N 
ATOM     11  H   UNL     1       3.873  -6.154  21.973  0.00  0.00    +0.172 HD
ATOM     12  C   UNL     1       3.878  -5.516  23.892  0.00  0.00    +0.280 A 
ATOM     13  O   UNL     1       2.657  -5.532  24.023  0.00  0.00    -0.265 OA
ATOM     14  C   UNL     1       4.831  -5.150  24.920  0.00  0.00    +0.172 A 
ATOM     15  N   UNL     1       4.630  -4.797  26.223  0.00  0.00    -0.229 NA
ATOM     16  C   UNL     1       5.841  -4.589  26.693  0.00  0.00    +0.203 A 
ATOM     17  N   UNL     1       6.810  -4.712  25.724  0.00  0.00    -0.285 N 
ATOM     18  C   UNL     1       6.173  -5.169  24.596  0.00  0.00    +0.171 A 
ATOM     19  N   UNL     1       6.738  -5.533  23.418  0.00  0.00    -0.196 NA
ENDBRANCH   1  17
BRANCH   2  20
ATOM     20  O   UNL     1      10.378  -5.010  24.844  0.00  0.00    -0.385 OA
ATOM     21  H   UNL     1      10.671  -4.745  25.733  0.00  0.00    +0.210 HD
ENDBRANCH   2  20
BRANCH   3  22
ATOM     22  O   UNL     1       8.717  -2.772  22.863  0.00  0.00    -0.386 OA
ATOM     23  H   UNL     1       8.929  -1.854  22.612  0.00  0.00    +0.210 HD
ENDBRANCH   3  22
BRANCH   4  24
ATOM     24  C   UNL     1       8.876  -0.788  25.486  0.00  0.00    +0.206 C 
BRANCH  24  25
ATOM     25  O   UNL     1       9.954  -0.491  24.604  0.00  0.00    -0.284 OA
BRANCH  25  26
ATOM     26  P   UNL     1       9.797   0.694  23.527  0.00  0.00    +0.483 P 
ATOM     27  O   UNL     1      10.691   1.869  23.717  0.00  0.00    -0.227 OA
BRANCH  26  28
ATOM     28  O   UNL     1      10.147  -0.086  22.169  0.00  0.00    -0.302 OA
ATOM     29  H   UNL     1      10.764   0.433  21.617  0.00  0.00    +0.222 HD
ENDBRANCH  26  28
BRANCH  26  30
ATOM     30  O   UNL     1       8.232   0.963  23.361  0.00  0.00    -0.186 OA
BRANCH  30  31
ATOM     31  P   UNL     1       7.750   2.485  22.693  0.00  0.00    +0.490 P 
ATOM     32  O   UNL     1       6.433   1.833  22.279  0.00  0.00    -0.227 OA
BRANCH  31  33
ATOM     33  O   UNL     1       8.815   2.259  21.483  0.00  0.00    -0.302 OA
ATOM     34  H   UNL     1       8.641   1.457  20.954  0.00  0.00    +0.222 HD
ENDBRANCH  31  33
BRANCH  31  35
ATOM     35  O   UNL     1       7.268   4.006  22.025  0.00  0.00    -0.211 OA
BRANCH  35  36
ATOM     36  P   UNL     1       7.759   5.283  23.084  0.00  0.00    +0.312 P 
ATOM     37  S   UNL     1       8.296   6.684  24.245  0.00  0.00    +0.023 S 
BRANCH  36  38
ATOM     38  O   UNL     1       7.997   6.122  21.692  0.00  0.00    -0.327 OA
ATOM     39  H   UNL     1       7.823   5.514  20.950  0.00  0.00    +0.219 HD
ENDBRANCH  36  38
BRANCH  36  40
ATOM     40  O   UNL     1       9.238   4.563  23.018  0.00  0.00    -0.327 OA
ATOM     41  H   UNL     1       9.567   4.520  22.103  0.00  0.00    +0.219 HD
ENDBRANCH  36  40
ENDBRANCH  35  36
ENDBRANCH  31  35
ENDBRANCH  30  31
ENDBRANCH  26  30
ENDBRANCH  25  26
ENDBRANCH  24  25
ENDBRANCH   4  24
TORSDOF 14
ENDMDL
MODEL 7
REMARK VINA RESULT:      -7.0      5.592      9.057
REMARK  Name = 
REMARK  14 active torsions:
REMARK  status: ('A' for Active; 'I' for Inactive)
REMARK    1  A    between atoms: N_8  and  C_9
REMARK    2  A    between atoms: C_12  and  C_14
REMARK    3  A    between atoms: C_14  and  O_15
REMARK    4  A    between atoms: O_15  and  P_16
REMARK    5  A    between atoms: P_16  and  O_17
REMARK    6  A    between atoms: P_16  and  O_19
REMARK    7  A    between atoms: O_19  and  P_20
REMARK    8  A    between atoms: P_20  and  O_21
REMARK    9  A    between atoms: P_20  and  O_23
REMARK   10  A    between atoms: O_23  and  P_24
REMARK   11  A    between atoms: P_24  and  O_25
REMARK   12  A    between atoms: P_24  and  O_26
REMARK   13  A    between atoms: C_28  and  O_30
REMARK   14  A    between atoms: C_31  and  O_33
REMARK                            x       y       z     vdW  Elec       q    Type
REMARK                         _______ _______ _______ _____ _____    ______ ____
ROOT
ATOM      1  C   UNL     1       7.855  -1.557  23.661  0.00  0.00    +0.253 C 
ATOM      2  C   UNL     1       8.473  -2.867  23.132  0.00  0.00    +0.195 C 
ATOM      3  C   UNL     1       8.706  -3.725  24.383  0.00  0.00    +0.178 C 
ATOM      4  C   UNL     1       8.281  -2.828  25.542  0.00  0.00    +0.178 C 
ATOM      5  O   UNL     1       7.323  -1.919  24.975  0.00  0.00    -0.346 OA
ENDROOT
BRANCH   1  17
ATOM      6  N   UNL     1       6.680   3.324  21.833  0.00  0.00    -0.329 N 
ATOM      7  H   UNL     1       6.923   4.036  21.155  0.00  0.00    +0.145 HD
ATOM      8  H   UNL     1       5.916   2.729  21.537  0.00  0.00    +0.145 HD
ATOM      9  C   UNL     1       7.694   2.639  22.418  0.00  0.00    +0.195 A 
ATOM     10  N   UNL     1       8.870   3.341  22.594  0.00  0.00    -0.293 N 
ATOM     11  H   UNL     1       8.931   4.306  22.317  0.00  0.00    +0.172 HD
ATOM     12  C   UNL     1       9.999   2.841  23.215  0.00  0.00    +0.280 A 
ATOM     13  O   UNL     1      11.013   3.515  23.370  0.00  0.00    -0.265 OA
ATOM     14  C   UNL     1       9.828   1.466  23.637  0.00  0.00    +0.172 A 
ATOM     15  N   UNL     1      10.679   0.639  24.312  0.00  0.00    -0.229 NA
ATOM     16  C   UNL     1      10.004  -0.482  24.444  0.00  0.00    +0.203 A 
ATOM     17  N   UNL     1       8.785  -0.441  23.809  0.00  0.00    -0.285 N 
ATOM     18  C   UNL     1       8.623   0.849  23.366  0.00  0.00    +0.171 A 
ATOM     19  N   UNL     1       7.529   1.389  22.772  0.00  0.00    -0.196 NA
ENDBRANCH   1  17
BRANCH   2  20
ATOM     20  O   UNL     1       7.556  -3.548  22.249  0.00  0.00    -0.385 OA
ATOM     21  H   UNL     1       7.858  -3.438  21.331  0.00  0.00    +0.210 HD
ENDBRANCH   2  20
BRANCH   3  22
ATOM     22  O   UNL     1      10.072  -4.110  24.495  0.00  0.00    -0.386 OA
ATOM     23  H   UNL     1      10.569  -3.640  23.801  0.00  0.00    +0.210 HD
ENDBRANCH   3  22
BRANCH   4  24
ATOM     24  C   UNL     1       7.753  -3.584  26.772  0.00  0.00    +0.206 C 
BRANCH  24  25
ATOM     25  O   UNL     1       6.398  -3.957  26.541  0.00  0.00    -0.284 OA
BRANCH  25  26
ATOM     26  P   UNL     1       6.013  -5.514  26.410  0.00  0.00    +0.483 P 
ATOM     27  O   UNL     1       6.509  -6.401  27.497  0.00  0.00    -0.227 OA
BRANCH  26  28
ATOM     28  O   UNL     1       4.411  -5.428  26.419  0.00  0.00    -0.302 OA
ATOM     29  H   UNL     1       4.020  -6.124  25.854  0.00  0.00    +0.222 HD
ENDBRANCH  26  28
BRANCH  26  30
ATOM     30  O   UNL     1       6.314  -5.938  24.901  0.00  0.00    -0.186 OA
BRANCH  30  31
ATOM     31  P   UNL     1       5.035  -5.750  23.749  0.00  0.00    +0.490 P 
ATOM     32  O   UNL     1       6.018  -6.175  22.660  0.00  0.00    -0.227 OA
BRANCH  31  33
ATOM     33  O   UNL     1       5.157  -4.137  23.921  0.00  0.00    -0.302 OA
ATOM     34  H   UNL     1       4.934  -3.639  23.112  0.00  0.00    +0.222 HD
ENDBRANCH  31  33
BRANCH  31  35
ATOM     35  O   UNL     1       3.758  -5.563  22.598  0.00  0.00    -0.211 OA
BRANCH  35  36
ATOM     36  P   UNL     1       2.374  -6.457  23.121  0.00  0.00    +0.312 P 
ATOM     37  S   UNL     1       0.854  -7.437  23.695  0.00  0.00    +0.023 S 
BRANCH  36  38
ATOM     38  O   UNL     1       2.307  -5.335  24.319  0.00  0.00    -0.327 OA
ATOM     39  H   UNL     1       1.767  -5.709  25.040  0.00  0.00    +0.219 HD
ENDBRANCH  36  38
BRANCH  36  40
ATOM     40  O   UNL     1       3.468  -7.390  23.922  0.00  0.00    -0.327 OA
ATOM     41  H   UNL     1       3.834  -6.920  24.691  0.00  0.00    +0.219 HD
ENDBRANCH  36  40
ENDBRANCH  35  36
ENDBRANCH  31  35
ENDBRANCH  30  31
ENDBRANCH  26  30
ENDBRANCH  25  26
ENDBRANCH  24  25
ENDBRANCH   4  24
TORSDOF 14
ENDMDL
MODEL 8
REMARK VINA RESULT:      -6.9      4.526      7.917
REMARK  Name = 
REMARK  14 active torsions:
REMARK  status: ('A' for Active; 'I' for Inactive)
REMARK    1  A    between atoms: N_8  and  C_9
REMARK    2  A    between atoms: C_12  and  C_14
REMARK    3  A    between atoms: C_14  and  O_15
REMARK    4  A    between atoms: O_15  and  P_16
REMARK    5  A    between atoms: P_16  and  O_17
REMARK    6  A    between atoms: P_16  and  O_19
REMARK    7  A    between atoms: O_19  and  P_20
REMARK    8  A    between atoms: P_20  and  O_21
REMARK    9  A    between atoms: P_20  and  O_23
REMARK   10  A    between atoms: O_23  and  P_24
REMARK   11  A    between atoms: P_24  and  O_25
REMARK   12  A    between atoms: P_24  and  O_26
REMARK   13  A    between atoms: C_28  and  O_30
REMARK   14  A    between atoms: C_31  and  O_33
REMARK                            x       y       z     vdW  Elec       q    Type
REMARK                         _______ _______ _______ _____ _____    ______ ____
ROOT
ATOM      1  C   UNL     1       7.530  -3.067  23.887  0.00  0.00    +0.253 C 
ATOM      2  C   UNL     1       7.962  -4.426  23.300  0.00  0.00    +0.195 C 
ATOM      3  C   UNL     1       8.304  -5.291  24.522  0.00  0.00    +0.178 C 
ATOM      4  C   UNL     1       8.121  -4.354  25.712  0.00  0.00    +0.178 C 
ATOM      5  O   UNL     1       7.165  -3.375  25.270  0.00  0.00    -0.346 OA
ENDROOT
BRANCH   1  17
ATOM      6  N   UNL     1       6.837   1.567  26.456  0.00  0.00    -0.329 N 
ATOM      7  H   UNL     1       6.720   2.566  26.345  0.00  0.00    +0.145 HD
ATOM      8  H   UNL     1       5.962   1.066  26.551  0.00  0.00    +0.145 HD
ATOM      9  C   UNL     1       7.723   0.942  25.641  0.00  0.00    +0.195 A 
ATOM     10  N   UNL     1       8.814   1.692  25.253  0.00  0.00    -0.293 N 
ATOM     11  H   UNL     1       8.930   2.632  25.590  0.00  0.00    +0.172 HD
ATOM     12  C   UNL     1       9.853   1.223  24.470  0.00  0.00    +0.280 A 
ATOM     13  O   UNL     1      10.816   1.924  24.173  0.00  0.00    -0.265 OA
ATOM     14  C   UNL     1       9.653  -0.152  24.062  0.00  0.00    +0.172 A 
ATOM     15  N   UNL     1      10.456  -0.980  23.330  0.00  0.00    -0.229 NA
ATOM     16  C   UNL     1       9.791  -2.114  23.281  0.00  0.00    +0.203 A 
ATOM     17  N   UNL     1       8.556  -2.028  23.880  0.00  0.00    -0.285 N 
ATOM     18  C   UNL     1       8.499  -0.789  24.472  0.00  0.00    +0.171 A 
ATOM     19  N   UNL     1       7.514  -0.295  25.262  0.00  0.00    -0.196 NA
ENDBRANCH   1  17
BRANCH   2  20
ATOM     20  O   UNL     1       6.877  -5.037  22.570  0.00  0.00    -0.385 OA
ATOM     21  H   UNL     1       7.091  -5.034  21.621  0.00  0.00    +0.210 HD
ENDBRANCH   2  20
BRANCH   3  22
ATOM     22  O   UNL     1       9.638  -5.783  24.444  0.00  0.00    -0.386 OA
ATOM     23  H   UNL     1      10.223  -5.113  24.841  0.00  0.00    +0.210 HD
ENDBRANCH   3  22
BRANCH   4  24
ATOM     24  C   UNL     1       7.717  -5.056  27.019  0.00  0.00    +0.206 C 
BRANCH  24  25
ATOM     25  O   UNL     1       6.702  -6.014  26.736  0.00  0.00    -0.284 OA
BRANCH  25  26
ATOM     26  P   UNL     1       5.433  -6.142  27.718  0.00  0.00    +0.483 P 
ATOM     27  O   UNL     1       5.418  -7.333  28.610  0.00  0.00    -0.227 OA
BRANCH  26  28
ATOM     28  O   UNL     1       5.573  -4.786  28.566  0.00  0.00    -0.302 OA
ATOM     29  H   UNL     1       6.482  -4.433  28.512  0.00  0.00    +0.222 HD
ENDBRANCH  26  28
BRANCH  26  30
ATOM     30  O   UNL     1       4.136  -5.848  26.836  0.00  0.00    -0.186 OA
BRANCH  30  31
ATOM     31  P   UNL     1       3.894  -4.224  26.288  0.00  0.00    +0.490 P 
ATOM     32  O   UNL     1       2.422  -4.568  26.070  0.00  0.00    -0.227 OA
BRANCH  31  33
ATOM     33  O   UNL     1       4.695  -4.597  24.922  0.00  0.00    -0.302 OA
ATOM     34  H   UNL     1       4.770  -3.851  24.297  0.00  0.00    +0.222 HD
ENDBRANCH  31  33
BRANCH  31  35
ATOM     35  O   UNL     1       3.651  -2.602  25.741  0.00  0.00    -0.211 OA
BRANCH  35  36
ATOM     36  P   UNL     1       4.022  -1.499  27.021  0.00  0.00    +0.312 P 
ATOM     37  S   UNL     1       4.429  -0.289  28.424  0.00  0.00    +0.023 S 
BRANCH  36  38
ATOM     38  O   UNL     1       4.488  -0.500  25.802  0.00  0.00    -0.327 OA
ATOM     39  H   UNL     1       4.185  -0.899  24.965  0.00  0.00    +0.219 HD
ENDBRANCH  36  38
BRANCH  36  40
ATOM     40  O   UNL     1       5.471  -2.279  27.066  0.00  0.00    -0.327 OA
ATOM     41  H   UNL     1       6.097  -1.824  27.657  0.00  0.00    +0.219 HD
ENDBRANCH  36  40
ENDBRANCH  35  36
ENDBRANCH  31  35
ENDBRANCH  30  31
ENDBRANCH  26  30
ENDBRANCH  25  26
ENDBRANCH  24  25
ENDBRANCH   4  24
TORSDOF 14
ENDMDL
MODEL 9
REMARK VINA RESULT:      -6.9      5.390      8.928
REMARK  Name = 
REMARK  14 active torsions:
REMARK  status: ('A' for Active; 'I' for Inactive)
REMARK    1  A    between atoms: N_8  and  C_9
REMARK    2  A    between atoms: C_12  and  C_14
REMARK    3  A    between atoms: C_14  and  O_15
REMARK    4  A    between atoms: O_15  and  P_16
REMARK    5  A    between atoms: P_16  and  O_17
REMARK    6  A    between atoms: P_16  and  O_19
REMARK    7  A    between atoms: O_19  and  P_20
REMARK    8  A    between atoms: P_20  and  O_21
REMARK    9  A    between atoms: P_20  and  O_23
REMARK   10  A    between atoms: O_23  and  P_24
REMARK   11  A    between atoms: P_24  and  O_25
REMARK   12  A    between atoms: P_24  and  O_26
REMARK   13  A    between atoms: C_28  and  O_30
REMARK   14  A    between atoms: C_31  and  O_33
REMARK                            x       y       z     vdW  Elec       q    Type
REMARK                         _______ _______ _______ _____ _____    ______ ____
ROOT
ATOM      1  C   UNL     1       7.116  -3.321  23.725  0.00  0.00    +0.253 C 
ATOM      2  C   UNL     1       7.515  -4.774  23.395  0.00  0.00    +0.195 C 
ATOM      3  C   UNL     1       8.011  -5.357  24.726  0.00  0.00    +0.178 C 
ATOM      4  C   UNL     1       7.935  -4.187  25.703  0.00  0.00    +0.178 C 
ATOM      5  O   UNL     1       6.912  -3.328  25.174  0.00  0.00    -0.346 OA
ENDROOT
BRANCH   1  17
ATOM      6  N   UNL     1       5.736   1.775  22.906  0.00  0.00    -0.329 N 
ATOM      7  H   UNL     1       5.668   2.516  22.219  0.00  0.00    +0.145 HD
ATOM      8  H   UNL     1       4.867   1.275  23.047  0.00  0.00    +0.145 HD
ATOM      9  C   UNL     1       6.818   0.960  22.850  0.00  0.00    +0.195 A 
ATOM     10  N   UNL     1       7.984   1.540  22.391  0.00  0.00    -0.293 N 
ATOM     11  H   UNL     1       8.003   2.515  22.146  0.00  0.00    +0.172 HD
ATOM     12  C   UNL     1       9.203   0.895  22.309  0.00  0.00    +0.280 A 
ATOM     13  O   UNL     1      10.219   1.464  21.917  0.00  0.00    -0.265 OA
ATOM     14  C   UNL     1       9.120  -0.489  22.727  0.00  0.00    +0.172 A 
ATOM     15  N   UNL     1      10.096  -1.439  22.829  0.00  0.00    -0.229 NA
ATOM     16  C   UNL     1       9.464  -2.504  23.274  0.00  0.00    +0.203 A 
ATOM     17  N   UNL     1       8.108  -2.306  23.382  0.00  0.00    -0.285 N 
ATOM     18  C   UNL     1       7.890  -0.975  23.122  0.00  0.00    +0.171 A 
ATOM     19  N   UNL     1       6.719  -0.296  23.209  0.00  0.00    -0.196 NA
ENDBRANCH   1  17
BRANCH   2  20
ATOM     20  O   UNL     1       6.373  -5.529  22.938  0.00  0.00    -0.385 OA
ATOM     21  H   UNL     1       6.609  -6.472  22.906  0.00  0.00    +0.210 HD
ENDBRANCH   2  20
BRANCH   3  22
ATOM     22  O   UNL     1       9.340  -5.852  24.605  0.00  0.00    -0.386 OA
ATOM     23  H   UNL     1       9.689  -5.986  25.505  0.00  0.00    +0.210 HD
ENDBRANCH   3  22
BRANCH   4  24
ATOM     24  C   UNL     1       7.695  -4.595  27.166  0.00  0.00    +0.206 C 
BRANCH  24  25
ATOM     25  O   UNL     1       7.283  -5.957  27.206  0.00  0.00    -0.284 OA
BRANCH  25  26
ATOM     26  P   UNL     1       6.384  -6.480  28.434  0.00  0.00    +0.483 P 
ATOM     27  O   UNL     1       7.059  -7.399  29.390  0.00  0.00    -0.227 OA
BRANCH  26  28
ATOM     28  O   UNL     1       6.003  -5.090  29.140  0.00  0.00    -0.302 OA
ATOM     29  H   UNL     1       6.727  -4.783  29.719  0.00  0.00    +0.222 HD
ENDBRANCH  26  28
BRANCH  26  30
ATOM     30  O   UNL     1       4.982  -6.935  27.820  0.00  0.00    -0.186 OA
BRANCH  30  31
ATOM     31  P   UNL     1       4.506  -6.231  26.312  0.00  0.00    +0.490 P 
ATOM     32  O   UNL     1       4.075  -4.986  27.083  0.00  0.00    -0.227 OA
BRANCH  31  33
ATOM     33  O   UNL     1       3.238  -7.250  26.270  0.00  0.00    -0.302 OA
ATOM     34  H   UNL     1       2.729  -7.276  27.103  0.00  0.00    +0.222 HD
ENDBRANCH  31  33
BRANCH  31  35
ATOM     35  O   UNL     1       4.030  -5.527  24.806  0.00  0.00    -0.211 OA
BRANCH  35  36
ATOM     36  P   UNL     1       2.930  -6.587  23.995  0.00  0.00    +0.312 P 
ATOM     37  S   UNL     1       1.724  -7.751  23.106  0.00  0.00    +0.023 S 
BRANCH  36  38
ATOM     38  O   UNL     1       4.258  -7.529  23.777  0.00  0.00    -0.327 OA
ATOM     39  H   UNL     1       4.288  -7.779  22.834  0.00  0.00    +0.219 HD
ENDBRANCH  36  38
BRANCH  36  40
ATOM     40  O   UNL     1       3.250  -5.661  22.673  0.00  0.00    -0.327 OA
ATOM     41  H   UNL     1       4.031  -5.099  22.818  0.00  0.00    +0.219 HD
ENDBRANCH  36  40
ENDBRANCH  35  36
ENDBRANCH  31  35
ENDBRANCH  30  31
ENDBRANCH  26  30
ENDBRANCH  25  26
ENDBRANCH  24  25
ENDBRANCH   4  24
TORSDOF 14
ENDMDL
