MODEL 1
REMARK VINA RESULT:      -7.1      0.000      0.000
REMARK  Name = 
REMARK  5 active torsions:
REMARK  status: ('A' for Active; 'I' for Inactive)
REMARK    1  A    between atoms: N_3  and  CA_4
REMARK    2  A    between atoms: CA_9  and  C_11
REMARK    3  A    between atoms: C_11  and  O_12
REMARK    4  A    between atoms: C_14  and  C_15
REMARK    5  A    between atoms: C_14  and  C_16
REMARK                            x       y       z     vdW  Elec       q    Type
REMARK                         _______ _______ _______ _____ _____    ______ ____
ROOT
ATOM      1  CA  UNL     1       8.377  -4.345  23.975  0.00  0.00    +0.223 C 
ATOM      2  C   UNL     1       7.307  -4.702  25.046  0.00  0.00    +0.169 C 
ATOM      3  N   UNL     1       6.795  -5.757  24.139  0.00  0.00    -0.270 N 
ATOM      4  CA  UNL     1       5.341  -5.764  23.872  0.00  0.00    +0.201 C 
ATOM      5  C   UNL     1       4.832  -4.310  24.025  0.00  0.00    +0.042 C 
ATOM      6  C   UNL     1       5.011  -3.499  22.726  0.00  0.00    +0.025 C 
ATOM      7  C   UNL     1       3.367  -4.157  24.444  0.00  0.00    +0.025 C 
ATOM      8  S   UNL     1       5.903  -3.559  25.328  0.00  0.00    -0.127 S 
ATOM      9  C   UNL     1       7.647  -5.418  23.117  0.00  0.00    +0.244 C 
ATOM     10  O   UNL     1       7.651  -5.787  21.964  0.00  0.00    -0.273 OA
ENDROOT
BRANCH   1  19
ATOM     11  C   UNL     1       8.932  -2.090  24.206  0.00  0.00    +0.179 C 
ATOM     12  N   UNL     1       9.032  -0.751  23.913  0.00  0.00    -0.321 N 
ATOM     13  C   UNL     1       9.543   0.194  24.904  0.00  0.00    +0.106 C 
ATOM     14  C   UNL     1      10.870   0.787  24.448  0.00  0.00    +0.019 C 
ATOM     15  C   UNL     1      10.737   2.020  23.554  0.00  0.00    +0.002 C 
ATOM     16  C   UNL     1       9.592   2.027  22.544  0.00  0.00    +0.002 C 
ATOM     17  C   UNL     1       9.307   0.677  21.889  0.00  0.00    +0.019 C 
ATOM     18  C   UNL     1       8.374  -0.202  22.725  0.00  0.00    +0.106 C 
ATOM     19  N   UNL     1       8.282  -2.958  23.507  0.00  0.00    -0.261 NA
ENDBRANCH   1  19
BRANCH   4  20
ATOM     20  C   UNL     1       4.676  -6.793  24.801  0.00  0.00    +0.327 C 
ATOM     21  OXT UNL     1       4.809  -6.819  26.016  0.00  0.00    -0.249 OA
BRANCH  20  22
ATOM     22  O   UNL     1       3.865  -7.671  24.159  0.00  0.00    -0.479 OA
ATOM     23  H   UNL     1       4.204  -7.837  23.257  0.00  0.00    +0.295 HD
ENDBRANCH  20  22
ENDBRANCH   4  20
TORSDOF 3
ENDMDL
MODEL 2
REMARK VINA RESULT:      -7.1      1.353      1.670
REMARK  Name = 
REMARK  5 active torsions:
REMARK  status: ('A' for Active; 'I' for Inactive)
REMARK    1  A    between atoms: N_3  and  CA_4
REMARK    2  A    between atoms: CA_9  and  C_11
REMARK    3  A    between atoms: C_11  and  O_12
REMARK    4  A    between atoms: C_14  and  C_15
REMARK    5  A    between atoms: C_14  and  C_16
REMARK                            x       y       z     vdW  Elec       q    Type
REMARK                         _______ _______ _______ _____ _____    ______ ____
ROOT
ATOM      1  CA  UNL     1       8.228  -3.791  26.203  0.00  0.00    +0.223 C 
ATOM      2  C   UNL     1       6.822  -4.324  26.603  0.00  0.00    +0.169 C 
ATOM      3  N   UNL     1       6.963  -5.379  25.570  0.00  0.00    -0.270 N 
ATOM      4  CA  UNL     1       5.846  -5.535  24.615  0.00  0.00    +0.201 C 
ATOM      5  C   UNL     1       5.150  -4.158  24.482  0.00  0.00    +0.042 C 
ATOM      6  C   UNL     1       5.845  -3.263  23.437  0.00  0.00    +0.025 C 
ATOM      7  C   UNL     1       3.663  -4.195  24.114  0.00  0.00    +0.025 C 
ATOM      8  S   UNL     1       5.333  -3.365  26.138  0.00  0.00    -0.127 S 
ATOM      9  C   UNL     1       8.159  -4.891  25.104  0.00  0.00    +0.244 C 
ATOM     10  O   UNL     1       8.779  -5.193  24.110  0.00  0.00    -0.273 OA
ENDROOT
BRANCH   1  19
ATOM     11  C   UNL     1       9.025  -2.119  24.783  0.00  0.00    +0.179 C 
ATOM     12  N   UNL     1       9.125  -0.899  24.157  0.00  0.00    -0.321 N 
ATOM     13  C   UNL     1      10.266  -0.594  23.295  0.00  0.00    +0.106 C 
ATOM     14  C   UNL     1       9.818  -0.431  21.848  0.00  0.00    +0.019 C 
ATOM     15  C   UNL     1       9.351   0.978  21.485  0.00  0.00    +0.002 C 
ATOM     16  C   UNL     1       8.562   1.744  22.545  0.00  0.00    +0.002 C 
ATOM     17  C   UNL     1       7.589   0.893  23.359  0.00  0.00    +0.019 C 
ATOM     18  C   UNL     1       8.257   0.210  24.555  0.00  0.00    +0.106 C 
ATOM     19  N   UNL     1       8.204  -2.400  25.738  0.00  0.00    -0.261 NA
ENDBRANCH   1  19
BRANCH   4  20
ATOM     20  C   UNL     1       4.943  -6.682  25.099  0.00  0.00    +0.327 C 
ATOM     21  OXT UNL     1       4.570  -6.832  26.254  0.00  0.00    -0.249 OA
BRANCH  20  22
ATOM     22  O   UNL     1       4.536  -7.517  24.110  0.00  0.00    -0.479 OA
ATOM     23  H   UNL     1       5.252  -7.627  23.453  0.00  0.00    +0.295 HD
ENDBRANCH  20  22
ENDBRANCH   4  20
TORSDOF 3
ENDMDL
MODEL 3
REMARK VINA RESULT:      -7.1      3.915      7.417
REMARK  Name = 
REMARK  5 active torsions:
REMARK  status: ('A' for Active; 'I' for Inactive)
REMARK    1  A    between atoms: N_3  and  CA_4
REMARK    2  A    between atoms: CA_9  and  C_11
REMARK    3  A    between atoms: C_11  and  O_12
REMARK    4  A    between atoms: C_14  and  C_15
REMARK    5  A    between atoms: C_14  and  C_16
REMARK                            x       y       z     vdW  Elec       q    Type
REMARK                         _______ _______ _______ _____ _____    ______ ____
ROOT
ATOM      1  CA  UNL     1      10.157  -1.082  23.767  0.00  0.00    +0.223 C 
ATOM      2  C   UNL     1      10.381   0.236  22.973  0.00  0.00    +0.169 C 
ATOM      3  N   UNL     1       9.970   0.996  24.178  0.00  0.00    -0.270 N 
ATOM      4  CA  UNL     1       8.929   2.029  23.996  0.00  0.00    +0.201 C 
ATOM      5  C   UNL     1       8.051   1.599  22.795  0.00  0.00    +0.042 C 
ATOM      6  C   UNL     1       6.933   0.626  23.220  0.00  0.00    +0.025 C 
ATOM      7  C   UNL     1       7.377   2.737  22.021  0.00  0.00    +0.025 C 
ATOM      8  S   UNL     1       9.197   0.705  21.657  0.00  0.00    -0.127 S 
ATOM      9  C   UNL     1       9.655  -0.133  24.893  0.00  0.00    +0.244 C 
ATOM     10  O   UNL     1       9.075  -0.237  25.950  0.00  0.00    -0.273 OA
ENDROOT
BRANCH   1  19
ATOM     11  C   UNL     1       8.810  -2.986  23.854  0.00  0.00    +0.179 C 
ATOM     12  N   UNL     1       7.845  -3.900  23.502  0.00  0.00    -0.321 N 
ATOM     13  C   UNL     1       7.729  -5.173  24.210  0.00  0.00    +0.106 C 
ATOM     14  C   UNL     1       6.415  -5.243  24.979  0.00  0.00    +0.019 C 
ATOM     15  C   UNL     1       5.230  -5.756  24.161  0.00  0.00    +0.002 C 
ATOM     16  C   UNL     1       5.155  -5.321  22.699  0.00  0.00    +0.002 C 
ATOM     17  C   UNL     1       5.594  -3.883  22.434  0.00  0.00    +0.019 C 
ATOM     18  C   UNL     1       7.107  -3.749  22.247  0.00  0.00    +0.106 C 
ATOM     19  N   UNL     1       9.151  -1.958  23.154  0.00  0.00    -0.261 NA
ENDBRANCH   1  19
BRANCH   4  20
ATOM     20  C   UNL     1       9.615   3.398  23.851  0.00  0.00    +0.327 C 
ATOM     21  OXT UNL     1       9.263   4.415  24.432  0.00  0.00    -0.249 OA
BRANCH  20  22
ATOM     22  O   UNL     1      10.703   3.385  23.042  0.00  0.00    -0.479 OA
ATOM     23  H   UNL     1      11.181   4.235  23.116  0.00  0.00    +0.295 HD
ENDBRANCH  20  22
ENDBRANCH   4  20
TORSDOF 3
ENDMDL
MODEL 4
REMARK VINA RESULT:      -7.0      3.277      7.319
REMARK  Name = 
REMARK  5 active torsions:
REMARK  status: ('A' for Active; 'I' for Inactive)
REMARK    1  A    between atoms: N_3  and  CA_4
REMARK    2  A    between atoms: CA_9  and  C_11
REMARK    3  A    between atoms: C_11  and  O_12
REMARK    4  A    between atoms: C_14  and  C_15
REMARK    5  A    between atoms: C_14  and  C_16
REMARK                            x       y       z     vdW  Elec       q    Type
REMARK                         _______ _______ _______ _____ _____    ______ ____
ROOT
ATOM      1  CA  UNL     1       7.983  -2.434  22.788  0.00  0.00    +0.223 C 
ATOM      2  C   UNL     1       7.492  -0.975  22.566  0.00  0.00    +0.169 C 
ATOM      3  N   UNL     1       8.877  -0.599  22.194  0.00  0.00    -0.270 N 
ATOM      4  CA  UNL     1       9.459   0.575  22.880  0.00  0.00    +0.201 C 
ATOM      5  C   UNL     1       8.781   0.687  24.267  0.00  0.00    +0.042 C 
ATOM      6  C   UNL     1       9.474  -0.202  25.318  0.00  0.00    +0.025 C 
ATOM      7  C   UNL     1       8.708   2.098  24.860  0.00  0.00    +0.025 C 
ATOM      8  S   UNL     1       7.064   0.058  24.017  0.00  0.00    -0.127 S 
ATOM      9  C   UNL     1       9.387  -1.841  22.475  0.00  0.00    +0.244 C 
ATOM     10  O   UNL     1      10.541  -2.200  22.552  0.00  0.00    -0.273 OA
ENDROOT
BRANCH   1  19
ATOM     11  C   UNL     1       6.682  -3.585  24.348  0.00  0.00    +0.179 C 
ATOM     12  N   UNL     1       6.313  -4.176  25.532  0.00  0.00    -0.321 N 
ATOM     13  C   UNL     1       4.950  -4.666  25.728  0.00  0.00    +0.106 C 
ATOM     14  C   UNL     1       4.938  -6.184  25.862  0.00  0.00    +0.019 C 
ATOM     15  C   UNL     1       5.172  -6.695  27.284  0.00  0.00    +0.002 C 
ATOM     16  C   UNL     1       6.180  -5.932  28.140  0.00  0.00    +0.002 C 
ATOM     17  C   UNL     1       7.409  -5.428  27.387  0.00  0.00    +0.019 C 
ATOM     18  C   UNL     1       7.176  -4.075  26.710  0.00  0.00    +0.106 C 
ATOM     19  N   UNL     1       7.767  -2.912  24.159  0.00  0.00    -0.261 NA
ENDBRANCH   1  19
BRANCH   4  20
ATOM     20  C   UNL     1       9.301   1.804  21.970  0.00  0.00    +0.327 C 
ATOM     21  OXT UNL     1       8.237   2.195  21.511  0.00  0.00    -0.249 OA
BRANCH  20  22
ATOM     22  O   UNL     1      10.458   2.475  21.745  0.00  0.00    -0.479 OA
ATOM     23  H   UNL     1      10.760   2.903  22.571  0.00  0.00    +0.295 HD
ENDBRANCH  20  22
ENDBRANCH   4  20
TORSDOF 3
ENDMDL
MODEL 5
REMARK VINA RESULT:      -7.0      1.545      2.038
REMARK  Name = 
REMARK  5 active torsions:
REMARK  status: ('A' for Active; 'I' for Inactive)
REMARK    1  A    between atoms: N_3  and  CA_4
REMARK    2  A    between atoms: CA_9  and  C_11
REMARK    3  A    between atoms: C_11  and  O_12
REMARK    4  A    between atoms: C_14  and  C_15
REMARK    5  A    between atoms: C_14  and  C_16
REMARK                            x       y       z     vdW  Elec       q    Type
REMARK                         _______ _______ _______ _____ _____    ______ ____
ROOT
ATOM      1  CA  UNL     1       7.504  -4.332  22.451  0.00  0.00    +0.223 C 
ATOM      2  C   UNL     1       6.862  -5.403  23.380  0.00  0.00    +0.169 C 
ATOM      3  N   UNL     1       5.585  -5.227  22.648  0.00  0.00    -0.270 N 
ATOM      4  CA  UNL     1       4.375  -4.986  23.461  0.00  0.00    +0.201 C 
ATOM      5  C   UNL     1       4.824  -4.295  24.772  0.00  0.00    +0.042 C 
ATOM      6  C   UNL     1       4.948  -2.768  24.602  0.00  0.00    +0.025 C 
ATOM      7  C   UNL     1       3.928  -4.533  25.992  0.00  0.00    +0.025 C 
ATOM      8  S   UNL     1       6.502  -4.977  25.125  0.00  0.00    -0.127 S 
ATOM      9  C   UNL     1       6.066  -4.204  21.870  0.00  0.00    +0.244 C 
ATOM     10  O   UNL     1       5.470  -3.452  21.132  0.00  0.00    -0.273 OA
ENDROOT
BRANCH   1  19
ATOM     11  C   UNL     1       8.651  -2.299  22.471  0.00  0.00    +0.179 C 
ATOM     12  N   UNL     1       9.159  -1.111  22.939  0.00  0.00    -0.321 N 
ATOM     13  C   UNL     1      10.098  -0.333  22.133  0.00  0.00    +0.106 C 
ATOM     14  C   UNL     1       9.476   0.992  21.712  0.00  0.00    +0.019 C 
ATOM     15  C   UNL     1       9.639   2.120  22.730  0.00  0.00    +0.002 C 
ATOM     16  C   UNL     1       9.534   1.744  24.207  0.00  0.00    +0.002 C 
ATOM     17  C   UNL     1       8.481   0.686  24.526  0.00  0.00    +0.019 C 
ATOM     18  C   UNL     1       9.001  -0.742  24.347  0.00  0.00    +0.106 C 
ATOM     19  N   UNL     1       8.019  -3.169  23.183  0.00  0.00    -0.261 NA
ENDBRANCH   1  19
BRANCH   4  20
ATOM     20  C   UNL     1       3.631  -6.319  23.644  0.00  0.00    +0.327 C 
ATOM     21  OXT UNL     1       2.417  -6.451  23.577  0.00  0.00    -0.249 OA
BRANCH  20  22
ATOM     22  O   UNL     1       4.448  -7.383  23.842  0.00  0.00    -0.479 OA
ATOM     23  H   UNL     1       5.095  -7.446  23.111  0.00  0.00    +0.295 HD
ENDBRANCH  20  22
ENDBRANCH   4  20
TORSDOF 3
ENDMDL
MODEL 6
REMARK VINA RESULT:      -6.9      2.280      3.443
REMARK  Name = 
REMARK  5 active torsions:
REMARK  status: ('A' for Active; 'I' for Inactive)
REMARK    1  A    between atoms: N_3  and  CA_4
REMARK    2  A    between atoms: CA_9  and  C_11
REMARK    3  A    between atoms: C_11  and  O_12
REMARK    4  A    between atoms: C_14  and  C_15
REMARK    5  A    between atoms: C_14  and  C_16
REMARK                            x       y       z     vdW  Elec       q    Type
REMARK                         _______ _______ _______ _____ _____    ______ ____
ROOT
ATOM      1  CA  UNL     1       5.465  -1.968  24.614  0.00  0.00    +0.223 C 
ATOM      2  C   UNL     1       5.632  -3.513  24.541  0.00  0.00    +0.169 C 
ATOM      3  N   UNL     1       5.960  -3.514  25.987  0.00  0.00    -0.270 N 
ATOM      4  CA  UNL     1       7.191  -4.225  26.394  0.00  0.00    +0.201 C 
ATOM      5  C   UNL     1       8.170  -4.185  25.196  0.00  0.00    +0.042 C 
ATOM      6  C   UNL     1       8.995  -2.882  25.171  0.00  0.00    +0.025 C 
ATOM      7  C   UNL     1       9.170  -5.343  25.112  0.00  0.00    +0.025 C 
ATOM      8  S   UNL     1       7.096  -4.218  23.695  0.00  0.00    -0.127 S 
ATOM      9  C   UNL     1       5.929  -2.146  26.088  0.00  0.00    +0.244 C 
ATOM     10  O   UNL     1       6.285  -1.433  26.999  0.00  0.00    -0.273 OA
ENDROOT
BRANCH   1  19
ATOM     11  C   UNL     1       6.763  -0.088  24.137  0.00  0.00    +0.179 C 
ATOM     12  N   UNL     1       7.664   0.727  23.494  0.00  0.00    -0.321 N 
ATOM     13  C   UNL     1       7.815   2.127  23.886  0.00  0.00    +0.106 C 
ATOM     14  C   UNL     1       9.196   2.372  24.481  0.00  0.00    +0.019 C 
ATOM     15  C   UNL     1      10.280   2.693  23.453  0.00  0.00    +0.002 C 
ATOM     16  C   UNL     1      10.222   1.943  22.124  0.00  0.00    +0.002 C 
ATOM     17  C   UNL     1       9.797   0.480  22.232  0.00  0.00    +0.019 C 
ATOM     18  C   UNL     1       8.277   0.302  22.235  0.00  0.00    +0.106 C 
ATOM     19  N   UNL     1       6.381  -1.248  23.722  0.00  0.00    -0.261 NA
ENDBRANCH   1  19
BRANCH   4  20
ATOM     20  C   UNL     1       6.808  -5.632  26.882  0.00  0.00    +0.327 C 
ATOM     21  OXT UNL     1       5.955  -6.337  26.365  0.00  0.00    -0.249 OA
BRANCH  20  22
ATOM     22  O   UNL     1       7.544  -6.068  27.935  0.00  0.00    -0.479 OA
ATOM     23  H   UNL     1       7.151  -6.886  28.298  0.00  0.00    +0.295 HD
ENDBRANCH  20  22
ENDBRANCH   4  20
TORSDOF 3
ENDMDL
MODEL 7
REMARK VINA RESULT:      -6.9      1.801      2.892
REMARK  Name = 
REMARK  5 active torsions:
REMARK  status: ('A' for Active; 'I' for Inactive)
REMARK    1  A    between atoms: N_3  and  CA_4
REMARK    2  A    between atoms: CA_9  and  C_11
REMARK    3  A    between atoms: C_11  and  O_12
REMARK    4  A    between atoms: C_14  and  C_15
REMARK    5  A    between atoms: C_14  and  C_16
REMARK                            x       y       z     vdW  Elec       q    Type
REMARK                         _______ _______ _______ _____ _____    ______ ____
ROOT
ATOM      1  CA  UNL     1       5.705  -2.096  24.815  0.00  0.00    +0.223 C 
ATOM      2  C   UNL     1       5.098  -2.935  23.654  0.00  0.00    +0.169 C 
ATOM      3  N   UNL     1       5.032  -4.098  24.571  0.00  0.00    -0.270 N 
ATOM      4  CA  UNL     1       5.615  -5.367  24.086  0.00  0.00    +0.201 C 
ATOM      5  C   UNL     1       6.735  -5.011  23.079  0.00  0.00    +0.042 C 
ATOM      6  C   UNL     1       8.076  -4.729  23.787  0.00  0.00    +0.025 C 
ATOM      7  C   UNL     1       7.018  -6.058  21.998  0.00  0.00    +0.025 C 
ATOM      8  S   UNL     1       6.172  -3.453  22.264  0.00  0.00    -0.127 S 
ATOM      9  C   UNL     1       5.660  -3.439  25.599  0.00  0.00    +0.244 C 
ATOM     10  O   UNL     1       6.097  -3.875  26.640  0.00  0.00    -0.273 OA
ENDROOT
BRANCH   1  19
ATOM     11  C   UNL     1       7.060  -0.373  24.011  0.00  0.00    +0.179 C 
ATOM     12  N   UNL     1       8.197   0.338  23.708  0.00  0.00    -0.321 N 
ATOM     13  C   UNL     1       8.123   1.551  22.896  0.00  0.00    +0.106 C 
ATOM     14  C   UNL     1       8.511   2.774  23.719  0.00  0.00    +0.019 C 
ATOM     15  C   UNL     1      10.012   3.062  23.754  0.00  0.00    +0.002 C 
ATOM     16  C   UNL     1      10.950   1.858  23.817  0.00  0.00    +0.002 C 
ATOM     17  C   UNL     1      10.457   0.706  24.690  0.00  0.00    +0.019 C 
ATOM     18  C   UNL     1       9.519  -0.245  23.943  0.00  0.00    +0.106 C 
ATOM     19  N   UNL     1       7.038  -1.565  24.504  0.00  0.00    -0.261 NA
ENDBRANCH   1  19
BRANCH   4  20
ATOM     20  C   UNL     1       4.484  -6.245  23.526  0.00  0.00    +0.327 C 
ATOM     21  OXT UNL     1       3.645  -5.866  22.722  0.00  0.00    -0.249 OA
BRANCH  20  22
ATOM     22  O   UNL     1       4.513  -7.528  23.967  0.00  0.00    -0.479 OA
ATOM     23  H   UNL     1       3.601  -7.869  24.058  0.00  0.00    +0.295 HD
ENDBRANCH  20  22
ENDBRANCH   4  20
TORSDOF 3
ENDMDL
MODEL 8
REMARK VINA RESULT:      -6.8      1.369      1.899
REMARK  Name = 
REMARK  5 active torsions:
REMARK  status: ('A' for Active; 'I' for Inactive)
REMARK    1  A    between atoms: N_3  and  CA_4
REMARK    2  A    between atoms: CA_9  and  C_11
REMARK    3  A    between atoms: C_11  and  O_12
REMARK    4  A    between atoms: C_14  and  C_15
REMARK    5  A    between atoms: C_14  and  C_16
REMARK                            x       y       z     vdW  Elec       q    Type
REMARK                         _______ _______ _______ _____ _____    ______ ____
ROOT
ATOM      1  CA  UNL     1       8.905  -4.635  24.720  0.00  0.00    +0.223 C 
ATOM      2  C   UNL     1       7.920  -5.104  25.829  0.00  0.00    +0.169 C 
ATOM      3  N   UNL     1       6.956  -5.483  24.768  0.00  0.00    -0.270 N 
ATOM      4  CA  UNL     1       5.575  -4.974  24.905  0.00  0.00    +0.201 C 
ATOM      5  C   UNL     1       5.644  -3.647  25.699  0.00  0.00    +0.042 C 
ATOM      6  C   UNL     1       5.939  -2.443  24.782  0.00  0.00    +0.025 C 
ATOM      7  C   UNL     1       4.395  -3.289  26.511  0.00  0.00    +0.025 C 
ATOM      8  S   UNL     1       7.066  -3.853  26.859  0.00  0.00    -0.127 S 
ATOM      9  C   UNL     1       7.738  -4.990  23.754  0.00  0.00    +0.244 C 
ATOM     10  O   UNL     1       7.467  -4.816  22.587  0.00  0.00    -0.273 OA
ENDROOT
BRANCH   1  19
ATOM     11  C   UNL     1       9.583  -2.638  23.720  0.00  0.00    +0.179 C 
ATOM     12  N   UNL     1       9.886  -1.305  23.580  0.00  0.00    -0.321 N 
ATOM     13  C   UNL     1      10.516  -0.807  22.358  0.00  0.00    +0.106 C 
ATOM     14  C   UNL     1       9.573   0.124  21.607  0.00  0.00    +0.019 C 
ATOM     15  C   UNL     1       9.631   1.583  22.059  0.00  0.00    +0.002 C 
ATOM     16  C   UNL     1       9.815   1.841  23.553  0.00  0.00    +0.002 C 
ATOM     17  C   UNL     1       9.067   0.874  24.468  0.00  0.00    +0.019 C 
ATOM     18  C   UNL     1       9.850  -0.412  24.740  0.00  0.00    +0.106 C 
ATOM     19  N   UNL     1       9.257  -3.215  24.827  0.00  0.00    -0.261 NA
ENDBRANCH   1  19
BRANCH   4  20
ATOM     20  C   UNL     1       4.706  -6.073  25.538  0.00  0.00    +0.327 C 
ATOM     21  OXT UNL     1       3.549  -6.311  25.221  0.00  0.00    -0.249 OA
BRANCH  20  22
ATOM     22  O   UNL     1       5.351  -6.816  26.471  0.00  0.00    -0.479 OA
ATOM     23  H   UNL     1       5.104  -7.757  26.376  0.00  0.00    +0.295 HD
ENDBRANCH  20  22
ENDBRANCH   4  20
TORSDOF 3
ENDMDL
MODEL 9
REMARK VINA RESULT:      -6.7      2.853      4.242
REMARK  Name = 
REMARK  5 active torsions:
REMARK  status: ('A' for Active; 'I' for Inactive)
REMARK    1  A    between atoms: N_3  and  CA_4
REMARK    2  A    between atoms: CA_9  and  C_11
REMARK    3  A    between atoms: C_11  and  O_12
REMARK    4  A    between atoms: C_14  and  C_15
REMARK    5  A    between atoms: C_14  and  C_16
REMARK                            x       y       z     vdW  Elec       q    Type
REMARK                         _______ _______ _______ _____ _____    ______ ____
ROOT
ATOM      1  CA  UNL     1      10.058  -0.153  24.095  0.00  0.00    +0.223 C 
ATOM      2  C   UNL     1       9.537  -1.201  25.119  0.00  0.00    +0.169 C 
ATOM      3  N   UNL     1       9.737  -2.254  24.095  0.00  0.00    -0.270 N 
ATOM      4  CA  UNL     1       8.597  -3.158  23.833  0.00  0.00    +0.201 C 
ATOM      5  C   UNL     1       7.299  -2.378  24.156  0.00  0.00    +0.042 C 
ATOM      6  C   UNL     1       6.829  -1.527  22.960  0.00  0.00    +0.025 C 
ATOM      7  C   UNL     1       6.102  -3.228  24.593  0.00  0.00    +0.025 C 
ATOM      8  S   UNL     1       7.754  -1.239  25.535  0.00  0.00    -0.127 S 
ATOM      9  C   UNL     1      10.104  -1.363  23.118  0.00  0.00    +0.244 C 
ATOM     10  O   UNL     1      10.253  -1.541  21.930  0.00  0.00    -0.273 OA
ENDROOT
BRANCH   1  19
ATOM     11  C   UNL     1       9.391   2.083  24.183  0.00  0.00    +0.179 C 
ATOM     12  N   UNL     1       8.650   3.217  23.951  0.00  0.00    -0.321 N 
ATOM     13  C   UNL     1       8.938   4.456  24.670  0.00  0.00    +0.106 C 
ATOM     14  C   UNL     1       9.446   5.527  23.713  0.00  0.00    +0.019 C 
ATOM     15  C   UNL     1       8.346   6.345  23.036  0.00  0.00    +0.002 C 
ATOM     16  C   UNL     1       7.076   5.600  22.630  0.00  0.00    +0.002 C 
ATOM     17  C   UNL     1       7.305   4.189  22.093  0.00  0.00    +0.019 C 
ATOM     18  C   UNL     1       7.394   3.139  23.203  0.00  0.00    +0.106 C 
ATOM     19  N   UNL     1       9.076   0.894  23.793  0.00  0.00    -0.261 NA
ENDBRANCH   1  19
BRANCH   4  20
ATOM     20  C   UNL     1       8.801  -4.453  24.636  0.00  0.00    +0.327 C 
ATOM     21  OXT UNL     1       9.031  -4.496  25.836  0.00  0.00    -0.249 OA
BRANCH  20  22
ATOM     22  O   UNL     1       8.656  -5.585  23.903  0.00  0.00    -0.479 OA
ATOM     23  H   UNL     1       9.493  -5.789  23.438  0.00  0.00    +0.295 HD
ENDBRANCH  20  22
ENDBRANCH   4  20
TORSDOF 3
ENDMDL
