MODEL 1
REMARK VINA RESULT:      -5.2      0.000      0.000
REMARK  Name = 
REMARK  7 active torsions:
REMARK  status: ('A' for Active; 'I' for Inactive)
REMARK    1  A    between atoms: C_1  and  N_2
REMARK    2  A    between atoms: N_2  and  C_3
REMARK    3  A    between atoms: C_3  and  C_4
REMARK    4  A    between atoms: C_4  and  O_6
REMARK    5  A    between atoms: C_4  and  C_7
REMARK    6  A    between atoms: C_9  and  O_10
REMARK    7  A    between atoms: C_11  and  O_12
REMARK                            x       y       z     vdW  Elec       q    Type
REMARK                         _______ _______ _______ _____ _____    ______ ____
ROOT
ATOM      1  C   UNL     1       9.036  -2.495  24.893  0.00  0.00    -0.014 A 
ATOM      2  C   UNL     1       8.072  -2.421  25.917  0.00  0.00    +0.010 A 
ATOM      3  C   UNL     1       7.704  -3.555  26.652  0.00  0.00    +0.049 A 
ATOM      4  C   UNL     1       8.306  -4.771  26.377  0.00  0.00    +0.158 A 
ATOM      5  C   UNL     1       9.275  -4.869  25.391  0.00  0.00    +0.159 A 
ATOM      6  C   UNL     1       9.629  -3.749  24.648  0.00  0.00    +0.055 A 
ENDROOT
BRANCH   4   7
ATOM      7  O   UNL     1       7.938  -5.882  27.079  0.00  0.00    -0.503 OA
ATOM      8  H   UNL     1       7.530  -6.465  26.408  0.00  0.00    +0.292 HD
ENDBRANCH   4   7
BRANCH   5   9
ATOM      9  O   UNL     1       9.852  -6.088  25.165  0.00  0.00    -0.503 OA
ATOM     10  H   UNL     1      10.790  -5.940  24.956  0.00  0.00    +0.292 HD
ENDBRANCH   5   9
BRANCH   1  11
ATOM     11  C   UNL     1       9.370  -1.302  24.005  0.00  0.00    +0.158 C 
BRANCH  11  12
ATOM     12  O   UNL     1      10.068  -0.288  24.744  0.00  0.00    -0.386 OA
ATOM     13  H   UNL     1       9.694  -0.296  25.642  0.00  0.00    +0.210 HD
ENDBRANCH  11  12
BRANCH  11  14
ATOM     14  C   UNL     1      10.228  -1.605  22.741  0.00  0.00    +0.116 C 
BRANCH  14  16
ATOM     15  C   UNL     1       9.347   0.240  21.393  0.00  0.00    +0.101 C 
ATOM     16  N   UNL     1       9.720  -1.170  21.428  0.00  0.00    -0.316 NA
ATOM     17  H   UNL     1      10.442  -1.345  20.729  0.00  0.00    +0.122 HD
ENDBRANCH  14  16
ENDBRANCH  11  14
ENDBRANCH   1  11
TORSDOF 6
ENDMDL
MODEL 2
REMARK VINA RESULT:      -5.1      3.960      5.329
REMARK  Name = 
REMARK  7 active torsions:
REMARK  status: ('A' for Active; 'I' for Inactive)
REMARK    1  A    between atoms: C_1  and  N_2
REMARK    2  A    between atoms: N_2  and  C_3
REMARK    3  A    between atoms: C_3  and  C_4
REMARK    4  A    between atoms: C_4  and  O_6
REMARK    5  A    between atoms: C_4  and  C_7
REMARK    6  A    between atoms: C_9  and  O_10
REMARK    7  A    between atoms: C_11  and  O_12
REMARK                            x       y       z     vdW  Elec       q    Type
REMARK                         _______ _______ _______ _____ _____    ______ ____
ROOT
ATOM      1  C   UNL     1       8.028  -4.863  23.980  0.00  0.00    -0.014 A 
ATOM      2  C   UNL     1       7.926  -3.507  23.612  0.00  0.00    +0.010 A 
ATOM      3  C   UNL     1       7.118  -3.104  22.543  0.00  0.00    +0.049 A 
ATOM      4  C   UNL     1       6.394  -4.051  21.839  0.00  0.00    +0.158 A 
ATOM      5  C   UNL     1       6.456  -5.389  22.193  0.00  0.00    +0.159 A 
ATOM      6  C   UNL     1       7.272  -5.795  23.244  0.00  0.00    +0.055 A 
ENDROOT
BRANCH   4   7
ATOM      7  O   UNL     1       5.619  -3.665  20.784  0.00  0.00    -0.503 OA
ATOM      8  H   UNL     1       5.629  -2.688  20.824  0.00  0.00    +0.292 HD
ENDBRANCH   4   7
BRANCH   5   9
ATOM      9  O   UNL     1       5.713  -6.288  21.479  0.00  0.00    -0.503 OA
ATOM     10  H   UNL     1       5.963  -6.205  20.543  0.00  0.00    +0.292 HD
ENDBRANCH   5   9
BRANCH   1  11
ATOM     11  C   UNL     1       8.986  -5.339  25.066  0.00  0.00    +0.158 C 
BRANCH  11  12
ATOM     12  O   UNL     1      10.335  -4.944  24.773  0.00  0.00    -0.386 OA
ATOM     13  H   UNL     1      10.822  -5.760  24.564  0.00  0.00    +0.210 HD
ENDBRANCH  11  12
BRANCH  11  14
ATOM     14  C   UNL     1       8.681  -4.851  26.513  0.00  0.00    +0.116 C 
BRANCH  14  16
ATOM     15  C   UNL     1       6.485  -5.286  27.505  0.00  0.00    +0.101 C 
ATOM     16  N   UNL     1       7.873  -5.718  27.389  0.00  0.00    -0.316 NA
ATOM     17  H   UNL     1       7.901  -6.667  27.017  0.00  0.00    +0.122 HD
ENDBRANCH  14  16
ENDBRANCH  11  14
ENDBRANCH   1  11
TORSDOF 6
ENDMDL
MODEL 3
REMARK VINA RESULT:      -5.1      2.601      5.619
REMARK  Name = 
REMARK  7 active torsions:
REMARK  status: ('A' for Active; 'I' for Inactive)
REMARK    1  A    between atoms: C_1  and  N_2
REMARK    2  A    between atoms: N_2  and  C_3
REMARK    3  A    between atoms: C_3  and  C_4
REMARK    4  A    between atoms: C_4  and  O_6
REMARK    5  A    between atoms: C_4  and  C_7
REMARK    6  A    between atoms: C_9  and  O_10
REMARK    7  A    between atoms: C_11  and  O_12
REMARK                            x       y       z     vdW  Elec       q    Type
REMARK                         _______ _______ _______ _____ _____    ______ ____
ROOT
ATOM      1  C   UNL     1       9.524  -1.637  23.279  0.00  0.00    -0.014 A 
ATOM      2  C   UNL     1       9.198  -1.385  21.932  0.00  0.00    +0.010 A 
ATOM      3  C   UNL     1       9.409  -0.125  21.358  0.00  0.00    +0.049 A 
ATOM      4  C   UNL     1       9.959   0.890  22.122  0.00  0.00    +0.158 A 
ATOM      5  C   UNL     1      10.311   0.664  23.443  0.00  0.00    +0.159 A 
ATOM      6  C   UNL     1      10.087  -0.581  24.021  0.00  0.00    +0.055 A 
ENDROOT
BRANCH   4   7
ATOM      7  O   UNL     1      10.149   2.124  21.572  0.00  0.00    -0.503 OA
ATOM      8  H   UNL     1      10.749   2.576  22.197  0.00  0.00    +0.292 HD
ENDBRANCH   4   7
BRANCH   5   9
ATOM      9  O   UNL     1      10.864   1.692  24.154  0.00  0.00    -0.503 OA
ATOM     10  H   UNL     1      11.413   1.307  24.858  0.00  0.00    +0.292 HD
ENDBRANCH   5   9
BRANCH   1  11
ATOM     11  C   UNL     1       9.200  -2.964  23.958  0.00  0.00    +0.158 C 
BRANCH  11  12
ATOM     12  O   UNL     1       8.933  -2.777  25.356  0.00  0.00    -0.386 OA
ATOM     13  H   UNL     1       8.757  -1.828  25.478  0.00  0.00    +0.210 HD
ENDBRANCH  11  12
BRANCH  11  14
ATOM     14  C   UNL     1       7.994  -3.757  23.373  0.00  0.00    +0.116 C 
BRANCH  14  16
ATOM     15  C   UNL     1       7.278  -5.816  22.258  0.00  0.00    +0.101 C 
ATOM     16  N   UNL     1       8.080  -5.227  23.324  0.00  0.00    -0.316 NA
ATOM     17  H   UNL     1       9.057  -5.488  23.193  0.00  0.00    +0.122 HD
ENDBRANCH  14  16
ENDBRANCH  11  14
ENDBRANCH   1  11
TORSDOF 6
ENDMDL
MODEL 4
REMARK VINA RESULT:      -5.1      2.357      5.805
REMARK  Name = 
REMARK  7 active torsions:
REMARK  status: ('A' for Active; 'I' for Inactive)
REMARK    1  A    between atoms: C_1  and  N_2
REMARK    2  A    between atoms: N_2  and  C_3
REMARK    3  A    between atoms: C_3  and  C_4
REMARK    4  A    between atoms: C_4  and  O_6
REMARK    5  A    between atoms: C_4  and  C_7
REMARK    6  A    between atoms: C_9  and  O_10
REMARK    7  A    between atoms: C_11  and  O_12
REMARK                            x       y       z     vdW  Elec       q    Type
REMARK                         _______ _______ _______ _____ _____    ______ ____
ROOT
ATOM      1  C   UNL     1       9.425  -1.636  23.348  0.00  0.00    -0.014 A 
ATOM      2  C   UNL     1       9.138  -1.398  21.989  0.00  0.00    +0.010 A 
ATOM      3  C   UNL     1       9.398  -0.156  21.398  0.00  0.00    +0.049 A 
ATOM      4  C   UNL     1       9.959   0.857  22.157  0.00  0.00    +0.158 A 
ATOM      5  C   UNL     1      10.275   0.645  23.490  0.00  0.00    +0.159 A 
ATOM      6  C   UNL     1      10.001  -0.582  24.084  0.00  0.00    +0.055 A 
ENDROOT
BRANCH   4   7
ATOM      7  O   UNL     1      10.198   2.075  21.590  0.00  0.00    -0.503 OA
ATOM      8  H   UNL     1      11.173   2.146  21.576  0.00  0.00    +0.292 HD
ENDBRANCH   4   7
BRANCH   5   9
ATOM      9  O   UNL     1      10.841   1.669  24.196  0.00  0.00    -0.503 OA
ATOM     10  H   UNL     1      11.245   1.293  24.996  0.00  0.00    +0.292 HD
ENDBRANCH   5   9
BRANCH   1  11
ATOM     11  C   UNL     1       9.047  -2.940  24.041  0.00  0.00    +0.158 C 
BRANCH  11  12
ATOM     12  O   UNL     1      10.202  -3.768  24.247  0.00  0.00    -0.386 OA
ATOM     13  H   UNL     1      10.927  -3.171  24.499  0.00  0.00    +0.210 HD
ENDBRANCH  11  12
BRANCH  11  14
ATOM     14  C   UNL     1       8.342  -2.803  25.423  0.00  0.00    +0.116 C 
BRANCH  14  16
ATOM     15  C   UNL     1       7.800  -4.817  26.706  0.00  0.00    +0.101 C 
ATOM     16  N   UNL     1       8.740  -3.720  26.506  0.00  0.00    -0.316 NA
ATOM     17  H   UNL     1       9.660  -4.101  26.283  0.00  0.00    +0.122 HD
ENDBRANCH  14  16
ENDBRANCH  11  14
ENDBRANCH   1  11
TORSDOF 6
ENDMDL
MODEL 5
REMARK VINA RESULT:      -5.0      2.842      5.668
REMARK  Name = 
REMARK  7 active torsions:
REMARK  status: ('A' for Active; 'I' for Inactive)
REMARK    1  A    between atoms: C_1  and  N_2
REMARK    2  A    between atoms: N_2  and  C_3
REMARK    3  A    between atoms: C_3  and  C_4
REMARK    4  A    between atoms: C_4  and  O_6
REMARK    5  A    between atoms: C_4  and  C_7
REMARK    6  A    between atoms: C_9  and  O_10
REMARK    7  A    between atoms: C_11  and  O_12
REMARK                            x       y       z     vdW  Elec       q    Type
REMARK                         _______ _______ _______ _____ _____    ______ ____
ROOT
ATOM      1  C   UNL     1       9.699  -0.926  23.336  0.00  0.00    -0.014 A 
ATOM      2  C   UNL     1      10.199  -0.425  24.553  0.00  0.00    +0.010 A 
ATOM      3  C   UNL     1      10.579   0.916  24.685  0.00  0.00    +0.049 A 
ATOM      4  C   UNL     1      10.451   1.771  23.604  0.00  0.00    +0.158 A 
ATOM      5  C   UNL     1       9.939   1.312  22.401  0.00  0.00    +0.159 A 
ATOM      6  C   UNL     1       9.577  -0.024  22.262  0.00  0.00    +0.055 A 
ENDROOT
BRANCH   4   7
ATOM      7  O   UNL     1      10.836   3.075  23.722  0.00  0.00    -0.503 OA
ATOM      8  H   UNL     1      10.919   3.214  24.686  0.00  0.00    +0.292 HD
ENDBRANCH   4   7
BRANCH   5   9
ATOM      9  O   UNL     1       9.816   2.196  21.365  0.00  0.00    -0.503 OA
ATOM     10  H   UNL     1      10.545   2.836  21.431  0.00  0.00    +0.292 HD
ENDBRANCH   5   9
BRANCH   1  11
ATOM     11  C   UNL     1       9.386  -2.405  23.135  0.00  0.00    +0.158 C 
BRANCH  11  12
ATOM     12  O   UNL     1      10.157  -3.222  24.029  0.00  0.00    -0.386 OA
ATOM     13  H   UNL     1       9.861  -4.138  23.890  0.00  0.00    +0.210 HD
ENDBRANCH  11  12
BRANCH  11  14
ATOM     14  C   UNL     1       7.896  -2.823  23.319  0.00  0.00    +0.116 C 
BRANCH  14  16
ATOM     15  C   UNL     1       7.145  -5.006  22.506  0.00  0.00    +0.101 C 
ATOM     16  N   UNL     1       7.241  -3.576  22.236  0.00  0.00    -0.316 NA
ATOM     17  H   UNL     1       6.304  -3.196  22.100  0.00  0.00    +0.122 HD
ENDBRANCH  14  16
ENDBRANCH  11  14
ENDBRANCH   1  11
TORSDOF 6
ENDMDL
MODEL 6
REMARK VINA RESULT:      -4.9      3.296      4.653
REMARK  Name = 
REMARK  7 active torsions:
REMARK  status: ('A' for Active; 'I' for Inactive)
REMARK    1  A    between atoms: C_1  and  N_2
REMARK    2  A    between atoms: N_2  and  C_3
REMARK    3  A    between atoms: C_3  and  C_4
REMARK    4  A    between atoms: C_4  and  O_6
REMARK    5  A    between atoms: C_4  and  C_7
REMARK    6  A    between atoms: C_9  and  O_10
REMARK    7  A    between atoms: C_11  and  O_12
REMARK                            x       y       z     vdW  Elec       q    Type
REMARK                         _______ _______ _______ _____ _____    ______ ____
ROOT
ATOM      1  C   UNL     1      10.114   1.354  23.688  0.00  0.00    -0.014 A 
ATOM      2  C   UNL     1       9.930   0.656  24.898  0.00  0.00    +0.010 A 
ATOM      3  C   UNL     1       9.797  -0.737  24.920  0.00  0.00    +0.049 A 
ATOM      4  C   UNL     1       9.859  -1.448  23.734  0.00  0.00    +0.158 A 
ATOM      5  C   UNL     1      10.062  -0.791  22.531  0.00  0.00    +0.159 A 
ATOM      6  C   UNL     1      10.177   0.595  22.503  0.00  0.00    +0.055 A 
ENDROOT
BRANCH   4   7
ATOM      7  O   UNL     1       9.712  -2.805  23.749  0.00  0.00    -0.503 OA
ATOM      8  H   UNL     1       9.679  -3.052  22.804  0.00  0.00    +0.292 HD
ENDBRANCH   4   7
BRANCH   5   9
ATOM      9  O   UNL     1      10.130  -1.535  21.386  0.00  0.00    -0.503 OA
ATOM     10  H   UNL     1      10.531  -0.982  20.694  0.00  0.00    +0.292 HD
ENDBRANCH   5   9
BRANCH   1  11
ATOM     11  C   UNL     1      10.147   2.877  23.626  0.00  0.00    +0.158 C 
BRANCH  11  12
ATOM     12  O   UNL     1      10.898   3.331  22.490  0.00  0.00    -0.386 OA
ATOM     13  H   UNL     1      11.692   3.769  22.842  0.00  0.00    +0.210 HD
ENDBRANCH  11  12
BRANCH  11  14
ATOM     14  C   UNL     1       8.765   3.592  23.564  0.00  0.00    +0.116 C 
BRANCH  14  16
ATOM     15  C   UNL     1       7.074   2.764  21.999  0.00  0.00    +0.101 C 
ATOM     16  N   UNL     1       8.117   3.751  22.250  0.00  0.00    -0.316 NA
ATOM     17  H   UNL     1       7.714   4.687  22.202  0.00  0.00    +0.122 HD
ENDBRANCH  14  16
ENDBRANCH  11  14
ENDBRANCH   1  11
TORSDOF 6
ENDMDL
MODEL 7
REMARK VINA RESULT:      -4.9      1.786      1.820
REMARK  Name = 
REMARK  7 active torsions:
REMARK  status: ('A' for Active; 'I' for Inactive)
REMARK    1  A    between atoms: C_1  and  N_2
REMARK    2  A    between atoms: N_2  and  C_3
REMARK    3  A    between atoms: C_3  and  C_4
REMARK    4  A    between atoms: C_4  and  O_6
REMARK    5  A    between atoms: C_4  and  C_7
REMARK    6  A    between atoms: C_9  and  O_10
REMARK    7  A    between atoms: C_11  and  O_12
REMARK                            x       y       z     vdW  Elec       q    Type
REMARK                         _______ _______ _______ _____ _____    ______ ____
ROOT
ATOM      1  C   UNL     1       7.965  -3.630  24.095  0.00  0.00    -0.014 A 
ATOM      2  C   UNL     1       6.730  -4.116  24.567  0.00  0.00    +0.010 A 
ATOM      3  C   UNL     1       6.653  -4.900  25.725  0.00  0.00    +0.049 A 
ATOM      4  C   UNL     1       7.808  -5.193  26.428  0.00  0.00    +0.158 A 
ATOM      5  C   UNL     1       9.034  -4.708  26.002  0.00  0.00    +0.159 A 
ATOM      6  C   UNL     1       9.116  -3.945  24.842  0.00  0.00    +0.055 A 
ENDROOT
BRANCH   4   7
ATOM      7  O   UNL     1       7.740  -5.971  27.548  0.00  0.00    -0.503 OA
ATOM      8  H   UNL     1       8.554  -6.511  27.514  0.00  0.00    +0.292 HD
ENDBRANCH   4   7
BRANCH   5   9
ATOM      9  O   UNL     1      10.147  -5.012  26.736  0.00  0.00    -0.503 OA
ATOM     10  H   UNL     1      10.250  -4.327  27.418  0.00  0.00    +0.292 HD
ENDBRANCH   5   9
BRANCH   1  11
ATOM     11  C   UNL     1       8.088  -2.872  22.778  0.00  0.00    +0.158 C 
BRANCH  11  12
ATOM     12  O   UNL     1       6.926  -2.064  22.536  0.00  0.00    -0.386 OA
ATOM     13  H   UNL     1       6.482  -2.446  21.760  0.00  0.00    +0.210 HD
ENDBRANCH  11  12
BRANCH  11  14
ATOM     14  C   UNL     1       9.323  -1.933  22.639  0.00  0.00    +0.116 C 
BRANCH  14  16
ATOM     15  C   UNL     1       9.450   0.238  21.514  0.00  0.00    +0.101 C 
ATOM     16  N   UNL     1       9.515  -1.211  21.368  0.00  0.00    -0.316 NA
ATOM     17  H   UNL     1      10.425  -1.470  20.986  0.00  0.00    +0.122 HD
ENDBRANCH  14  16
ENDBRANCH  11  14
ENDBRANCH   1  11
TORSDOF 6
ENDMDL
MODEL 8
REMARK VINA RESULT:      -4.8      2.511      5.286
REMARK  Name = 
REMARK  7 active torsions:
REMARK  status: ('A' for Active; 'I' for Inactive)
REMARK    1  A    between atoms: C_1  and  N_2
REMARK    2  A    between atoms: N_2  and  C_3
REMARK    3  A    between atoms: C_3  and  C_4
REMARK    4  A    between atoms: C_4  and  O_6
REMARK    5  A    between atoms: C_4  and  C_7
REMARK    6  A    between atoms: C_9  and  O_10
REMARK    7  A    between atoms: C_11  and  O_12
REMARK                            x       y       z     vdW  Elec       q    Type
REMARK                         _______ _______ _______ _____ _____    ______ ____
ROOT
ATOM      1  C   UNL     1       9.096  -3.124  24.841  0.00  0.00    -0.014 A 
ATOM      2  C   UNL     1       9.779  -2.399  23.845  0.00  0.00    +0.010 A 
ATOM      3  C   UNL     1      10.007  -1.024  23.975  0.00  0.00    +0.049 A 
ATOM      4  C   UNL     1       9.565  -0.363  25.109  0.00  0.00    +0.158 A 
ATOM      5  C   UNL     1       8.912  -1.054  26.116  0.00  0.00    +0.159 A 
ATOM      6  C   UNL     1       8.668  -2.417  25.981  0.00  0.00    +0.055 A 
ENDROOT
BRANCH   4   7
ATOM      7  O   UNL     1       9.770   0.981  25.232  0.00  0.00    -0.503 OA
ATOM      8  H   UNL     1      10.695   1.110  24.945  0.00  0.00    +0.292 HD
ENDBRANCH   4   7
BRANCH   5   9
ATOM      9  O   UNL     1       8.506  -0.363  27.223  0.00  0.00    -0.503 OA
ATOM     10  H   UNL     1       9.300  -0.045  27.684  0.00  0.00    +0.292 HD
ENDBRANCH   5   9
BRANCH   1  11
ATOM     11  C   UNL     1       8.736  -4.595  24.670  0.00  0.00    +0.158 C 
BRANCH  11  12
ATOM     12  O   UNL     1       9.868  -5.437  24.936  0.00  0.00    -0.386 OA
ATOM     13  H   UNL     1      10.208  -5.174  25.809  0.00  0.00    +0.210 HD
ENDBRANCH  11  12
BRANCH  11  14
ATOM     14  C   UNL     1       7.568  -5.123  25.554  0.00  0.00    +0.116 C 
BRANCH  14  16
ATOM     15  C   UNL     1       6.798  -5.652  27.818  0.00  0.00    +0.101 C 
ATOM     16  N   UNL     1       7.894  -5.727  26.858  0.00  0.00    -0.316 NA
ATOM     17  H   UNL     1       8.142  -6.705  26.707  0.00  0.00    +0.122 HD
ENDBRANCH  14  16
ENDBRANCH  11  14
ENDBRANCH   1  11
TORSDOF 6
ENDMDL
MODEL 9
REMARK VINA RESULT:      -4.8      2.627      5.770
REMARK  Name = 
REMARK  7 active torsions:
REMARK  status: ('A' for Active; 'I' for Inactive)
REMARK    1  A    between atoms: C_1  and  N_2
REMARK    2  A    between atoms: N_2  and  C_3
REMARK    3  A    between atoms: C_3  and  C_4
REMARK    4  A    between atoms: C_4  and  O_6
REMARK    5  A    between atoms: C_4  and  C_7
REMARK    6  A    between atoms: C_9  and  O_10
REMARK    7  A    between atoms: C_11  and  O_12
REMARK                            x       y       z     vdW  Elec       q    Type
REMARK                         _______ _______ _______ _____ _____    ______ ____
ROOT
ATOM      1  C   UNL     1       9.359  -0.654  24.108  0.00  0.00    -0.014 A 
ATOM      2  C   UNL     1      10.260   0.291  24.636  0.00  0.00    +0.010 A 
ATOM      3  C   UNL     1      10.682   1.392  23.882  0.00  0.00    +0.049 A 
ATOM      4  C   UNL     1      10.198   1.566  22.597  0.00  0.00    +0.158 A 
ATOM      5  C   UNL     1       9.292   0.666  22.060  0.00  0.00    +0.159 A 
ATOM      6  C   UNL     1       8.884  -0.439  22.800  0.00  0.00    +0.055 A 
ENDROOT
BRANCH   4   7
ATOM      7  O   UNL     1      10.620   2.629  21.852  0.00  0.00    -0.503 OA
ATOM      8  H   UNL     1       9.871   3.256  21.883  0.00  0.00    +0.292 HD
ENDBRANCH   4   7
BRANCH   5   9
ATOM      9  O   UNL     1       8.829   0.886  20.792  0.00  0.00    -0.503 OA
ATOM     10  H   UNL     1       8.706   1.844  20.681  0.00  0.00    +0.292 HD
ENDBRANCH   5   9
BRANCH   1  11
ATOM     11  C   UNL     1       8.973  -1.919  24.866  0.00  0.00    +0.158 C 
BRANCH  11  12
ATOM     12  O   UNL     1       7.610  -1.858  25.313  0.00  0.00    -0.386 OA
ATOM     13  H   UNL     1       7.487  -0.974  25.700  0.00  0.00    +0.210 HD
ENDBRANCH  11  12
BRANCH  11  14
ATOM     14  C   UNL     1       9.130  -3.260  24.089  0.00  0.00    +0.116 C 
BRANCH  14  16
ATOM     15  C   UNL     1       9.157  -5.429  25.225  0.00  0.00    +0.101 C 
ATOM     16  N   UNL     1       9.949  -4.327  24.691  0.00  0.00    -0.316 NA
ATOM     17  H   UNL     1      10.585  -4.684  23.978  0.00  0.00    +0.122 HD
ENDBRANCH  14  16
ENDBRANCH  11  14
ENDBRANCH   1  11
TORSDOF 6
ENDMDL
