MODEL 1
REMARK VINA RESULT:      -3.7      0.000      0.000
REMARK  Name = 
REMARK  6 active torsions:
REMARK  status: ('A' for Active; 'I' for Inactive)
REMARK    1  A    between atoms: C_1  and  S_2
REMARK    2  A    between atoms: S_2  and  C_3
REMARK    3  A    between atoms: C_3  and  C_4
REMARK    4  A    between atoms: C_4  and  C_5
REMARK    5  A    between atoms: C_5  and  C_7
REMARK    6  A    between atoms: C_7  and  O_8
REMARK                            x       y       z     vdW  Elec       q    Type
REMARK                         _______ _______ _______ _____ _____    ______ ____
ROOT
ATOM      1  C   UNL     1       9.738  -2.011  23.678  0.00  0.00    +0.240 C 
ATOM      2  O   UNL     1      10.278  -3.083  23.940  0.00  0.00    -0.285 OA
ENDROOT
BRANCH   1   3
ATOM      3  C   UNL     1       9.162  -1.835  22.273  0.00  0.00    +0.373 C 
ATOM      4  O   UNL     1       7.979  -1.940  22.019  0.00  0.00    -0.242 OA
BRANCH   3   5
ATOM      5  O   UNL     1      10.137  -1.554  21.389  0.00  0.00    -0.475 OA
ATOM      6  H   UNL     1      10.481  -0.646  21.557  0.00  0.00    +0.295 HD
ENDBRANCH   3   5
ENDBRANCH   1   3
BRANCH   1   7
ATOM      7  C   UNL     1       9.581  -0.838  24.609  0.00  0.00    +0.097 C 
BRANCH   7   8
ATOM      8  C   UNL     1      10.669   0.204  24.385  0.00  0.00    +0.077 C 
BRANCH   8  10
ATOM      9  C   UNL     1      10.031   1.840  22.251  0.00  0.00    +0.084 C 
ATOM     10  S   UNL     1       9.888   1.818  24.055  0.00  0.00    -0.164 S 
ENDBRANCH   8  10
ENDBRANCH   7   8
ENDBRANCH   1   7
TORSDOF 5
ENDMDL
MODEL 2
REMARK VINA RESULT:      -3.6      3.246      4.191
REMARK  Name = 
REMARK  6 active torsions:
REMARK  status: ('A' for Active; 'I' for Inactive)
REMARK    1  A    between atoms: C_1  and  S_2
REMARK    2  A    between atoms: S_2  and  C_3
REMARK    3  A    between atoms: C_3  and  C_4
REMARK    4  A    between atoms: C_4  and  C_5
REMARK    5  A    between atoms: C_5  and  C_7
REMARK    6  A    between atoms: C_7  and  O_8
REMARK                            x       y       z     vdW  Elec       q    Type
REMARK                         _______ _______ _______ _____ _____    ______ ____
ROOT
ATOM      1  C   UNL     1      10.051   1.804  24.132  0.00  0.00    +0.240 C 
ATOM      2  O   UNL     1       9.105   2.235  24.787  0.00  0.00    -0.285 OA
ENDROOT
BRANCH   1   3
ATOM      3  C   UNL     1      10.644   2.717  23.059  0.00  0.00    +0.373 C 
ATOM      4  O   UNL     1      11.352   3.671  23.313  0.00  0.00    -0.242 OA
BRANCH   3   5
ATOM      5  O   UNL     1      10.273   2.314  21.831  0.00  0.00    -0.475 OA
ATOM      6  H   UNL     1       9.391   1.878  21.881  0.00  0.00    +0.295 HD
ENDBRANCH   3   5
ENDBRANCH   1   3
BRANCH   1   7
ATOM      7  C   UNL     1      10.696   0.451  24.279  0.00  0.00    +0.097 C 
BRANCH   7   8
ATOM      8  C   UNL     1       9.680  -0.615  24.665  0.00  0.00    +0.077 C 
BRANCH   8  10
ATOM      9  C   UNL     1       9.616  -1.229  21.971  0.00  0.00    +0.084 C 
ATOM     10  S   UNL     1       9.877  -2.052  23.561  0.00  0.00    -0.164 S 
ENDBRANCH   8  10
ENDBRANCH   7   8
ENDBRANCH   1   7
TORSDOF 5
ENDMDL
MODEL 3
REMARK VINA RESULT:      -3.6      4.837      5.676
REMARK  Name = 
REMARK  6 active torsions:
REMARK  status: ('A' for Active; 'I' for Inactive)
REMARK    1  A    between atoms: C_1  and  S_2
REMARK    2  A    between atoms: S_2  and  C_3
REMARK    3  A    between atoms: C_3  and  C_4
REMARK    4  A    between atoms: C_4  and  C_5
REMARK    5  A    between atoms: C_5  and  C_7
REMARK    6  A    between atoms: C_7  and  O_8
REMARK                            x       y       z     vdW  Elec       q    Type
REMARK                         _______ _______ _______ _____ _____    ______ ____
ROOT
ATOM      1  C   UNL     1       8.137  -4.689  25.947  0.00  0.00    +0.240 C 
ATOM      2  O   UNL     1       8.069  -4.920  27.152  0.00  0.00    -0.285 OA
ENDROOT
BRANCH   1   3
ATOM      3  C   UNL     1       9.485  -4.908  25.260  0.00  0.00    +0.373 C 
ATOM      4  O   UNL     1      10.002  -4.087  24.531  0.00  0.00    -0.242 OA
BRANCH   3   5
ATOM      5  O   UNL     1       9.992  -6.113  25.577  0.00  0.00    -0.475 OA
ATOM      6  H   UNL     1      10.848  -5.995  26.051  0.00  0.00    +0.295 HD
ENDBRANCH   3   5
ENDBRANCH   1   3
BRANCH   1   7
ATOM      7  C   UNL     1       7.016  -4.206  25.065  0.00  0.00    +0.097 C 
BRANCH   7   8
ATOM      8  C   UNL     1       6.705  -5.204  23.958  0.00  0.00    +0.077 C 
BRANCH   8  10
ATOM      9  C   UNL     1       6.368  -5.710  21.262  0.00  0.00    +0.084 C 
ATOM     10  S   UNL     1       7.040  -4.425  22.344  0.00  0.00    -0.164 S 
ENDBRANCH   8  10
ENDBRANCH   7   8
ENDBRANCH   1   7
TORSDOF 5
ENDMDL
MODEL 4
REMARK VINA RESULT:      -3.6      2.312      3.473
REMARK  Name = 
REMARK  6 active torsions:
REMARK  status: ('A' for Active; 'I' for Inactive)
REMARK    1  A    between atoms: C_1  and  S_2
REMARK    2  A    between atoms: S_2  and  C_3
REMARK    3  A    between atoms: C_3  and  C_4
REMARK    4  A    between atoms: C_4  and  C_5
REMARK    5  A    between atoms: C_5  and  C_7
REMARK    6  A    between atoms: C_7  and  O_8
REMARK                            x       y       z     vdW  Elec       q    Type
REMARK                         _______ _______ _______ _____ _____    ______ ____
ROOT
ATOM      1  C   UNL     1       8.792   1.409  23.224  0.00  0.00    +0.240 C 
ATOM      2  O   UNL     1       7.568   1.504  23.185  0.00  0.00    -0.285 OA
ENDROOT
BRANCH   1   3
ATOM      3  C   UNL     1       9.527   1.191  21.902  0.00  0.00    +0.373 C 
ATOM      4  O   UNL     1       9.435   0.171  21.248  0.00  0.00    -0.242 OA
BRANCH   3   5
ATOM      5  O   UNL     1      10.269   2.268  21.585  0.00  0.00    -0.475 OA
ATOM      6  H   UNL     1      10.147   2.964  22.271  0.00  0.00    +0.295 HD
ENDBRANCH   3   5
ENDBRANCH   1   3
BRANCH   1   7
ATOM      7  C   UNL     1       9.655   1.486  24.456  0.00  0.00    +0.097 C 
BRANCH   7   8
ATOM      8  C   UNL     1      10.412   0.185  24.691  0.00  0.00    +0.077 C 
BRANCH   8  10
ATOM      9  C   UNL     1       9.887  -2.357  23.744  0.00  0.00    +0.084 C 
ATOM     10  S   UNL     1       9.213  -1.167  24.927  0.00  0.00    -0.164 S 
ENDBRANCH   8  10
ENDBRANCH   7   8
ENDBRANCH   1   7
TORSDOF 5
ENDMDL
MODEL 5
REMARK VINA RESULT:      -3.5      3.221      4.377
REMARK  Name = 
REMARK  6 active torsions:
REMARK  status: ('A' for Active; 'I' for Inactive)
REMARK    1  A    between atoms: C_1  and  S_2
REMARK    2  A    between atoms: S_2  and  C_3
REMARK    3  A    between atoms: C_3  and  C_4
REMARK    4  A    between atoms: C_4  and  C_5
REMARK    5  A    between atoms: C_5  and  C_7
REMARK    6  A    between atoms: C_7  and  O_8
REMARK                            x       y       z     vdW  Elec       q    Type
REMARK                         _______ _______ _______ _____ _____    ______ ____
ROOT
ATOM      1  C   UNL     1       9.502  -2.434  23.506  0.00  0.00    +0.240 C 
ATOM      2  O   UNL     1      10.221  -3.269  24.050  0.00  0.00    -0.285 OA
ENDROOT
BRANCH   1   3
ATOM      3  C   UNL     1      10.188  -1.279  22.776  0.00  0.00    +0.373 C 
ATOM      4  O   UNL     1      10.592  -0.281  23.339  0.00  0.00    -0.242 OA
BRANCH   3   5
ATOM      5  O   UNL     1      10.271  -1.530  21.457  0.00  0.00    -0.475 OA
ATOM      6  H   UNL     1      11.171  -1.294  21.134  0.00  0.00    +0.295 HD
ENDBRANCH   3   5
ENDBRANCH   1   3
BRANCH   1   7
ATOM      7  C   UNL     1       7.996  -2.430  23.483  0.00  0.00    +0.097 C 
BRANCH   7   8
ATOM      8  C   UNL     1       7.450  -3.367  22.414  0.00  0.00    +0.077 C 
BRANCH   8  10
ATOM      9  C   UNL     1       6.855  -5.945  21.615  0.00  0.00    +0.084 C 
ATOM     10  S   UNL     1       7.264  -5.035  23.124  0.00  0.00    -0.164 S 
ENDBRANCH   8  10
ENDBRANCH   7   8
ENDBRANCH   1   7
TORSDOF 5
ENDMDL
MODEL 6
REMARK VINA RESULT:      -3.5      3.116      4.064
REMARK  Name = 
REMARK  6 active torsions:
REMARK  status: ('A' for Active; 'I' for Inactive)
REMARK    1  A    between atoms: C_1  and  S_2
REMARK    2  A    between atoms: S_2  and  C_3
REMARK    3  A    between atoms: C_3  and  C_4
REMARK    4  A    between atoms: C_4  and  C_5
REMARK    5  A    between atoms: C_5  and  C_7
REMARK    6  A    between atoms: C_7  and  O_8
REMARK                            x       y       z     vdW  Elec       q    Type
REMARK                         _______ _______ _______ _____ _____    ______ ____
ROOT
ATOM      1  C   UNL     1       8.519  -4.593  24.526  0.00  0.00    +0.240 C 
ATOM      2  O   UNL     1       8.468  -5.463  23.660  0.00  0.00    -0.285 OA
ENDROOT
BRANCH   1   3
ATOM      3  C   UNL     1       9.369  -4.878  25.764  0.00  0.00    +0.373 C 
ATOM      4  O   UNL     1       9.050  -4.538  26.885  0.00  0.00    -0.242 OA
BRANCH   3   5
ATOM      5  O   UNL     1      10.491  -5.543  25.431  0.00  0.00    -0.475 OA
ATOM      6  H   UNL     1      10.686  -5.400  24.476  0.00  0.00    +0.295 HD
ENDBRANCH   3   5
ENDBRANCH   1   3
BRANCH   1   7
ATOM      7  C   UNL     1       7.824  -3.258  24.494  0.00  0.00    +0.097 C 
BRANCH   7   8
ATOM      8  C   UNL     1       8.143  -2.491  23.218  0.00  0.00    +0.077 C 
BRANCH   8  10
ATOM      9  C   UNL     1       9.834  -0.728  21.925  0.00  0.00    +0.084 C 
ATOM     10  S   UNL     1       9.875  -1.925  23.281  0.00  0.00    -0.164 S 
ENDBRANCH   8  10
ENDBRANCH   7   8
ENDBRANCH   1   7
TORSDOF 5
ENDMDL
MODEL 7
REMARK VINA RESULT:      -3.5      2.578      3.449
REMARK  Name = 
REMARK  6 active torsions:
REMARK  status: ('A' for Active; 'I' for Inactive)
REMARK    1  A    between atoms: C_1  and  S_2
REMARK    2  A    between atoms: S_2  and  C_3
REMARK    3  A    between atoms: C_3  and  C_4
REMARK    4  A    between atoms: C_4  and  C_5
REMARK    5  A    between atoms: C_5  and  C_7
REMARK    6  A    between atoms: C_7  and  O_8
REMARK                            x       y       z     vdW  Elec       q    Type
REMARK                         _______ _______ _______ _____ _____    ______ ____
ROOT
ATOM      1  C   UNL     1      10.277   0.129  22.854  0.00  0.00    +0.240 C 
ATOM      2  O   UNL     1      10.697   0.658  23.880  0.00  0.00    -0.285 OA
ENDROOT
BRANCH   1   3
ATOM      3  C   UNL     1       9.679   1.039  21.782  0.00  0.00    +0.373 C 
ATOM      4  O   UNL     1       8.750   0.712  21.072  0.00  0.00    -0.242 OA
BRANCH   3   5
ATOM      5  O   UNL     1      10.322   2.221  21.747  0.00  0.00    -0.475 OA
ATOM      6  H   UNL     1      11.285   2.067  21.606  0.00  0.00    +0.295 HD
ENDBRANCH   3   5
ENDBRANCH   1   3
BRANCH   1   7
ATOM      7  C   UNL     1      10.291  -1.344  22.538  0.00  0.00    +0.097 C 
BRANCH   7   8
ATOM      8  C   UNL     1       9.931  -2.182  23.758  0.00  0.00    +0.077 C 
BRANCH   8  10
ATOM      9  C   UNL     1       7.598  -2.557  22.324  0.00  0.00    +0.084 C 
ATOM     10  S   UNL     1       8.125  -2.131  24.002  0.00  0.00    -0.164 S 
ENDBRANCH   8  10
ENDBRANCH   7   8
ENDBRANCH   1   7
TORSDOF 5
ENDMDL
MODEL 8
REMARK VINA RESULT:      -3.4      2.840      4.130
REMARK  Name = 
REMARK  6 active torsions:
REMARK  status: ('A' for Active; 'I' for Inactive)
REMARK    1  A    between atoms: C_1  and  S_2
REMARK    2  A    between atoms: S_2  and  C_3
REMARK    3  A    between atoms: C_3  and  C_4
REMARK    4  A    between atoms: C_4  and  C_5
REMARK    5  A    between atoms: C_5  and  C_7
REMARK    6  A    between atoms: C_7  and  O_8
REMARK                            x       y       z     vdW  Elec       q    Type
REMARK                         _______ _______ _______ _____ _____    ______ ____
ROOT
ATOM      1  C   UNL     1       9.926   0.190  22.508  0.00  0.00    +0.240 C 
ATOM      2  O   UNL     1       9.625  -0.192  21.380  0.00  0.00    -0.285 OA
ENDROOT
BRANCH   1   3
ATOM      3  C   UNL     1      10.187   1.684  22.703  0.00  0.00    +0.373 C 
ATOM      4  O   UNL     1      10.425   2.183  23.785  0.00  0.00    -0.242 OA
BRANCH   3   5
ATOM      5  O   UNL     1      10.114   2.338  21.530  0.00  0.00    -0.475 OA
ATOM      6  H   UNL     1      11.017   2.418  21.142  0.00  0.00    +0.295 HD
ENDBRANCH   3   5
ENDBRANCH   1   3
BRANCH   1   7
ATOM      7  C   UNL     1      10.066  -0.672  23.736  0.00  0.00    +0.097 C 
BRANCH   7   8
ATOM      8  C   UNL     1      10.112  -2.152  23.379  0.00  0.00    +0.077 C 
BRANCH   8  10
ATOM      9  C   UNL     1       9.120  -4.242  24.890  0.00  0.00    +0.084 C 
ATOM     10  S   UNL     1       8.516  -2.918  23.815  0.00  0.00    -0.164 S 
ENDBRANCH   8  10
ENDBRANCH   7   8
ENDBRANCH   1   7
TORSDOF 5
ENDMDL
MODEL 9
REMARK VINA RESULT:      -3.3      2.995      4.038
REMARK  Name = 
REMARK  6 active torsions:
REMARK  status: ('A' for Active; 'I' for Inactive)
REMARK    1  A    between atoms: C_1  and  S_2
REMARK    2  A    between atoms: S_2  and  C_3
REMARK    3  A    between atoms: C_3  and  C_4
REMARK    4  A    between atoms: C_4  and  C_5
REMARK    5  A    between atoms: C_5  and  C_7
REMARK    6  A    between atoms: C_7  and  O_8
REMARK                            x       y       z     vdW  Elec       q    Type
REMARK                         _______ _______ _______ _____ _____    ______ ____
ROOT
ATOM      1  C   UNL     1      10.034  -1.037  23.634  0.00  0.00    +0.240 C 
ATOM      2  O   UNL     1      10.145  -0.208  24.534  0.00  0.00    -0.285 OA
ENDROOT
BRANCH   1   3
ATOM      3  C   UNL     1      10.011  -0.521  22.195  0.00  0.00    +0.373 C 
ATOM      4  O   UNL     1       9.987   0.659  21.911  0.00  0.00    -0.242 OA
BRANCH   3   5
ATOM      5  O   UNL     1      10.022  -1.544  21.321  0.00  0.00    -0.475 OA
ATOM      6  H   UNL     1       9.489  -1.304  20.528  0.00  0.00    +0.295 HD
ENDBRANCH   3   5
ENDBRANCH   1   3
BRANCH   1   7
ATOM      7  C   UNL     1       9.918  -2.529  23.804  0.00  0.00    +0.097 C 
BRANCH   7   8
ATOM      8  C   UNL     1       8.552  -2.926  24.347  0.00  0.00    +0.077 C 
BRANCH   8  10
ATOM      9  C   UNL     1       8.835  -4.586  26.539  0.00  0.00    +0.084 C 
ATOM     10  S   UNL     1       8.567  -4.703  24.753  0.00  0.00    -0.164 S 
ENDBRANCH   8  10
ENDBRANCH   7   8
ENDBRANCH   1   7
TORSDOF 5
ENDMDL
