MODEL 1
REMARK VINA RESULT:      -6.8      0.000      0.000
REMARK  Name = 
REMARK  8 active torsions:
REMARK  status: ('A' for Active; 'I' for Inactive)
REMARK    1  A    between atoms: CA_2  and  CB_3
REMARK    2  A    between atoms: CA_2  and  N_4
REMARK    3  A    between atoms: CA_2  and  C_15
REMARK    4  A    between atoms: C_5  and  O_7
REMARK    5  A    between atoms: O_7  and  C_8
REMARK    6  A    between atoms: C_8  and  C_9
REMARK    7  A    between atoms: CA_21  and  C_23
REMARK    8  A    between atoms: C_23  and  O_24
REMARK                            x       y       z     vdW  Elec       q    Type
REMARK                         _______ _______ _______ _____ _____    ______ ____
ROOT
ATOM      1  CA  PRO A   1       7.808  -4.697  24.506  0.00  0.00    +0.159 C 
ATOM      2  CB  PRO A   1       9.063  -5.337  25.093  0.00  0.00    +0.038 C 
ENDROOT
BRANCH   1   3
ATOM      3  C   PRO A   1       6.674  -4.583  25.565  0.00  0.00    +0.236 C 
ATOM      4  N   PRO A   1       5.461  -5.217  25.300  0.00  0.00    -0.286 N 
ATOM      5  CA  PRO A   1       5.219  -6.256  24.286  0.00  0.00    +0.184 C 
ATOM      6  CB  PRO A   1       4.078  -7.114  24.847  0.00  0.00    +0.035 C 
ATOM      7  CG  PRO A   1       3.906  -6.660  26.293  0.00  0.00    +0.021 C 
ATOM      8  CD  PRO A   1       4.388  -5.220  26.285  0.00  0.00    +0.109 C 
ATOM      9  O   PRO A   1       6.801  -3.890  26.576  0.00  0.00    -0.274 OA
BRANCH   5  10
ATOM     10  C   PRO A   1       4.819  -5.649  22.940  0.00  0.00    +0.325 C 
ATOM     11  OXT PRO A   1       4.051  -4.704  22.821  0.00  0.00    -0.249 OA
BRANCH  10  12
ATOM     12  O   PRO A   1       5.391  -6.250  21.869  0.00  0.00    -0.479 OA
ATOM     13  H   PRO A   1       5.235  -7.221  21.870  0.00  0.00    +0.295 HD
ENDBRANCH  10  12
ENDBRANCH   5  10
ENDBRANCH   1   3
BRANCH   1  14
ATOM     14  N   PRO A   1       8.068  -3.426  23.847  0.00  0.00    -0.270 N 
ATOM     15  H   PRO A   1       8.542  -2.674  24.335  0.00  0.00    +0.153 HD
ATOM     16  C   UNK A   0       7.730  -3.129  22.563  0.00  0.00    +0.401 C 
ATOM     17  O   UNK A   0       7.247  -3.897  21.749  0.00  0.00    -0.226 OA
BRANCH  16  18
ATOM     18  O   UNK A   0       8.020  -1.828  22.337  0.00  0.00    -0.446 OA
BRANCH  18  19
ATOM     19  C   UNK A   0       9.345  -1.577  21.852  0.00  0.00    +0.269 C 
BRANCH  19  20
ATOM     20  C   UNK A   0       9.838  -0.314  22.506  0.00  0.00    -0.010 A 
ATOM     21  C   UNK A   0       9.742   0.908  21.822  0.00  0.00    +0.007 A 
ATOM     22  C   UNK A   0      10.110   2.096  22.450  0.00  0.00    +0.000 A 
ATOM     23  C   UNK A   0      10.584   2.075  23.760  0.00  0.00    +0.000 A 
ATOM     24  C   UNK A   0      10.687   0.861  24.446  0.00  0.00    +0.000 A 
ATOM     25  C   UNK A   0      10.315  -0.330  23.821  0.00  0.00    +0.007 A 
ENDBRANCH  19  20
ENDBRANCH  18  19
ENDBRANCH  16  18
ENDBRANCH   1  14
TORSDOF 7
ENDMDL
MODEL 2
REMARK VINA RESULT:      -6.7      1.906      2.546
REMARK  Name = 
REMARK  8 active torsions:
REMARK  status: ('A' for Active; 'I' for Inactive)
REMARK    1  A    between atoms: CA_2  and  CB_3
REMARK    2  A    between atoms: CA_2  and  N_4
REMARK    3  A    between atoms: CA_2  and  C_15
REMARK    4  A    between atoms: C_5  and  O_7
REMARK    5  A    between atoms: O_7  and  C_8
REMARK    6  A    between atoms: C_8  and  C_9
REMARK    7  A    between atoms: CA_21  and  C_23
REMARK    8  A    between atoms: C_23  and  O_24
REMARK                            x       y       z     vdW  Elec       q    Type
REMARK                         _______ _______ _______ _____ _____    ______ ____
ROOT
ATOM      1  CA  PRO A   1       7.280  -4.623  23.109  0.00  0.00    +0.159 C 
ATOM      2  CB  PRO A   1       6.971  -5.860  22.270  0.00  0.00    +0.038 C 
ENDROOT
BRANCH   1   3
ATOM      3  C   PRO A   1       7.954  -5.000  24.459  0.00  0.00    +0.236 C 
ATOM      4  N   PRO A   1       7.280  -4.688  25.639  0.00  0.00    -0.286 N 
ATOM      5  CA  PRO A   1       5.858  -4.335  25.769  0.00  0.00    +0.184 C 
ATOM      6  CB  PRO A   1       5.445  -4.812  27.167  0.00  0.00    +0.035 C 
ATOM      7  CG  PRO A   1       6.614  -5.657  27.664  0.00  0.00    +0.021 C 
ATOM      8  CD  PRO A   1       7.816  -5.087  26.933  0.00  0.00    +0.109 C 
ATOM      9  O   PRO A   1       9.086  -5.486  24.503  0.00  0.00    -0.274 OA
BRANCH   5  10
ATOM     10  C   PRO A   1       5.635  -2.828  25.632  0.00  0.00    +0.325 C 
ATOM     11  OXT PRO A   1       6.261  -1.988  26.265  0.00  0.00    -0.249 OA
BRANCH  10  12
ATOM     12  O   PRO A   1       4.675  -2.487  24.740  0.00  0.00    -0.479 OA
ATOM     13  H   PRO A   1       4.215  -1.657  24.998  0.00  0.00    +0.295 HD
ENDBRANCH  10  12
ENDBRANCH   5  10
ENDBRANCH   1   3
BRANCH   1  14
ATOM     14  N   PRO A   1       8.037  -3.613  22.384  0.00  0.00    -0.270 N 
ATOM     15  H   PRO A   1       8.900  -3.853  21.909  0.00  0.00    +0.153 HD
ATOM     16  C   UNK A   0       7.680  -2.307  22.262  0.00  0.00    +0.401 C 
ATOM     17  O   UNK A   0       6.641  -1.804  22.657  0.00  0.00    -0.226 OA
BRANCH  16  18
ATOM     18  O   UNK A   0       8.676  -1.650  21.626  0.00  0.00    -0.446 OA
BRANCH  18  19
ATOM     19  C   UNK A   0       9.920  -1.603  22.335  0.00  0.00    +0.269 C 
BRANCH  19  20
ATOM     20  C   UNK A   0      10.161  -0.172  22.737  0.00  0.00    -0.010 A 
ATOM     21  C   UNK A   0       9.883   0.862  21.829  0.00  0.00    +0.007 A 
ATOM     22  C   UNK A   0      10.016   2.194  22.218  0.00  0.00    +0.000 A 
ATOM     23  C   UNK A   0      10.433   2.504  23.511  0.00  0.00    +0.000 A 
ATOM     24  C   UNK A   0      10.716   1.480  24.419  0.00  0.00    +0.000 A 
ATOM     25  C   UNK A   0      10.581   0.145  24.033  0.00  0.00    +0.007 A 
ENDBRANCH  19  20
ENDBRANCH  18  19
ENDBRANCH  16  18
ENDBRANCH   1  14
TORSDOF 7
ENDMDL
MODEL 3
REMARK VINA RESULT:      -6.6      1.628      1.930
REMARK  Name = 
REMARK  8 active torsions:
REMARK  status: ('A' for Active; 'I' for Inactive)
REMARK    1  A    between atoms: CA_2  and  CB_3
REMARK    2  A    between atoms: CA_2  and  N_4
REMARK    3  A    between atoms: CA_2  and  C_15
REMARK    4  A    between atoms: C_5  and  O_7
REMARK    5  A    between atoms: O_7  and  C_8
REMARK    6  A    between atoms: C_8  and  C_9
REMARK    7  A    between atoms: CA_21  and  C_23
REMARK    8  A    between atoms: C_23  and  O_24
REMARK                            x       y       z     vdW  Elec       q    Type
REMARK                         _______ _______ _______ _____ _____    ______ ____
ROOT
ATOM      1  CA  PRO A   1       7.159  -4.528  25.729  0.00  0.00    +0.159 C 
ATOM      2  CB  PRO A   1       7.526  -5.245  27.026  0.00  0.00    +0.038 C 
ENDROOT
BRANCH   1   3
ATOM      3  C   PRO A   1       5.671  -4.076  25.725  0.00  0.00    +0.236 C 
ATOM      4  N   PRO A   1       4.905  -4.347  24.592  0.00  0.00    -0.286 N 
ATOM      5  CA  PRO A   1       5.236  -5.297  23.518  0.00  0.00    +0.184 C 
ATOM      6  CB  PRO A   1       3.887  -5.786  22.976  0.00  0.00    +0.035 C 
ATOM      7  CG  PRO A   1       2.846  -5.270  23.966  0.00  0.00    +0.021 C 
ATOM      8  CD  PRO A   1       3.485  -4.026  24.555  0.00  0.00    +0.109 C 
ATOM      9  O   PRO A   1       5.190  -3.425  26.655  0.00  0.00    -0.274 OA
BRANCH   5  10
ATOM     10  C   PRO A   1       6.048  -4.630  22.405  0.00  0.00    +0.325 C 
ATOM     11  OXT PRO A   1       5.559  -3.911  21.544  0.00  0.00    -0.249 OA
BRANCH  10  12
ATOM     12  O   PRO A   1       7.374  -4.902  22.447  0.00  0.00    -0.479 OA
ATOM     13  H   PRO A   1       7.908  -4.164  22.078  0.00  0.00    +0.295 HD
ENDBRANCH  10  12
ENDBRANCH   5  10
ENDBRANCH   1   3
BRANCH   1  14
ATOM     14  N   PRO A   1       8.063  -3.433  25.405  0.00  0.00    -0.270 N 
ATOM     15  H   PRO A   1       7.840  -2.480  25.669  0.00  0.00    +0.153 HD
ATOM     16  C   UNK A   0       9.250  -3.568  24.756  0.00  0.00    +0.401 C 
ATOM     17  O   UNK A   0       9.778  -4.617  24.429  0.00  0.00    -0.226 OA
BRANCH  16  18
ATOM     18  O   UNK A   0       9.753  -2.334  24.528  0.00  0.00    -0.446 OA
BRANCH  18  19
ATOM     19  C   UNK A   0       9.947  -2.003  23.148  0.00  0.00    +0.269 C 
BRANCH  19  20
ATOM     20  C   UNK A   0      10.109  -0.509  23.057  0.00  0.00    -0.010 A 
ATOM     21  C   UNK A   0       9.745   0.161  21.878  0.00  0.00    +0.007 A 
ATOM     22  C   UNK A   0       9.805   1.552  21.813  0.00  0.00    +0.000 A 
ATOM     23  C   UNK A   0      10.236   2.284  22.917  0.00  0.00    +0.000 A 
ATOM     24  C   UNK A   0      10.605   1.625  24.092  0.00  0.00    +0.000 A 
ATOM     25  C   UNK A   0      10.543   0.232  24.162  0.00  0.00    +0.007 A 
ENDBRANCH  19  20
ENDBRANCH  18  19
ENDBRANCH  16  18
ENDBRANCH   1  14
TORSDOF 7
ENDMDL
MODEL 4
REMARK VINA RESULT:      -6.6      1.571      2.829
REMARK  Name = 
REMARK  8 active torsions:
REMARK  status: ('A' for Active; 'I' for Inactive)
REMARK    1  A    between atoms: CA_2  and  CB_3
REMARK    2  A    between atoms: CA_2  and  N_4
REMARK    3  A    between atoms: CA_2  and  C_15
REMARK    4  A    between atoms: C_5  and  O_7
REMARK    5  A    between atoms: O_7  and  C_8
REMARK    6  A    between atoms: C_8  and  C_9
REMARK    7  A    between atoms: CA_21  and  C_23
REMARK    8  A    between atoms: C_23  and  O_24
REMARK                            x       y       z     vdW  Elec       q    Type
REMARK                         _______ _______ _______ _____ _____    ______ ____
ROOT
ATOM      1  CA  PRO A   1       6.729  -3.056  24.787  0.00  0.00    +0.159 C 
ATOM      2  CB  PRO A   1       5.641  -1.986  24.752  0.00  0.00    +0.038 C 
ENDROOT
BRANCH   1   3
ATOM      3  C   PRO A   1       6.253  -4.379  24.123  0.00  0.00    +0.236 C 
ATOM      4  N   PRO A   1       5.853  -5.424  24.954  0.00  0.00    -0.286 N 
ATOM      5  CA  PRO A   1       5.517  -5.327  26.383  0.00  0.00    +0.184 C 
ATOM      6  CB  PRO A   1       4.485  -6.435  26.635  0.00  0.00    +0.035 C 
ATOM      7  CG  PRO A   1       4.095  -6.943  25.251  0.00  0.00    +0.021 C 
ATOM      8  CD  PRO A   1       5.318  -6.659  24.397  0.00  0.00    +0.109 C 
ATOM      9  O   PRO A   1       6.298  -4.543  22.902  0.00  0.00    -0.274 OA
BRANCH   5  10
ATOM     10  C   PRO A   1       6.748  -5.532  27.269  0.00  0.00    +0.325 C 
ATOM     11  OXT PRO A   1       6.752  -5.355  28.479  0.00  0.00    -0.249 OA
BRANCH  10  12
ATOM     12  O   PRO A   1       7.853  -5.934  26.597  0.00  0.00    -0.479 OA
ATOM     13  H   PRO A   1       8.041  -6.888  26.742  0.00  0.00    +0.295 HD
ENDBRANCH  10  12
ENDBRANCH   5  10
ENDBRANCH   1   3
BRANCH   1  14
ATOM     14  N   PRO A   1       7.999  -2.598  24.242  0.00  0.00    -0.270 N 
ATOM     15  H   PRO A   1       8.045  -1.778  23.649  0.00  0.00    +0.153 HD
ATOM     16  C   UNK A   0       9.204  -3.188  24.470  0.00  0.00    +0.401 C 
ATOM     17  O   UNK A   0       9.418  -4.121  25.225  0.00  0.00    -0.226 OA
BRANCH  16  18
ATOM     18  O   UNK A   0      10.133  -2.564  23.712  0.00  0.00    -0.446 OA
BRANCH  18  19
ATOM     19  C   UNK A   0       9.615  -1.843  22.587  0.00  0.00    +0.269 C 
BRANCH  19  20
ATOM     20  C   UNK A   0       9.972  -0.393  22.773  0.00  0.00    -0.010 A 
ATOM     21  C   UNK A   0       9.659   0.536  21.768  0.00  0.00    +0.007 A 
ATOM     22  C   UNK A   0       9.903   1.894  21.964  0.00  0.00    +0.000 A 
ATOM     23  C   UNK A   0      10.467   2.335  23.159  0.00  0.00    +0.000 A 
ATOM     24  C   UNK A   0      10.786   1.417  24.163  0.00  0.00    +0.000 A 
ATOM     25  C   UNK A   0      10.540   0.056  23.970  0.00  0.00    +0.007 A 
ENDBRANCH  19  20
ENDBRANCH  18  19
ENDBRANCH  16  18
ENDBRANCH   1  14
TORSDOF 7
ENDMDL
MODEL 5
REMARK VINA RESULT:      -6.4      1.359      1.660
REMARK  Name = 
REMARK  8 active torsions:
REMARK  status: ('A' for Active; 'I' for Inactive)
REMARK    1  A    between atoms: CA_2  and  CB_3
REMARK    2  A    between atoms: CA_2  and  N_4
REMARK    3  A    between atoms: CA_2  and  C_15
REMARK    4  A    between atoms: C_5  and  O_7
REMARK    5  A    between atoms: O_7  and  C_8
REMARK    6  A    between atoms: C_8  and  C_9
REMARK    7  A    between atoms: CA_21  and  C_23
REMARK    8  A    between atoms: C_23  and  O_24
REMARK                            x       y       z     vdW  Elec       q    Type
REMARK                         _______ _______ _______ _____ _____    ______ ____
ROOT
ATOM      1  CA  PRO A   1       8.757  -4.245  24.492  0.00  0.00    +0.159 C 
ATOM      2  CB  PRO A   1       9.651  -5.197  25.282  0.00  0.00    +0.038 C 
ENDROOT
BRANCH   1   3
ATOM      3  C   PRO A   1       7.427  -3.952  25.243  0.00  0.00    +0.236 C 
ATOM      4  N   PRO A   1       6.248  -4.487  24.725  0.00  0.00    -0.286 N 
ATOM      5  CA  PRO A   1       6.139  -5.567  23.731  0.00  0.00    +0.184 C 
ATOM      6  CB  PRO A   1       4.813  -6.273  24.042  0.00  0.00    +0.035 C 
ATOM      7  CG  PRO A   1       4.359  -5.704  25.383  0.00  0.00    +0.021 C 
ATOM      8  CD  PRO A   1       4.981  -4.320  25.424  0.00  0.00    +0.109 C 
ATOM      9  O   PRO A   1       7.388  -3.204  26.222  0.00  0.00    -0.274 OA
BRANCH   5  10
ATOM     10  C   PRO A   1       6.130  -5.021  22.302  0.00  0.00    +0.325 C 
ATOM     11  OXT PRO A   1       5.249  -4.301  21.854  0.00  0.00    -0.249 OA
BRANCH  10  12
ATOM     12  O   PRO A   1       7.195  -5.403  21.556  0.00  0.00    -0.479 OA
ATOM     13  H   PRO A   1       6.934  -5.622  20.635  0.00  0.00    +0.295 HD
ENDBRANCH  10  12
ENDBRANCH   5  10
ENDBRANCH   1   3
BRANCH   1  14
ATOM     14  N   PRO A   1       9.437  -3.022  24.089  0.00  0.00    -0.270 N 
ATOM     15  H   PRO A   1      10.221  -2.664  24.622  0.00  0.00    +0.153 HD
ATOM     16  C   UNK A   0       9.115  -2.273  23.000  0.00  0.00    +0.401 C 
ATOM     17  O   UNK A   0       8.282  -2.551  22.155  0.00  0.00    -0.226 OA
BRANCH  16  18
ATOM     18  O   UNK A   0       9.879  -1.158  23.010  0.00  0.00    -0.446 OA
BRANCH  18  19
ATOM     19  C   UNK A   0       9.806  -0.360  21.822  0.00  0.00    +0.269 C 
BRANCH  19  20
ATOM     20  C   UNK A   0       9.421   1.035  22.235  0.00  0.00    -0.010 A 
ATOM     21  C   UNK A   0       8.269   1.629  21.694  0.00  0.00    +0.007 A 
ATOM     22  C   UNK A   0       7.853   2.884  22.134  0.00  0.00    +0.000 A 
ATOM     23  C   UNK A   0       8.583   3.559  23.109  0.00  0.00    +0.000 A 
ATOM     24  C   UNK A   0       9.734   2.978  23.648  0.00  0.00    +0.000 A 
ATOM     25  C   UNK A   0      10.152   1.719  23.212  0.00  0.00    +0.007 A 
ENDBRANCH  19  20
ENDBRANCH  18  19
ENDBRANCH  16  18
ENDBRANCH   1  14
TORSDOF 7
ENDMDL
MODEL 6
REMARK VINA RESULT:      -6.3      2.649      6.925
REMARK  Name = 
REMARK  8 active torsions:
REMARK  status: ('A' for Active; 'I' for Inactive)
REMARK    1  A    between atoms: CA_2  and  CB_3
REMARK    2  A    between atoms: CA_2  and  N_4
REMARK    3  A    between atoms: CA_2  and  C_15
REMARK    4  A    between atoms: C_5  and  O_7
REMARK    5  A    between atoms: O_7  and  C_8
REMARK    6  A    between atoms: C_8  and  C_9
REMARK    7  A    between atoms: CA_21  and  C_23
REMARK    8  A    between atoms: C_23  and  O_24
REMARK                            x       y       z     vdW  Elec       q    Type
REMARK                         _______ _______ _______ _____ _____    ______ ____
ROOT
ATOM      1  CA  PRO A   1       9.722  -0.112  24.093  0.00  0.00    +0.159 C 
ATOM      2  CB  PRO A   1      10.981   0.445  24.751  0.00  0.00    +0.038 C 
ENDROOT
BRANCH   1   3
ATOM      3  C   PRO A   1       9.339   0.692  22.818  0.00  0.00    +0.236 C 
ATOM      4  N   PRO A   1       8.042   1.194  22.723  0.00  0.00    -0.286 N 
ATOM      5  CA  PRO A   1       7.075   1.338  23.824  0.00  0.00    +0.184 C 
ATOM      6  CB  PRO A   1       6.195   2.534  23.439  0.00  0.00    +0.035 C 
ATOM      7  CG  PRO A   1       6.888   3.174  22.240  0.00  0.00    +0.021 C 
ATOM      8  CD  PRO A   1       7.642   2.025  21.595  0.00  0.00    +0.109 C 
ATOM      9  O   PRO A   1      10.121   0.820  21.874  0.00  0.00    -0.274 OA
BRANCH   5  10
ATOM     10  C   PRO A   1       6.222   0.080  23.995  0.00  0.00    +0.325 C 
ATOM     11  OXT PRO A   1       6.490  -0.998  23.482  0.00  0.00    -0.249 OA
BRANCH  10  12
ATOM     12  O   PRO A   1       5.127   0.253  24.774  0.00  0.00    -0.479 OA
ATOM     13  H   PRO A   1       4.652  -0.593  24.927  0.00  0.00    +0.295 HD
ENDBRANCH  10  12
ENDBRANCH   5  10
ENDBRANCH   1   3
BRANCH   1  14
ATOM     14  N   PRO A   1       9.796  -1.543  23.834  0.00  0.00    -0.270 N 
ATOM     15  H   PRO A   1      10.280  -1.899  23.018  0.00  0.00    +0.153 HD
ATOM     16  C   UNK A   0       9.258  -2.508  24.628  0.00  0.00    +0.401 C 
ATOM     17  O   UNK A   0       8.718  -2.335  25.707  0.00  0.00    -0.226 OA
BRANCH  16  18
ATOM     18  O   UNK A   0       9.421  -3.702  24.015  0.00  0.00    -0.446 OA
BRANCH  18  19
ATOM     19  C   UNK A   0       8.728  -4.797  24.626  0.00  0.00    +0.269 C 
BRANCH  19  20
ATOM     20  C   UNK A   0       7.479  -5.049  23.824  0.00  0.00    -0.010 A 
ATOM     21  C   UNK A   0       7.569  -5.691  22.579  0.00  0.00    +0.007 A 
ATOM     22  C   UNK A   0       6.414  -6.011  21.867  0.00  0.00    +0.000 A 
ATOM     23  C   UNK A   0       5.163  -5.687  22.387  0.00  0.00    +0.000 A 
ATOM     24  C   UNK A   0       5.065  -5.043  23.624  0.00  0.00    +0.000 A 
ATOM     25  C   UNK A   0       6.220  -4.724  24.340  0.00  0.00    +0.007 A 
ENDBRANCH  19  20
ENDBRANCH  18  19
ENDBRANCH  16  18
ENDBRANCH   1  14
TORSDOF 7
ENDMDL
MODEL 7
REMARK VINA RESULT:      -6.2      2.539      7.274
REMARK  Name = 
REMARK  8 active torsions:
REMARK  status: ('A' for Active; 'I' for Inactive)
REMARK    1  A    between atoms: CA_2  and  CB_3
REMARK    2  A    between atoms: CA_2  and  N_4
REMARK    3  A    between atoms: CA_2  and  C_15
REMARK    4  A    between atoms: C_5  and  O_7
REMARK    5  A    between atoms: O_7  and  C_8
REMARK    6  A    between atoms: C_8  and  C_9
REMARK    7  A    between atoms: CA_21  and  C_23
REMARK    8  A    between atoms: C_23  and  O_24
REMARK                            x       y       z     vdW  Elec       q    Type
REMARK                         _______ _______ _______ _____ _____    ______ ____
ROOT
ATOM      1  CA  PRO A   1       8.737  -0.215  24.887  0.00  0.00    +0.159 C 
ATOM      2  CB  PRO A   1       8.700  -0.523  26.382  0.00  0.00    +0.038 C 
ENDROOT
BRANCH   1   3
ATOM      3  C   PRO A   1       9.874   0.786  24.536  0.00  0.00    +0.236 C 
ATOM      4  N   PRO A   1       9.545   1.919  23.792  0.00  0.00    -0.286 N 
ATOM      5  CA  PRO A   1       8.195   2.457  23.566  0.00  0.00    +0.184 C 
ATOM      6  CB  PRO A   1       8.383   3.970  23.394  0.00  0.00    +0.035 C 
ATOM      7  CG  PRO A   1       9.829   4.243  23.794  0.00  0.00    +0.021 C 
ATOM      8  CD  PRO A   1      10.545   2.937  23.500  0.00  0.00    +0.109 C 
ATOM      9  O   PRO A   1      11.049   0.559  24.829  0.00  0.00    -0.274 OA
BRANCH   5  10
ATOM     10  C   PRO A   1       7.547   1.854  22.319  0.00  0.00    +0.325 C 
ATOM     11  OXT PRO A   1       8.141   1.670  21.265  0.00  0.00    -0.249 OA
BRANCH  10  12
ATOM     12  O   PRO A   1       6.240   1.532  22.472  0.00  0.00    -0.479 OA
ATOM     13  H   PRO A   1       5.677   1.960  21.788  0.00  0.00    +0.295 HD
ENDBRANCH  10  12
ENDBRANCH   5  10
ENDBRANCH   1   3
BRANCH   1  14
ATOM     14  N   PRO A   1       8.787  -1.410  24.057  0.00  0.00    -0.270 N 
ATOM     15  H   PRO A   1       9.598  -2.018  24.070  0.00  0.00    +0.153 HD
ATOM     16  C   UNK A   0       7.794  -1.825  23.226  0.00  0.00    +0.401 C 
ATOM     17  O   UNK A   0       6.690  -1.321  23.114  0.00  0.00    -0.226 OA
BRANCH  16  18
ATOM     18  O   UNK A   0       8.239  -2.899  22.535  0.00  0.00    -0.446 OA
BRANCH  18  19
ATOM     19  C   UNK A   0       7.385  -4.049  22.585  0.00  0.00    +0.269 C 
BRANCH  19  20
ATOM     20  C   UNK A   0       7.454  -4.606  23.982  0.00  0.00    -0.010 A 
ATOM     21  C   UNK A   0       8.703  -4.858  24.570  0.00  0.00    +0.007 A 
ATOM     22  C   UNK A   0       8.784  -5.289  25.893  0.00  0.00    +0.000 A 
ATOM     23  C   UNK A   0       7.621  -5.478  26.637  0.00  0.00    +0.000 A 
ATOM     24  C   UNK A   0       6.373  -5.234  26.057  0.00  0.00    +0.000 A 
ATOM     25  C   UNK A   0       6.289  -4.800  24.733  0.00  0.00    +0.007 A 
ENDBRANCH  19  20
ENDBRANCH  18  19
ENDBRANCH  16  18
ENDBRANCH   1  14
TORSDOF 7
ENDMDL
MODEL 8
REMARK VINA RESULT:      -6.1      2.176      2.890
REMARK  Name = 
REMARK  8 active torsions:
REMARK  status: ('A' for Active; 'I' for Inactive)
REMARK    1  A    between atoms: CA_2  and  CB_3
REMARK    2  A    between atoms: CA_2  and  N_4
REMARK    3  A    between atoms: CA_2  and  C_15
REMARK    4  A    between atoms: C_5  and  O_7
REMARK    5  A    between atoms: O_7  and  C_8
REMARK    6  A    between atoms: C_8  and  C_9
REMARK    7  A    between atoms: CA_21  and  C_23
REMARK    8  A    between atoms: C_23  and  O_24
REMARK                            x       y       z     vdW  Elec       q    Type
REMARK                         _______ _______ _______ _____ _____    ______ ____
ROOT
ATOM      1  CA  PRO A   1       7.142  -4.325  23.661  0.00  0.00    +0.159 C 
ATOM      2  CB  PRO A   1       7.524  -5.576  22.875  0.00  0.00    +0.038 C 
ENDROOT
BRANCH   1   3
ATOM      3  C   PRO A   1       6.647  -4.677  25.093  0.00  0.00    +0.236 C 
ATOM      4  N   PRO A   1       5.705  -3.839  25.686  0.00  0.00    -0.286 N 
ATOM      5  CA  PRO A   1       4.872  -2.835  25.005  0.00  0.00    +0.184 C 
ATOM      6  CB  PRO A   1       3.582  -2.747  25.830  0.00  0.00    +0.035 C 
ATOM      7  CG  PRO A   1       3.650  -3.916  26.808  0.00  0.00    +0.021 C 
ATOM      8  CD  PRO A   1       5.138  -4.156  26.990  0.00  0.00    +0.109 C 
ATOM      9  O   PRO A   1       7.124  -5.619  25.728  0.00  0.00    -0.274 OA
BRANCH   5  10
ATOM     10  C   PRO A   1       5.563  -1.471  24.948  0.00  0.00    +0.325 C 
ATOM     11  OXT PRO A   1       5.768  -0.772  25.931  0.00  0.00    -0.249 OA
BRANCH  10  12
ATOM     12  O   PRO A   1       5.940  -1.091  23.704  0.00  0.00    -0.479 OA
ATOM     13  H   PRO A   1       5.491  -1.623  23.010  0.00  0.00    +0.295 HD
ENDBRANCH  10  12
ENDBRANCH   5  10
ENDBRANCH   1   3
BRANCH   1  14
ATOM     14  N   PRO A   1       8.192  -3.317  23.679  0.00  0.00    -0.270 N 
ATOM     15  H   PRO A   1       8.026  -2.387  23.312  0.00  0.00    +0.153 HD
ATOM     16  C   UNK A   0       9.445  -3.504  24.175  0.00  0.00    +0.401 C 
ATOM     17  O   UNK A   0       9.849  -4.497  24.756  0.00  0.00    -0.226 OA
BRANCH  16  18
ATOM     18  O   UNK A   0      10.175  -2.396  23.915  0.00  0.00    -0.446 OA
BRANCH  18  19
ATOM     19  C   UNK A   0       9.933  -1.796  22.637  0.00  0.00    +0.269 C 
BRANCH  19  20
ATOM     20  C   UNK A   0      10.029  -0.304  22.810  0.00  0.00    -0.010 A 
ATOM     21  C   UNK A   0      10.550   0.228  24.000  0.00  0.00    +0.007 A 
ATOM     22  C   UNK A   0      10.727   1.603  24.137  0.00  0.00    +0.000 A 
ATOM     23  C   UNK A   0      10.380   2.459  23.095  0.00  0.00    +0.000 A 
ATOM     24  C   UNK A   0       9.855   1.938  21.909  0.00  0.00    +0.000 A 
ATOM     25  C   UNK A   0       9.679   0.561  21.766  0.00  0.00    +0.007 A 
ENDBRANCH  19  20
ENDBRANCH  18  19
ENDBRANCH  16  18
ENDBRANCH   1  14
TORSDOF 7
ENDMDL
MODEL 9
REMARK VINA RESULT:      -6.0      1.656      2.441
REMARK  Name = 
REMARK  8 active torsions:
REMARK  status: ('A' for Active; 'I' for Inactive)
REMARK    1  A    between atoms: CA_2  and  CB_3
REMARK    2  A    between atoms: CA_2  and  N_4
REMARK    3  A    between atoms: CA_2  and  C_15
REMARK    4  A    between atoms: C_5  and  O_7
REMARK    5  A    between atoms: O_7  and  C_8
REMARK    6  A    between atoms: C_8  and  C_9
REMARK    7  A    between atoms: CA_21  and  C_23
REMARK    8  A    between atoms: C_23  and  O_24
REMARK                            x       y       z     vdW  Elec       q    Type
REMARK                         _______ _______ _______ _____ _____    ______ ____
ROOT
ATOM      1  CA  PRO A   1       8.463  -4.090  24.752  0.00  0.00    +0.159 C 
ATOM      2  CB  PRO A   1       9.404  -5.215  25.176  0.00  0.00    +0.038 C 
ENDROOT
BRANCH   1   3
ATOM      3  C   PRO A   1       7.068  -4.227  25.425  0.00  0.00    +0.236 C 
ATOM      4  N   PRO A   1       5.950  -4.341  24.600  0.00  0.00    -0.286 N 
ATOM      5  CA  PRO A   1       5.948  -4.673  23.166  0.00  0.00    +0.184 C 
ATOM      6  CB  PRO A   1       4.615  -5.390  22.916  0.00  0.00    +0.035 C 
ATOM      7  CG  PRO A   1       4.035  -5.657  24.301  0.00  0.00    +0.021 C 
ATOM      8  CD  PRO A   1       4.623  -4.555  25.164  0.00  0.00    +0.109 C 
ATOM      9  O   PRO A   1       6.930  -4.156  26.647  0.00  0.00    -0.274 OA
BRANCH   5  10
ATOM     10  C   PRO A   1       6.053  -3.420  22.296  0.00  0.00    +0.325 C 
ATOM     11  OXT PRO A   1       6.466  -2.342  22.702  0.00  0.00    -0.249 OA
BRANCH  10  12
ATOM     12  O   PRO A   1       5.646  -3.598  21.016  0.00  0.00    -0.479 OA
ATOM     13  H   PRO A   1       6.245  -4.204  20.525  0.00  0.00    +0.295 HD
ENDBRANCH  10  12
ENDBRANCH   5  10
ENDBRANCH   1   3
BRANCH   1  14
ATOM     14  N   PRO A   1       9.034  -2.765  24.943  0.00  0.00    -0.270 N 
ATOM     15  H   PRO A   1       8.893  -2.258  25.809  0.00  0.00    +0.153 HD
ATOM     16  C   UNK A   0       9.790  -2.101  24.027  0.00  0.00    +0.401 C 
ATOM     17  O   UNK A   0      10.177  -2.542  22.958  0.00  0.00    -0.226 OA
BRANCH  16  18
ATOM     18  O   UNK A   0      10.041  -0.861  24.501  0.00  0.00    -0.446 OA
BRANCH  18  19
ATOM     19  C   UNK A   0      10.497   0.082  23.522  0.00  0.00    +0.269 C 
BRANCH  19  20
ATOM     20  C   UNK A   0       9.881   1.415  23.855  0.00  0.00    -0.010 A 
ATOM     21  C   UNK A   0       8.802   1.480  24.750  0.00  0.00    +0.007 A 
ATOM     22  C   UNK A   0       8.281   2.714  25.135  0.00  0.00    +0.000 A 
ATOM     23  C   UNK A   0       8.826   3.891  24.626  0.00  0.00    +0.000 A 
ATOM     24  C   UNK A   0       9.897   3.834  23.731  0.00  0.00    +0.000 A 
ATOM     25  C   UNK A   0      10.424   2.600  23.345  0.00  0.00    +0.007 A 
ENDBRANCH  19  20
ENDBRANCH  18  19
ENDBRANCH  16  18
ENDBRANCH   1  14
TORSDOF 7
ENDMDL
