MODEL 1
REMARK VINA RESULT:      -5.9      0.000      0.000
REMARK  Name = 
REMARK  6 active torsions:
REMARK  status: ('A' for Active; 'I' for Inactive)
REMARK    1  A    between atoms: N_1  and  C_2
REMARK    2  A    between atoms: N_6  and  C1*_9
REMARK    3  A    between atoms: C4*_12  and  C5*_14
REMARK    4  A    between atoms: C5*_14  and  O5*_15
REMARK    5  A    between atoms: C3*_16  and  O3*_18
REMARK    6  A    between atoms: C2*_19  and  O2*_21
REMARK                            x       y       z     vdW  Elec       q    Type
REMARK                         _______ _______ _______ _____ _____    ______ ____
ROOT
ATOM      1  C1* UNL     1       9.265  -3.991  24.575  0.00  0.00    +0.253 C 
ATOM      2  C2* UNL     1       9.333  -4.823  25.881  0.00  0.00    +0.195 C 
ATOM      3  C3* UNL     1       7.887  -5.213  26.179  0.00  0.00    +0.178 C 
ATOM      4  C4* UNL     1       7.093  -4.594  25.036  0.00  0.00    +0.177 C 
ATOM      5  O4* UNL     1       8.017  -4.389  23.957  0.00  0.00    -0.346 OA
ENDROOT
BRANCH   1   9
ATOM      6  C   UNL     1       9.373   0.277  24.870  0.00  0.00    +0.031 A 
ATOM      7  C   UNL     1       8.651  -0.534  25.823  0.00  0.00    +0.041 A 
ATOM      8  C   UNL     1       8.651  -1.868  25.733  0.00  0.00    +0.093 A 
ATOM      9  N   UNL     1       9.337  -2.532  24.725  0.00  0.00    -0.286 N 
ATOM     10  C   UNL     1       9.949  -1.815  23.697  0.00  0.00    +0.255 A 
ATOM     11  O   UNL     1      10.432  -2.318  22.686  0.00  0.00    -0.268 OA
ATOM     12  C   UNL     1       9.998  -0.337  23.856  0.00  0.00    +0.093 A 
BRANCH   6  13
ATOM     13  N   UNL     1       9.366   1.640  25.058  0.00  0.00    -0.358 N 
ATOM     14  H   UNL     1       8.434   2.036  25.158  0.00  0.00    +0.142 HD
ATOM     15  H   UNL     1       9.924   2.151  24.378  0.00  0.00    +0.142 HD
ENDBRANCH   6  13
ENDBRANCH   1   9
BRANCH   2  16
ATOM     16  O2* UNL     1      10.093  -6.032  25.661  0.00  0.00    -0.385 OA
ATOM     17  H2* UNL     1      10.226  -6.468  26.520  0.00  0.00    +0.210 HD
ENDBRANCH   2  16
BRANCH   3  18
ATOM     18  O3* UNL     1       7.450  -4.709  27.440  0.00  0.00    -0.386 OA
ATOM     19  H3* UNL     1       6.965  -5.438  27.873  0.00  0.00    +0.210 HD
ENDBRANCH   3  18
BRANCH   4  20
ATOM     20  C5* UNL     1       5.925  -5.460  24.578  0.00  0.00    +0.190 C 
BRANCH  20  21
ATOM     21  O5* UNL     1       5.479  -6.287  25.646  0.00  0.00    -0.392 OA
ATOM     22  H5* UNL     1       5.672  -5.816  26.478  0.00  0.00    +0.210 HD
ENDBRANCH  20  21
ENDBRANCH   4  20
TORSDOF 6
ENDMDL
MODEL 2
REMARK VINA RESULT:      -5.8      2.415      3.137
REMARK  Name = 
REMARK  6 active torsions:
REMARK  status: ('A' for Active; 'I' for Inactive)
REMARK    1  A    between atoms: N_1  and  C_2
REMARK    2  A    between atoms: N_6  and  C1*_9
REMARK    3  A    between atoms: C4*_12  and  C5*_14
REMARK    4  A    between atoms: C5*_14  and  O5*_15
REMARK    5  A    between atoms: C3*_16  and  O3*_18
REMARK    6  A    between atoms: C2*_19  and  O2*_21
REMARK                            x       y       z     vdW  Elec       q    Type
REMARK                         _______ _______ _______ _____ _____    ______ ____
ROOT
ATOM      1  C1* UNL     1       7.990  -3.071  23.986  0.00  0.00    +0.253 C 
ATOM      2  C2* UNL     1       6.480  -3.259  24.282  0.00  0.00    +0.195 C 
ATOM      3  C3* UNL     1       5.962  -4.149  23.154  0.00  0.00    +0.178 C 
ATOM      4  C4* UNL     1       7.194  -4.418  22.298  0.00  0.00    +0.177 C 
ATOM      5  O4* UNL     1       8.335  -4.194  23.139  0.00  0.00    -0.346 OA
ENDROOT
BRANCH   1   9
ATOM      6  C   UNL     1       9.160   0.544  22.017  0.00  0.00    +0.031 A 
ATOM      7  C   UNL     1       7.785   0.282  22.374  0.00  0.00    +0.041 A 
ATOM      8  C   UNL     1       7.440  -0.840  23.014  0.00  0.00    +0.093 A 
ATOM      9  N   UNL     1       8.381  -1.801  23.361  0.00  0.00    -0.286 N 
ATOM     10  C   UNL     1       9.704  -1.679  22.938  0.00  0.00    +0.255 A 
ATOM     11  O   UNL     1      10.558  -2.553  23.056  0.00  0.00    -0.268 OA
ATOM     12  C   UNL     1      10.079  -0.393  22.291  0.00  0.00    +0.093 A 
BRANCH   6  13
ATOM     13  N   UNL     1       9.443   1.742  21.403  0.00  0.00    -0.358 N 
ATOM     14  H   UNL     1      10.374   1.785  20.995  0.00  0.00    +0.142 HD
ATOM     15  H   UNL     1       9.245   2.556  21.980  0.00  0.00    +0.142 HD
ENDBRANCH   6  13
ENDBRANCH   1   9
BRANCH   2  16
ATOM     16  O2* UNL     1       6.304  -3.962  25.532  0.00  0.00    -0.385 OA
ATOM     17  H2* UNL     1       7.149  -3.942  26.014  0.00  0.00    +0.210 HD
ENDBRANCH   2  16
BRANCH   3  18
ATOM     18  O3* UNL     1       4.940  -3.504  22.396  0.00  0.00    -0.386 OA
ATOM     19  H3* UNL     1       4.248  -4.176  22.243  0.00  0.00    +0.210 HD
ENDBRANCH   3  18
BRANCH   4  20
ATOM     20  C5* UNL     1       7.226  -5.827  21.719  0.00  0.00    +0.190 C 
BRANCH  20  21
ATOM     21  O5* UNL     1       5.918  -6.385  21.710  0.00  0.00    -0.392 OA
ATOM     22  H5* UNL     1       6.013  -7.348  21.825  0.00  0.00    +0.210 HD
ENDBRANCH  20  21
ENDBRANCH   4  20
TORSDOF 6
ENDMDL
MODEL 3
REMARK VINA RESULT:      -5.6      2.386      5.374
REMARK  Name = 
REMARK  6 active torsions:
REMARK  status: ('A' for Active; 'I' for Inactive)
REMARK    1  A    between atoms: N_1  and  C_2
REMARK    2  A    between atoms: N_6  and  C1*_9
REMARK    3  A    between atoms: C4*_12  and  C5*_14
REMARK    4  A    between atoms: C5*_14  and  O5*_15
REMARK    5  A    between atoms: C3*_16  and  O3*_18
REMARK    6  A    between atoms: C2*_19  and  O2*_21
REMARK                            x       y       z     vdW  Elec       q    Type
REMARK                         _______ _______ _______ _____ _____    ______ ____
ROOT
ATOM      1  C1* UNL     1       9.262  -2.562  23.554  0.00  0.00    +0.253 C 
ATOM      2  C2* UNL     1       8.615  -1.845  22.341  0.00  0.00    +0.195 C 
ATOM      3  C3* UNL     1       8.219  -0.464  22.860  0.00  0.00    +0.178 C 
ATOM      4  C4* UNL     1       8.663  -0.475  24.317  0.00  0.00    +0.177 C 
ATOM      5  O4* UNL     1       9.675  -1.486  24.431  0.00  0.00    -0.346 OA
ENDROOT
BRANCH   1   9
ATOM      6  C   UNL     1       6.877  -5.330  25.783  0.00  0.00    +0.031 A 
ATOM      7  C   UNL     1       6.308  -4.144  25.184  0.00  0.00    +0.041 A 
ATOM      8  C   UNL     1       7.062  -3.304  24.467  0.00  0.00    +0.093 A 
ATOM      9  N   UNL     1       8.417  -3.529  24.267  0.00  0.00    -0.286 N 
ATOM     10  C   UNL     1       9.062  -4.580  24.918  0.00  0.00    +0.255 A 
ATOM     11  O   UNL     1      10.278  -4.752  24.931  0.00  0.00    -0.268 OA
ATOM     12  C   UNL     1       8.194  -5.540  25.651  0.00  0.00    +0.093 A 
BRANCH   6  13
ATOM     13  N   UNL     1       6.028  -6.171  26.465  0.00  0.00    -0.358 N 
ATOM     14  H   UNL     1       5.454  -6.753  25.860  0.00  0.00    +0.142 HD
ATOM     15  H   UNL     1       5.473  -5.704  27.178  0.00  0.00    +0.142 HD
ENDBRANCH   6  13
ENDBRANCH   1   9
BRANCH   2  16
ATOM     16  O2* UNL     1       9.592  -1.671  21.289  0.00  0.00    -0.385 OA
ATOM     17  H2* UNL     1      10.453  -1.486  21.703  0.00  0.00    +0.210 HD
ENDBRANCH   2  16
BRANCH   3  18
ATOM     18  O3* UNL     1       6.814  -0.241  22.753  0.00  0.00    -0.386 OA
ATOM     19  H3* UNL     1       6.417  -1.101  22.516  0.00  0.00    +0.210 HD
ENDBRANCH   3  18
BRANCH   4  20
ATOM     20  C5* UNL     1       9.199   0.871  24.791  0.00  0.00    +0.190 C 
BRANCH  20  21
ATOM     21  O5* UNL     1      10.540   0.732  25.247  0.00  0.00    -0.392 OA
ATOM     22  H5* UNL     1      10.968   0.058  24.687  0.00  0.00    +0.210 HD
ENDBRANCH  20  21
ENDBRANCH   4  20
TORSDOF 6
ENDMDL
MODEL 4
REMARK VINA RESULT:      -5.6      2.393      2.946
REMARK  Name = 
REMARK  6 active torsions:
REMARK  status: ('A' for Active; 'I' for Inactive)
REMARK    1  A    between atoms: N_1  and  C_2
REMARK    2  A    between atoms: N_6  and  C1*_9
REMARK    3  A    between atoms: C4*_12  and  C5*_14
REMARK    4  A    between atoms: C5*_14  and  O5*_15
REMARK    5  A    between atoms: C3*_16  and  O3*_18
REMARK    6  A    between atoms: C2*_19  and  O2*_21
REMARK                            x       y       z     vdW  Elec       q    Type
REMARK                         _______ _______ _______ _____ _____    ______ ____
ROOT
ATOM      1  C1* UNL     1       9.587  -1.896  23.041  0.00  0.00    +0.253 C 
ATOM      2  C2* UNL     1       9.348  -2.600  24.402  0.00  0.00    +0.195 C 
ATOM      3  C3* UNL     1       7.830  -2.700  24.536  0.00  0.00    +0.178 C 
ATOM      4  C4* UNL     1       7.302  -2.060  23.258  0.00  0.00    +0.177 C 
ATOM      5  O4* UNL     1       8.366  -2.124  22.297  0.00  0.00    -0.346 OA
ENDROOT
BRANCH   1   9
ATOM      6  C   UNL     1      10.367   2.310  23.164  0.00  0.00    +0.031 A 
ATOM      7  C   UNL     1      10.404   1.494  24.355  0.00  0.00    +0.041 A 
ATOM      8  C   UNL     1      10.185   0.176  24.296  0.00  0.00    +0.093 A 
ATOM      9  N   UNL     1       9.913  -0.465  23.095  0.00  0.00    -0.286 N 
ATOM     10  C   UNL     1       9.735   0.273  21.925  0.00  0.00    +0.255 A 
ATOM     11  O   UNL     1       9.333  -0.190  20.861  0.00  0.00    -0.268 OA
ATOM     12  C   UNL     1      10.053   1.724  22.000  0.00  0.00    +0.093 A 
BRANCH   6  13
ATOM     13  N   UNL     1      10.651   3.650  23.299  0.00  0.00    -0.358 N 
ATOM     14  H   UNL     1       9.826   4.234  23.410  0.00  0.00    +0.142 HD
ATOM     15  H   UNL     1      11.278   4.011  22.585  0.00  0.00    +0.142 HD
ENDBRANCH   6  13
ENDBRANCH   1   9
BRANCH   2  16
ATOM     16  O2* UNL     1       9.889  -3.940  24.369  0.00  0.00    -0.385 OA
ATOM     17  H2* UNL     1       9.238  -4.540  24.771  0.00  0.00    +0.210 HD
ENDBRANCH   2  16
BRANCH   3  18
ATOM     18  O3* UNL     1       7.353  -2.009  25.690  0.00  0.00    -0.386 OA
ATOM     19  H3* UNL     1       6.379  -2.006  25.624  0.00  0.00    +0.210 HD
ENDBRANCH   3  18
BRANCH   4  20
ATOM     20  C5* UNL     1       6.053  -2.745  22.716  0.00  0.00    +0.190 C 
BRANCH  20  21
ATOM     21  O5* UNL     1       5.217  -3.162  23.788  0.00  0.00    -0.392 OA
ATOM     22  H5* UNL     1       5.233  -2.455  24.459  0.00  0.00    +0.210 HD
ENDBRANCH  20  21
ENDBRANCH   4  20
TORSDOF 6
ENDMDL
MODEL 5
REMARK VINA RESULT:      -5.6      1.571      2.191
REMARK  Name = 
REMARK  6 active torsions:
REMARK  status: ('A' for Active; 'I' for Inactive)
REMARK    1  A    between atoms: N_1  and  C_2
REMARK    2  A    between atoms: N_6  and  C1*_9
REMARK    3  A    between atoms: C4*_12  and  C5*_14
REMARK    4  A    between atoms: C5*_14  and  O5*_15
REMARK    5  A    between atoms: C3*_16  and  O3*_18
REMARK    6  A    between atoms: C2*_19  and  O2*_21
REMARK                            x       y       z     vdW  Elec       q    Type
REMARK                         _______ _______ _______ _____ _____    ______ ____
ROOT
ATOM      1  C1* UNL     1       7.644  -2.992  24.032  0.00  0.00    +0.253 C 
ATOM      2  C2* UNL     1       8.206  -4.369  23.594  0.00  0.00    +0.195 C 
ATOM      3  C3* UNL     1       8.405  -5.148  24.893  0.00  0.00    +0.178 C 
ATOM      4  C4* UNL     1       7.945  -4.183  25.978  0.00  0.00    +0.177 C 
ATOM      5  O4* UNL     1       7.077  -3.233  25.342  0.00  0.00    -0.346 OA
ENDROOT
BRANCH   1   9
ATOM      6  C   UNL     1      10.314   0.353  24.054  0.00  0.00    +0.031 A 
ATOM      7  C   UNL     1       9.679  -0.123  25.261  0.00  0.00    +0.041 A 
ATOM      8  C   UNL     1       8.869  -1.187  25.242  0.00  0.00    +0.093 A 
ATOM      9  N   UNL     1       8.601  -1.878  24.068  0.00  0.00    -0.286 N 
ATOM     10  C   UNL     1       9.073  -1.404  22.845  0.00  0.00    +0.255 A 
ATOM     11  O   UNL     1       8.750  -1.854  21.750  0.00  0.00    -0.268 OA
ATOM     12  C   UNL     1      10.028  -0.264  22.899  0.00  0.00    +0.093 A 
BRANCH   6  13
ATOM     13  N   UNL     1      11.171   1.424  24.163  0.00  0.00    -0.358 N 
ATOM     14  H   UNL     1      10.714   2.289  24.438  0.00  0.00    +0.142 HD
ATOM     15  H   UNL     1      11.772   1.553  23.352  0.00  0.00    +0.142 HD
ENDBRANCH   6  13
ENDBRANCH   1   9
BRANCH   2  16
ATOM     16  O2* UNL     1       7.230  -5.070  22.790  0.00  0.00    -0.385 OA
ATOM     17  H2* UNL     1       6.722  -4.411  22.286  0.00  0.00    +0.210 HD
ENDBRANCH   2  16
BRANCH   3  18
ATOM     18  O3* UNL     1       9.769  -5.522  25.083  0.00  0.00    -0.386 OA
ATOM     19  H3* UNL     1       9.849  -5.800  26.016  0.00  0.00    +0.210 HD
ENDBRANCH   3  18
BRANCH   4  20
ATOM     20  C5* UNL     1       7.226  -4.874  27.130  0.00  0.00    +0.190 C 
BRANCH  20  21
ATOM     21  O5* UNL     1       7.949  -6.030  27.538  0.00  0.00    -0.392 OA
ATOM     22  H5* UNL     1       8.520  -5.766  28.283  0.00  0.00    +0.210 HD
ENDBRANCH  20  21
ENDBRANCH   4  20
TORSDOF 6
ENDMDL
MODEL 6
REMARK VINA RESULT:      -5.6      2.708      5.623
REMARK  Name = 
REMARK  6 active torsions:
REMARK  status: ('A' for Active; 'I' for Inactive)
REMARK    1  A    between atoms: N_1  and  C_2
REMARK    2  A    between atoms: N_6  and  C1*_9
REMARK    3  A    between atoms: C4*_12  and  C5*_14
REMARK    4  A    between atoms: C5*_14  and  O5*_15
REMARK    5  A    between atoms: C3*_16  and  O3*_18
REMARK    6  A    between atoms: C2*_19  and  O2*_21
REMARK                            x       y       z     vdW  Elec       q    Type
REMARK                         _______ _______ _______ _____ _____    ______ ____
ROOT
ATOM      1  C1* UNL     1       8.905  -2.784  22.927  0.00  0.00    +0.253 C 
ATOM      2  C2* UNL     1       8.995  -1.505  22.055  0.00  0.00    +0.195 C 
ATOM      3  C3* UNL     1       8.855  -0.344  23.038  0.00  0.00    +0.178 C 
ATOM      4  C4* UNL     1       8.703  -1.022  24.394  0.00  0.00    +0.177 C 
ATOM      5  O4* UNL     1       9.258  -2.339  24.259  0.00  0.00    -0.346 OA
ENDROOT
BRANCH   1   9
ATOM      6  C   UNL     1       5.147  -4.823  23.111  0.00  0.00    +0.031 A 
ATOM      7  C   UNL     1       5.245  -3.444  22.691  0.00  0.00    +0.041 A 
ATOM      8  C   UNL     1       6.430  -2.830  22.612  0.00  0.00    +0.093 A 
ATOM      9  N   UNL     1       7.613  -3.483  22.930  0.00  0.00    -0.286 N 
ATOM     10  C   UNL     1       7.588  -4.771  23.463  0.00  0.00    +0.255 A 
ATOM     11  O   UNL     1       8.564  -5.357  23.923  0.00  0.00    -0.268 OA
ATOM     12  C   UNL     1       6.269  -5.459  23.475  0.00  0.00    +0.093 A 
BRANCH   6  13
ATOM     13  N   UNL     1       3.897  -5.400  23.120  0.00  0.00    -0.358 N 
ATOM     14  H   UNL     1       3.500  -5.533  22.193  0.00  0.00    +0.142 HD
ATOM     15  H   UNL     1       3.241  -4.948  23.752  0.00  0.00    +0.142 HD
ENDBRANCH   6  13
ENDBRANCH   1   9
BRANCH   2  16
ATOM     16  O2* UNL     1      10.297  -1.419  21.433  0.00  0.00    -0.385 OA
ATOM     17  H2* UNL     1      10.280  -1.952  20.619  0.00  0.00    +0.210 HD
ENDBRANCH   2  16
BRANCH   3  18
ATOM     18  O3* UNL     1       7.722   0.470  22.740  0.00  0.00    -0.386 OA
ATOM     19  H3* UNL     1       8.019   1.119  22.074  0.00  0.00    +0.210 HD
ENDBRANCH   3  18
BRANCH   4  20
ATOM     20  C5* UNL     1       9.393  -0.267  25.523  0.00  0.00    +0.190 C 
BRANCH  20  21
ATOM     21  O5* UNL     1       9.575   1.097  25.163  0.00  0.00    -0.392 OA
ATOM     22  H5* UNL     1      10.112   1.513  25.862  0.00  0.00    +0.210 HD
ENDBRANCH  20  21
ENDBRANCH   4  20
TORSDOF 6
ENDMDL
MODEL 7
REMARK VINA RESULT:      -5.5      3.270      6.023
REMARK  Name = 
REMARK  6 active torsions:
REMARK  status: ('A' for Active; 'I' for Inactive)
REMARK    1  A    between atoms: N_1  and  C_2
REMARK    2  A    between atoms: N_6  and  C1*_9
REMARK    3  A    between atoms: C4*_12  and  C5*_14
REMARK    4  A    between atoms: C5*_14  and  O5*_15
REMARK    5  A    between atoms: C3*_16  and  O3*_18
REMARK    6  A    between atoms: C2*_19  and  O2*_21
REMARK                            x       y       z     vdW  Elec       q    Type
REMARK                         _______ _______ _______ _____ _____    ______ ____
ROOT
ATOM      1  C1* UNL     1       7.939  -1.272  24.013  0.00  0.00    +0.253 C 
ATOM      2  C2* UNL     1       9.483  -1.317  23.885  0.00  0.00    +0.195 C 
ATOM      3  C3* UNL     1       9.799  -0.544  22.606  0.00  0.00    +0.178 C 
ATOM      4  C4* UNL     1       8.433  -0.105  22.092  0.00  0.00    +0.177 C 
ATOM      5  O4* UNL     1       7.543  -0.127  23.218  0.00  0.00    -0.346 OA
ENDROOT
BRANCH   1   9
ATOM      6  C   UNL     1       5.725  -4.688  22.695  0.00  0.00    +0.031 A 
ATOM      7  C   UNL     1       7.104  -4.482  22.315  0.00  0.00    +0.041 A 
ATOM      8  C   UNL     1       7.790  -3.423  22.759  0.00  0.00    +0.093 A 
ATOM      9  N   UNL     1       7.213  -2.478  23.597  0.00  0.00    -0.286 N 
ATOM     10  C   UNL     1       5.854  -2.541  23.902  0.00  0.00    +0.255 A 
ATOM     11  O   UNL     1       5.230  -1.665  24.494  0.00  0.00    -0.268 OA
ATOM     12  C   UNL     1       5.129  -3.762  23.458  0.00  0.00    +0.093 A 
BRANCH   6  13
ATOM     13  N   UNL     1       5.101  -5.827  22.237  0.00  0.00    -0.358 N 
ATOM     14  H   UNL     1       5.649  -6.674  22.363  0.00  0.00    +0.142 HD
ATOM     15  H   UNL     1       4.741  -5.745  21.290  0.00  0.00    +0.142 HD
ENDBRANCH   6  13
ENDBRANCH   1   9
BRANCH   2  16
ATOM     16  O2* UNL     1      10.094  -0.623  24.996  0.00  0.00    -0.385 OA
ATOM     17  H2* UNL     1       9.966  -1.161  25.797  0.00  0.00    +0.210 HD
ENDBRANCH   2  16
BRANCH   3  18
ATOM     18  O3* UNL     1      10.470  -1.358  21.646  0.00  0.00    -0.386 OA
ATOM     19  H3* UNL     1      10.358  -0.914  20.783  0.00  0.00    +0.210 HD
ENDBRANCH   3  18
BRANCH   4  20
ATOM     20  C5* UNL     1       8.449   1.279  21.454  0.00  0.00    +0.190 C 
BRANCH  20  21
ATOM     21  O5* UNL     1       9.777   1.786  21.413  0.00  0.00    -0.392 OA
ATOM     22  H5* UNL     1       9.727   2.703  21.087  0.00  0.00    +0.210 HD
ENDBRANCH  20  21
ENDBRANCH   4  20
TORSDOF 6
ENDMDL
MODEL 8
REMARK VINA RESULT:      -5.4      2.849      5.724
REMARK  Name = 
REMARK  6 active torsions:
REMARK  status: ('A' for Active; 'I' for Inactive)
REMARK    1  A    between atoms: N_1  and  C_2
REMARK    2  A    between atoms: N_6  and  C1*_9
REMARK    3  A    between atoms: C4*_12  and  C5*_14
REMARK    4  A    between atoms: C5*_14  and  O5*_15
REMARK    5  A    between atoms: C3*_16  and  O3*_18
REMARK    6  A    between atoms: C2*_19  and  O2*_21
REMARK                            x       y       z     vdW  Elec       q    Type
REMARK                         _______ _______ _______ _____ _____    ______ ____
ROOT
ATOM      1  C1* UNL     1       7.320  -0.847  23.359  0.00  0.00    +0.253 C 
ATOM      2  C2* UNL     1       6.997   0.469  24.113  0.00  0.00    +0.195 C 
ATOM      3  C3* UNL     1       8.248   1.332  23.958  0.00  0.00    +0.178 C 
ATOM      4  C4* UNL     1       9.193   0.470  23.131  0.00  0.00    +0.177 C 
ATOM      5  O4* UNL     1       8.377  -0.486  22.438  0.00  0.00    -0.346 OA
ENDROOT
BRANCH   1   9
ATOM      6  C   UNL     1       8.614  -4.198  25.685  0.00  0.00    +0.031 A 
ATOM      7  C   UNL     1       8.503  -2.875  26.253  0.00  0.00    +0.041 A 
ATOM      8  C   UNL     1       8.070  -1.843  25.520  0.00  0.00    +0.093 A 
ATOM      9  N   UNL     1       7.712  -1.995  24.187  0.00  0.00    -0.286 N 
ATOM     10  C   UNL     1       7.913  -3.211  23.535  0.00  0.00    +0.255 A 
ATOM     11  O   UNL     1       7.781  -3.387  22.327  0.00  0.00    -0.268 OA
ATOM     12  C   UNL     1       8.326  -4.360  24.386  0.00  0.00    +0.093 A 
BRANCH   6  13
ATOM     13  N   UNL     1       9.020  -5.218  26.516  0.00  0.00    -0.358 N 
ATOM     14  H   UNL     1       9.313  -4.903  27.437  0.00  0.00    +0.142 HD
ATOM     15  H   UNL     1       9.702  -5.844  26.094  0.00  0.00    +0.142 HD
ENDBRANCH   6  13
ENDBRANCH   1   9
BRANCH   2  16
ATOM     16  O2* UNL     1       5.894   1.149  23.473  0.00  0.00    -0.385 OA
ATOM     17  H2* UNL     1       5.069   0.856  23.897  0.00  0.00    +0.210 HD
ENDBRANCH   2  16
BRANCH   3  18
ATOM     18  O3* UNL     1       8.825   1.661  25.221  0.00  0.00    -0.386 OA
ATOM     19  H3* UNL     1       8.080   1.761  25.844  0.00  0.00    +0.210 HD
ENDBRANCH   3  18
BRANCH   4  20
ATOM     20  C5* UNL     1      10.028   1.275  22.141  0.00  0.00    +0.190 C 
BRANCH  20  21
ATOM     21  O5* UNL     1       9.192   2.145  21.387  0.00  0.00    -0.392 OA
ATOM     22  H5* UNL     1       9.444   3.059  21.617  0.00  0.00    +0.210 HD
ENDBRANCH  20  21
ENDBRANCH   4  20
TORSDOF 6
ENDMDL
MODEL 9
REMARK VINA RESULT:      -5.4      2.615      5.660
REMARK  Name = 
REMARK  6 active torsions:
REMARK  status: ('A' for Active; 'I' for Inactive)
REMARK    1  A    between atoms: N_1  and  C_2
REMARK    2  A    between atoms: N_6  and  C1*_9
REMARK    3  A    between atoms: C4*_12  and  C5*_14
REMARK    4  A    between atoms: C5*_14  and  O5*_15
REMARK    5  A    between atoms: C3*_16  and  O3*_18
REMARK    6  A    between atoms: C2*_19  and  O2*_21
REMARK                            x       y       z     vdW  Elec       q    Type
REMARK                         _______ _______ _______ _____ _____    ______ ____
ROOT
ATOM      1  C1* UNL     1       7.832  -5.279  25.856  0.00  0.00    +0.253 C 
ATOM      2  C2* UNL     1       9.143  -5.086  25.052  0.00  0.00    +0.195 C 
ATOM      3  C3* UNL     1       9.304  -3.573  24.910  0.00  0.00    +0.178 C 
ATOM      4  C4* UNL     1       8.093  -3.003  25.639  0.00  0.00    +0.177 C 
ATOM      5  O4* UNL     1       7.642  -4.019  26.546  0.00  0.00    -0.346 OA
ENDROOT
BRANCH   1   9
ATOM      6  C   UNL     1       4.258  -6.222  23.699  0.00  0.00    +0.031 A 
ATOM      7  C   UNL     1       5.327  -5.454  23.103  0.00  0.00    +0.041 A 
ATOM      8  C   UNL     1       6.449  -5.192  23.781  0.00  0.00    +0.093 A 
ATOM      9  N   UNL     1       6.638  -5.640  25.081  0.00  0.00    -0.286 N 
ATOM     10  C   UNL     1       5.603  -6.277  25.766  0.00  0.00    +0.255 A 
ATOM     11  O   UNL     1       5.624  -6.556  26.962  0.00  0.00    -0.268 OA
ATOM     12  C   UNL     1       4.393  -6.620  24.971  0.00  0.00    +0.093 A 
BRANCH   6  13
ATOM     13  N   UNL     1       3.156  -6.492  22.920  0.00  0.00    -0.358 N 
ATOM     14  H   UNL     1       3.206  -6.095  21.986  0.00  0.00    +0.142 HD
ATOM     15  H   UNL     1       2.271  -6.282  23.375  0.00  0.00    +0.142 HD
ENDBRANCH   6  13
ENDBRANCH   1   9
BRANCH   2  16
ATOM     16  O2* UNL     1      10.267  -5.592  25.806  0.00  0.00    -0.385 OA
ATOM     17  H2* UNL     1      10.891  -6.002  25.182  0.00  0.00    +0.210 HD
ENDBRANCH   2  16
BRANCH   3  18
ATOM     18  O3* UNL     1       9.319  -3.167  23.543  0.00  0.00    -0.386 OA
ATOM     19  H3* UNL     1       9.680  -2.260  23.531  0.00  0.00    +0.210 HD
ENDBRANCH   3  18
BRANCH   4  20
ATOM     20  C5* UNL     1       8.399  -1.714  26.393  0.00  0.00    +0.190 C 
BRANCH  20  21
ATOM     21  O5* UNL     1       9.237  -0.873  25.609  0.00  0.00    -0.392 OA
ATOM     22  H5* UNL     1      10.097  -1.324  25.519  0.00  0.00    +0.210 HD
ENDBRANCH  20  21
ENDBRANCH   4  20
TORSDOF 6
ENDMDL
