MODEL 1
REMARK VINA RESULT:      -6.3      0.000      0.000
REMARK  Name = 
REMARK  16 active torsions:
REMARK  status: ('A' for Active; 'I' for Inactive)
REMARK    1  A    between atoms: C_2  and  C_3
REMARK    2  A    between atoms: C_2  and  C_23
REMARK    3  A    between atoms: C_2  and  C_26
REMARK    4  A    between atoms: C_3  and  P_4
REMARK    5  A    between atoms: P_4  and  O_5
REMARK    6  A    between atoms: P_4  and  C_7
REMARK    7  A    between atoms: C_7  and  N_9
REMARK    8  A    between atoms: C_7  and  C_20
REMARK    9  A    between atoms: C_10  and  O_12
REMARK   10  A    between atoms: O_12  and  C_13
REMARK   11  A    between atoms: C_13  and  C_14
REMARK   12  A    between atoms: C_20  and  C_21
REMARK   13  A    between atoms: C_20  and  C_22
REMARK   14  A    between atoms: C_23  and  O_24
REMARK   15  A    between atoms: C_28  and  C_29
REMARK   16  A    between atoms: C_29  and  N_30
REMARK                            x       y       z     vdW  Elec       q    Type
REMARK                         _______ _______ _______ _____ _____    ______ ____
ROOT
ATOM      1  P   UNL     1       9.102   1.911  23.525  0.00  0.00    +0.223 P 
ATOM      2  O   UNL     1      10.090   1.153  24.433  0.00  0.00    -0.289 OA
ENDROOT
BRANCH   1   3
ATOM      3  O   UNL     1      10.239   1.725  22.234  0.00  0.00    -0.342 OA
ATOM      4  H   UNL     1      11.122   1.878  22.637  0.00  0.00    +0.218 HD
ENDBRANCH   1   3
BRANCH   1   5
ATOM      5  C   UNL     1       8.036   0.466  22.655  0.00  0.00    +0.118 C 
BRANCH   5   6
ATOM      6  C   UNL     1       8.564  -0.940  23.009  0.00  0.00    +0.137 C 
BRANCH   6   7
ATOM      7  C   UNL     1       7.492  -2.007  23.076  0.00  0.00    -0.033 A 
ATOM      8  C   UNL     1       6.207  -1.772  23.575  0.00  0.00    +0.004 A 
ATOM      9  C   UNL     1       5.241  -2.779  23.520  0.00  0.00    +0.001 A 
ATOM     10  C   UNL     1       5.542  -4.019  22.953  0.00  0.00    +0.005 A 
ATOM     11  C   UNL     1       6.817  -4.269  22.436  0.00  0.00    -0.034 A 
ATOM     12  C   UNL     1       7.790  -3.267  22.533  0.00  0.00    +0.009 A 
BRANCH  11  13
ATOM     13  C   UNL     1       7.148  -5.560  21.735  0.00  0.00    +0.113 C 
BRANCH  13  14
ATOM     14  N   UNL     1       6.148  -6.581  22.039  0.00  0.00    -0.326 NA
ATOM     15  H   UNL     1       5.915  -7.090  21.190  0.00  0.00    +0.119 HD
ATOM     16  H   UNL     1       6.559  -7.259  22.681  0.00  0.00    +0.119 HD
ENDBRANCH  13  14
ENDBRANCH  11  13
ENDBRANCH   6   7
BRANCH   6  17
ATOM     17  C   UNL     1       9.715  -1.323  22.079  0.00  0.00    +0.313 C 
ATOM     18  O   UNL     1      10.709  -1.942  22.440  0.00  0.00    -0.250 OA
BRANCH  17  19
ATOM     19  O   UNL     1       9.563  -0.881  20.806  0.00  0.00    -0.480 OA
ATOM     20  H   UNL     1       8.992  -0.089  20.753  0.00  0.00    +0.295 HD
ENDBRANCH  17  19
ENDBRANCH   6  17
ENDBRANCH   5   6
ENDBRANCH   1   5
BRANCH   1  21
ATOM     21  C   UNL     1       7.900   2.107  24.891  0.00  0.00    +0.165 C 
BRANCH  21  22
ATOM     22  N   UNL     1       8.203   1.132  25.972  0.00  0.00    -0.269 N 
ATOM     23  H   UNL     1       9.161   0.852  26.127  0.00  0.00    +0.153 HD
ATOM     24  C   UNL     1       7.260   0.386  26.625  0.00  0.00    +0.401 C 
ATOM     25  O   UNL     1       6.059   0.596  26.561  0.00  0.00    -0.226 OA
BRANCH  24  26
ATOM     26  O   UNL     1       7.865  -0.607  27.322  0.00  0.00    -0.446 OA
BRANCH  26  27
ATOM     27  C   UNL     1       8.703  -1.500  26.571  0.00  0.00    +0.269 C 
BRANCH  27  28
ATOM     28  C   UNL     1       8.145  -2.904  26.467  0.00  0.00    -0.010 A 
ATOM     29  C   UNL     1       8.924  -3.937  25.926  0.00  0.00    +0.007 A 
ATOM     30  C   UNL     1       8.381  -5.214  25.728  0.00  0.00    +0.000 A 
ATOM     31  C   UNL     1       7.059  -5.475  26.079  0.00  0.00    +0.000 A 
ATOM     32  C   UNL     1       6.281  -4.464  26.638  0.00  0.00    +0.000 A 
ATOM     33  C   UNL     1       6.822  -3.188  26.835  0.00  0.00    +0.007 A 
ENDBRANCH  27  28
ENDBRANCH  26  27
ENDBRANCH  24  26
ENDBRANCH  21  22
BRANCH  21  34
ATOM     34  C   UNL     1       7.747   3.517  25.530  0.00  0.00    +0.013 C 
ATOM     35  C   UNL     1       6.336   4.107  25.450  0.00  0.00    +0.009 C 
ATOM     36  C   UNL     1       8.737   4.515  24.904  0.00  0.00    +0.009 C 
ENDBRANCH  21  34
ENDBRANCH   1  21
TORSDOF 14
ENDMDL
MODEL 2
REMARK VINA RESULT:      -6.2      2.374      4.683
REMARK  Name = 
REMARK  16 active torsions:
REMARK  status: ('A' for Active; 'I' for Inactive)
REMARK    1  A    between atoms: C_2  and  C_3
REMARK    2  A    between atoms: C_2  and  C_23
REMARK    3  A    between atoms: C_2  and  C_26
REMARK    4  A    between atoms: C_3  and  P_4
REMARK    5  A    between atoms: P_4  and  O_5
REMARK    6  A    between atoms: P_4  and  C_7
REMARK    7  A    between atoms: C_7  and  N_9
REMARK    8  A    between atoms: C_7  and  C_20
REMARK    9  A    between atoms: C_10  and  O_12
REMARK   10  A    between atoms: O_12  and  C_13
REMARK   11  A    between atoms: C_13  and  C_14
REMARK   12  A    between atoms: C_20  and  C_21
REMARK   13  A    between atoms: C_20  and  C_22
REMARK   14  A    between atoms: C_23  and  O_24
REMARK   15  A    between atoms: C_28  and  C_29
REMARK   16  A    between atoms: C_29  and  N_30
REMARK                            x       y       z     vdW  Elec       q    Type
REMARK                         _______ _______ _______ _____ _____    ______ ____
ROOT
ATOM      1  P   UNL     1       7.686   0.892  24.613  0.00  0.00    +0.223 P 
ATOM      2  O   UNL     1       6.646   0.276  23.658  0.00  0.00    -0.289 OA
ENDROOT
BRANCH   1   3
ATOM      3  O   UNL     1       6.397   1.785  25.346  0.00  0.00    -0.342 OA
ATOM      4  H   UNL     1       6.292   2.593  24.796  0.00  0.00    +0.218 HD
ENDBRANCH   1   3
BRANCH   1   5
ATOM      5  C   UNL     1       7.633  -0.295  26.218  0.00  0.00    +0.118 C 
BRANCH   5   6
ATOM      6  C   UNL     1       6.419  -1.246  26.197  0.00  0.00    +0.137 C 
BRANCH   6   7
ATOM      7  C   UNL     1       6.735  -2.666  26.616  0.00  0.00    -0.033 A 
ATOM      8  C   UNL     1       5.793  -3.521  27.197  0.00  0.00    +0.004 A 
ATOM      9  C   UNL     1       6.130  -4.849  27.473  0.00  0.00    +0.001 A 
ATOM     10  C   UNL     1       7.400  -5.337  27.156  0.00  0.00    +0.005 A 
ATOM     11  C   UNL     1       8.351  -4.501  26.563  0.00  0.00    -0.034 A 
ATOM     12  C   UNL     1       8.016  -3.162  26.328  0.00  0.00    +0.009 A 
BRANCH  11  13
ATOM     13  C   UNL     1       9.696  -5.018  26.125  0.00  0.00    +0.113 C 
BRANCH  13  14
ATOM     14  N   UNL     1       9.614  -5.590  24.783  0.00  0.00    -0.326 NA
ATOM     15  H   UNL     1      10.271  -6.362  24.704  0.00  0.00    +0.119 HD
ATOM     16  H   UNL     1       8.683  -5.986  24.653  0.00  0.00    +0.119 HD
ENDBRANCH  13  14
ENDBRANCH  11  13
ENDBRANCH   6   7
BRANCH   6  17
ATOM     17  C   UNL     1       5.261  -0.644  26.994  0.00  0.00    +0.313 C 
ATOM     18  O   UNL     1       5.295  -0.438  28.201  0.00  0.00    -0.250 OA
BRANCH  17  19
ATOM     19  O   UNL     1       4.158  -0.387  26.249  0.00  0.00    -0.480 OA
ATOM     20  H   UNL     1       4.067  -1.001  25.494  0.00  0.00    +0.295 HD
ENDBRANCH  17  19
ENDBRANCH   6  17
ENDBRANCH   5   6
ENDBRANCH   1   5
BRANCH   1  21
ATOM     21  C   UNL     1       9.048  -0.053  23.840  0.00  0.00    +0.165 C 
BRANCH  21  22
ATOM     22  N   UNL     1       8.513  -1.299  23.229  0.00  0.00    -0.269 N 
ATOM     23  H   UNL     1       7.546  -1.328  22.939  0.00  0.00    +0.153 HD
ATOM     24  C   UNL     1       9.158  -2.505  23.246  0.00  0.00    +0.401 C 
ATOM     25  O   UNL     1      10.331  -2.648  23.555  0.00  0.00    -0.226 OA
BRANCH  24  26
ATOM     26  O   UNL     1       8.298  -3.489  22.887  0.00  0.00    -0.446 OA
BRANCH  26  27
ATOM     27  C   UNL     1       6.939  -3.093  22.639  0.00  0.00    +0.269 C 
BRANCH  27  28
ATOM     28  C   UNL     1       5.920  -3.966  23.342  0.00  0.00    -0.010 A 
ATOM     29  C   UNL     1       6.186  -5.324  23.568  0.00  0.00    +0.007 A 
ATOM     30  C   UNL     1       5.208  -6.163  24.120  0.00  0.00    +0.000 A 
ATOM     31  C   UNL     1       3.960  -5.651  24.465  0.00  0.00    +0.000 A 
ATOM     32  C   UNL     1       3.690  -4.299  24.266  0.00  0.00    +0.000 A 
ATOM     33  C   UNL     1       4.665  -3.461  23.713  0.00  0.00    +0.007 A 
ENDBRANCH  27  28
ENDBRANCH  26  27
ENDBRANCH  24  26
ENDBRANCH  21  22
BRANCH  21  34
ATOM     34  C   UNL     1       9.931   0.672  22.784  0.00  0.00    +0.013 C 
ATOM     35  C   UNL     1      10.311   2.111  23.145  0.00  0.00    +0.009 C 
ATOM     36  C   UNL     1       9.249   0.672  21.404  0.00  0.00    +0.009 C 
ENDBRANCH  21  34
ENDBRANCH   1  21
TORSDOF 14
ENDMDL
MODEL 3
REMARK VINA RESULT:      -6.1      2.928      6.641
REMARK  Name = 
REMARK  16 active torsions:
REMARK  status: ('A' for Active; 'I' for Inactive)
REMARK    1  A    between atoms: C_2  and  C_3
REMARK    2  A    between atoms: C_2  and  C_23
REMARK    3  A    between atoms: C_2  and  C_26
REMARK    4  A    between atoms: C_3  and  P_4
REMARK    5  A    between atoms: P_4  and  O_5
REMARK    6  A    between atoms: P_4  and  C_7
REMARK    7  A    between atoms: C_7  and  N_9
REMARK    8  A    between atoms: C_7  and  C_20
REMARK    9  A    between atoms: C_10  and  O_12
REMARK   10  A    between atoms: O_12  and  C_13
REMARK   11  A    between atoms: C_13  and  C_14
REMARK   12  A    between atoms: C_20  and  C_21
REMARK   13  A    between atoms: C_20  and  C_22
REMARK   14  A    between atoms: C_23  and  O_24
REMARK   15  A    between atoms: C_28  and  C_29
REMARK   16  A    between atoms: C_29  and  N_30
REMARK                            x       y       z     vdW  Elec       q    Type
REMARK                         _______ _______ _______ _____ _____    ______ ____
ROOT
ATOM      1  P   UNL     1       8.861  -5.100  24.857  0.00  0.00    +0.223 P 
ATOM      2  O   UNL     1       9.761  -3.936  24.401  0.00  0.00    -0.289 OA
ENDROOT
BRANCH   1   3
ATOM      3  O   UNL     1      10.155  -5.623  25.881  0.00  0.00    -0.342 OA
ATOM      4  H   UNL     1       9.753  -6.269  26.502  0.00  0.00    +0.218 HD
ENDBRANCH   1   3
BRANCH   1   5
ATOM      5  C   UNL     1       7.974  -4.411  26.507  0.00  0.00    +0.118 C 
BRANCH   5   6
ATOM      6  C   UNL     1       6.826  -3.431  26.184  0.00  0.00    +0.137 C 
BRANCH   6   7
ATOM      7  C   UNL     1       5.483  -3.842  26.748  0.00  0.00    -0.033 A 
ATOM      8  C   UNL     1       4.281  -3.220  26.392  0.00  0.00    +0.004 A 
ATOM      9  C   UNL     1       3.069  -3.713  26.880  0.00  0.00    +0.001 A 
ATOM     10  C   UNL     1       3.043  -4.836  27.711  0.00  0.00    +0.005 A 
ATOM     11  C   UNL     1       4.233  -5.478  28.067  0.00  0.00    -0.034 A 
ATOM     12  C   UNL     1       5.445  -4.953  27.605  0.00  0.00    +0.009 A 
BRANCH  11  13
ATOM     13  C   UNL     1       4.235  -6.744  28.884  0.00  0.00    +0.113 C 
BRANCH  13  14
ATOM     14  N   UNL     1       5.457  -7.507  28.645  0.00  0.00    -0.326 NA
ATOM     15  H   UNL     1       5.937  -7.131  27.830  0.00  0.00    +0.119 HD
ATOM     16  H   UNL     1       6.085  -7.375  29.438  0.00  0.00    +0.119 HD
ENDBRANCH  13  14
ENDBRANCH  11  13
ENDBRANCH   6   7
BRANCH   6  17
ATOM     17  C   UNL     1       7.218  -2.008  26.580  0.00  0.00    +0.313 C 
ATOM     18  O   UNL     1       6.483  -1.240  27.189  0.00  0.00    -0.250 OA
BRANCH  17  19
ATOM     19  O   UNL     1       8.456  -1.642  26.162  0.00  0.00    -0.480 OA
ATOM     20  H   UNL     1       8.781  -0.841  26.619  0.00  0.00    +0.295 HD
ENDBRANCH  17  19
ENDBRANCH   6  17
ENDBRANCH   5   6
ENDBRANCH   1   5
BRANCH   1  21
ATOM     21  C   UNL     1       7.492  -4.548  23.775  0.00  0.00    +0.165 C 
BRANCH  21  22
ATOM     22  N   UNL     1       8.022  -3.654  22.710  0.00  0.00    -0.269 N 
ATOM     23  H   UNL     1       8.878  -3.907  22.238  0.00  0.00    +0.153 HD
ATOM     24  C   UNL     1       7.576  -2.382  22.479  0.00  0.00    +0.401 C 
ATOM     25  O   UNL     1       6.552  -1.919  22.958  0.00  0.00    -0.226 OA
BRANCH  24  26
ATOM     26  O   UNL     1       8.445  -1.734  21.665  0.00  0.00    -0.446 OA
BRANCH  26  27
ATOM     27  C   UNL     1       9.786  -1.574  22.157  0.00  0.00    +0.269 C 
BRANCH  27  28
ATOM     28  C   UNL     1      10.093  -0.165  22.621  0.00  0.00    -0.010 A 
ATOM     29  C   UNL     1      10.591   0.062  23.912  0.00  0.00    +0.007 A 
ATOM     30  C   UNL     1      10.777   1.367  24.388  0.00  0.00    +0.000 A 
ATOM     31  C   UNL     1      10.479   2.458  23.575  0.00  0.00    +0.000 A 
ATOM     32  C   UNL     1      10.003   2.246  22.283  0.00  0.00    +0.000 A 
ATOM     33  C   UNL     1       9.816   0.943  21.807  0.00  0.00    +0.007 A 
ENDBRANCH  27  28
ENDBRANCH  26  27
ENDBRANCH  24  26
ENDBRANCH  21  22
BRANCH  21  34
ATOM     34  C   UNL     1       6.606  -5.637  23.106  0.00  0.00    +0.013 C 
ATOM     35  C   UNL     1       6.877  -5.858  21.615  0.00  0.00    +0.009 C 
ATOM     36  C   UNL     1       5.111  -5.324  23.297  0.00  0.00    +0.009 C 
ENDBRANCH  21  34
ENDBRANCH   1  21
TORSDOF 14
ENDMDL
MODEL 4
REMARK VINA RESULT:      -6.0      3.837      7.212
REMARK  Name = 
REMARK  16 active torsions:
REMARK  status: ('A' for Active; 'I' for Inactive)
REMARK    1  A    between atoms: C_2  and  C_3
REMARK    2  A    between atoms: C_2  and  C_23
REMARK    3  A    between atoms: C_2  and  C_26
REMARK    4  A    between atoms: C_3  and  P_4
REMARK    5  A    between atoms: P_4  and  O_5
REMARK    6  A    between atoms: P_4  and  C_7
REMARK    7  A    between atoms: C_7  and  N_9
REMARK    8  A    between atoms: C_7  and  C_20
REMARK    9  A    between atoms: C_10  and  O_12
REMARK   10  A    between atoms: O_12  and  C_13
REMARK   11  A    between atoms: C_13  and  C_14
REMARK   12  A    between atoms: C_20  and  C_21
REMARK   13  A    between atoms: C_20  and  C_22
REMARK   14  A    between atoms: C_23  and  O_24
REMARK   15  A    between atoms: C_28  and  C_29
REMARK   16  A    between atoms: C_29  and  N_30
REMARK                            x       y       z     vdW  Elec       q    Type
REMARK                         _______ _______ _______ _____ _____    ______ ____
ROOT
ATOM      1  P   UNL     1       7.315  -5.200  26.350  0.00  0.00    +0.223 P 
ATOM      2  O   UNL     1       6.847  -3.989  27.181  0.00  0.00    -0.289 OA
ENDROOT
BRANCH   1   3
ATOM      3  O   UNL     1       7.652  -6.016  27.839  0.00  0.00    -0.342 OA
ATOM      4  H   UNL     1       6.909  -6.646  27.967  0.00  0.00    +0.218 HD
ENDBRANCH   1   3
BRANCH   1   5
ATOM      5  C   UNL     1       5.689  -6.350  26.211  0.00  0.00    +0.118 C 
BRANCH   5   6
ATOM      6  C   UNL     1       4.492  -5.761  26.987  0.00  0.00    +0.137 C 
BRANCH   6   7
ATOM      7  C   UNL     1       3.307  -5.397  26.118  0.00  0.00    -0.033 A 
ATOM      8  C   UNL     1       2.734  -4.121  26.101  0.00  0.00    +0.004 A 
ATOM      9  C   UNL     1       1.702  -3.831  25.206  0.00  0.00    +0.001 A 
ATOM     10  C   UNL     1       1.246  -4.802  24.311  0.00  0.00    +0.005 A 
ATOM     11  C   UNL     1       1.816  -6.079  24.304  0.00  0.00    -0.034 A 
ATOM     12  C   UNL     1       2.822  -6.372  25.233  0.00  0.00    +0.009 A 
BRANCH  11  13
ATOM     13  C   UNL     1       1.413  -7.120  23.292  0.00  0.00    +0.113 C 
BRANCH  13  14
ATOM     14  N   UNL     1       2.315  -8.267  23.349  0.00  0.00    -0.326 NA
ATOM     15  H   UNL     1       1.842  -9.088  22.979  0.00  0.00    +0.119 HD
ATOM     16  H   UNL     1       3.110  -8.089  22.735  0.00  0.00    +0.119 HD
ENDBRANCH  13  14
ENDBRANCH  11  13
ENDBRANCH   6   7
BRANCH   6  17
ATOM     17  C   UNL     1       4.109  -6.682  28.146  0.00  0.00    +0.313 C 
ATOM     18  O   UNL     1       3.020  -6.658  28.707  0.00  0.00    -0.250 OA
BRANCH  17  19
ATOM     19  O   UNL     1       5.103  -7.517  28.536  0.00  0.00    -0.480 OA
ATOM     20  H   UNL     1       5.888  -7.034  28.863  0.00  0.00    +0.295 HD
ENDBRANCH  17  19
ENDBRANCH   6  17
ENDBRANCH   5   6
ENDBRANCH   1   5
BRANCH   1  21
ATOM     21  C   UNL     1       6.957  -4.338  24.776  0.00  0.00    +0.165 C 
BRANCH  21  22
ATOM     22  N   UNL     1       8.212  -3.765  24.220  0.00  0.00    -0.269 N 
ATOM     23  H   UNL     1       8.850  -4.369  23.723  0.00  0.00    +0.153 HD
ATOM     24  C   UNL     1       8.701  -2.527  24.536  0.00  0.00    +0.401 C 
ATOM     25  O   UNL     1       8.060  -1.668  25.122  0.00  0.00    -0.226 OA
BRANCH  24  26
ATOM     26  O   UNL     1       9.986  -2.422  24.116  0.00  0.00    -0.446 OA
BRANCH  26  27
ATOM     27  C   UNL     1      10.191  -1.832  22.822  0.00  0.00    +0.269 C 
BRANCH  27  28
ATOM     28  C   UNL     1      10.188  -0.318  22.844  0.00  0.00    -0.010 A 
ATOM     29  C   UNL     1      10.673   0.376  23.962  0.00  0.00    +0.007 A 
ATOM     30  C   UNL     1      10.576   1.772  24.035  0.00  0.00    +0.000 A 
ATOM     31  C   UNL     1      10.007   2.491  22.988  0.00  0.00    +0.000 A 
ATOM     32  C   UNL     1       9.540   1.816  21.861  0.00  0.00    +0.000 A 
ATOM     33  C   UNL     1       9.635   0.421  21.787  0.00  0.00    +0.007 A 
ENDBRANCH  27  28
ENDBRANCH  26  27
ENDBRANCH  24  26
ENDBRANCH  21  22
BRANCH  21  34
ATOM     34  C   UNL     1       6.243  -5.140  23.652  0.00  0.00    +0.013 C 
ATOM     35  C   UNL     1       7.162  -5.624  22.526  0.00  0.00    +0.009 C 
ATOM     36  C   UNL     1       5.095  -4.321  23.036  0.00  0.00    +0.009 C 
ENDBRANCH  21  34
ENDBRANCH   1  21
TORSDOF 14
ENDMDL
MODEL 5
REMARK VINA RESULT:      -5.9      3.432      6.537
REMARK  Name = 
REMARK  16 active torsions:
REMARK  status: ('A' for Active; 'I' for Inactive)
REMARK    1  A    between atoms: C_2  and  C_3
REMARK    2  A    between atoms: C_2  and  C_23
REMARK    3  A    between atoms: C_2  and  C_26
REMARK    4  A    between atoms: C_3  and  P_4
REMARK    5  A    between atoms: P_4  and  O_5
REMARK    6  A    between atoms: P_4  and  C_7
REMARK    7  A    between atoms: C_7  and  N_9
REMARK    8  A    between atoms: C_7  and  C_20
REMARK    9  A    between atoms: C_10  and  O_12
REMARK   10  A    between atoms: O_12  and  C_13
REMARK   11  A    between atoms: C_13  and  C_14
REMARK   12  A    between atoms: C_20  and  C_21
REMARK   13  A    between atoms: C_20  and  C_22
REMARK   14  A    between atoms: C_23  and  O_24
REMARK   15  A    between atoms: C_28  and  C_29
REMARK   16  A    between atoms: C_29  and  N_30
REMARK                            x       y       z     vdW  Elec       q    Type
REMARK                         _______ _______ _______ _____ _____    ______ ____
ROOT
ATOM      1  P   UNL     1       6.412  -3.288  22.273  0.00  0.00    +0.223 P 
ATOM      2  O   UNL     1       7.482  -4.397  22.269  0.00  0.00    -0.289 OA
ENDROOT
BRANCH   1   3
ATOM      3  O   UNL     1       5.614  -4.135  20.992  0.00  0.00    -0.342 OA
ATOM      4  H   UNL     1       4.695  -3.786  20.980  0.00  0.00    +0.218 HD
ENDBRANCH   1   3
BRANCH   1   5
ATOM      5  C   UNL     1       4.989  -3.991  23.483  0.00  0.00    +0.118 C 
BRANCH   5   6
ATOM      6  C   UNL     1       5.269  -5.440  23.930  0.00  0.00    +0.137 C 
BRANCH   6   7
ATOM      7  C   UNL     1       5.809  -5.563  25.339  0.00  0.00    -0.033 A 
ATOM      8  C   UNL     1       7.148  -5.330  25.669  0.00  0.00    +0.004 A 
ATOM      9  C   UNL     1       7.556  -5.370  27.004  0.00  0.00    +0.001 A 
ATOM     10  C   UNL     1       6.631  -5.625  28.019  0.00  0.00    +0.005 A 
ATOM     11  C   UNL     1       5.286  -5.847  27.711  0.00  0.00    -0.034 A 
ATOM     12  C   UNL     1       4.895  -5.844  26.366  0.00  0.00    +0.009 A 
BRANCH  11  13
ATOM     13  C   UNL     1       4.247  -6.032  28.786  0.00  0.00    +0.113 C 
BRANCH  13  14
ATOM     14  N   UNL     1       4.013  -7.452  29.034  0.00  0.00    -0.326 NA
ATOM     15  H   UNL     1       3.691  -7.897  28.177  0.00  0.00    +0.119 HD
ATOM     16  H   UNL     1       4.901  -7.893  29.273  0.00  0.00    +0.119 HD
ENDBRANCH  13  14
ENDBRANCH  11  13
ENDBRANCH   6   7
BRANCH   6  17
ATOM     17  C   UNL     1       4.036  -6.314  23.696  0.00  0.00    +0.313 C 
ATOM     18  O   UNL     1       2.916  -5.871  23.474  0.00  0.00    -0.250 OA
BRANCH  17  19
ATOM     19  O   UNL     1       4.280  -7.645  23.795  0.00  0.00    -0.480 OA
ATOM     20  H   UNL     1       3.556  -8.184  23.418  0.00  0.00    +0.295 HD
ENDBRANCH  17  19
ENDBRANCH   6  17
ENDBRANCH   5   6
ENDBRANCH   1   5
BRANCH   1  21
ATOM     21  C   UNL     1       7.256  -2.392  23.628  0.00  0.00    +0.165 C 
BRANCH  21  22
ATOM     22  N   UNL     1       8.306  -1.502  23.065  0.00  0.00    -0.269 N 
ATOM     23  H   UNL     1       8.028  -0.692  22.531  0.00  0.00    +0.153 HD
ATOM     24  C   UNL     1       9.634  -1.820  23.001  0.00  0.00    +0.401 C 
ATOM     25  O   UNL     1      10.142  -2.759  23.597  0.00  0.00    -0.226 OA
BRANCH  24  26
ATOM     26  O   UNL     1      10.273  -0.955  22.176  0.00  0.00    -0.446 OA
BRANCH  26  27
ATOM     27  C   UNL     1       9.441  -0.108  21.368  0.00  0.00    +0.269 C 
BRANCH  27  28
ATOM     28  C   UNL     1       9.223   1.268  21.963  0.00  0.00    -0.010 A 
ATOM     29  C   UNL     1      10.165   1.814  22.847  0.00  0.00    +0.007 A 
ATOM     30  C   UNL     1       9.922   3.038  23.485  0.00  0.00    +0.000 A 
ATOM     31  C   UNL     1       8.742   3.735  23.237  0.00  0.00    +0.000 A 
ATOM     32  C   UNL     1       7.807   3.214  22.345  0.00  0.00    +0.000 A 
ATOM     33  C   UNL     1       8.049   1.991  21.708  0.00  0.00    +0.007 A 
ENDBRANCH  27  28
ENDBRANCH  26  27
ENDBRANCH  24  26
ENDBRANCH  21  22
BRANCH  21  34
ATOM     34  C   UNL     1       6.380  -1.561  24.608  0.00  0.00    +0.013 C 
ATOM     35  C   UNL     1       6.376  -0.053  24.343  0.00  0.00    +0.009 C 
ATOM     36  C   UNL     1       6.805  -1.806  26.067  0.00  0.00    +0.009 C 
ENDBRANCH  21  34
ENDBRANCH   1  21
TORSDOF 14
ENDMDL
MODEL 6
REMARK VINA RESULT:      -5.9      2.680      6.131
REMARK  Name = 
REMARK  16 active torsions:
REMARK  status: ('A' for Active; 'I' for Inactive)
REMARK    1  A    between atoms: C_2  and  C_3
REMARK    2  A    between atoms: C_2  and  C_23
REMARK    3  A    between atoms: C_2  and  C_26
REMARK    4  A    between atoms: C_3  and  P_4
REMARK    5  A    between atoms: P_4  and  O_5
REMARK    6  A    between atoms: P_4  and  C_7
REMARK    7  A    between atoms: C_7  and  N_9
REMARK    8  A    between atoms: C_7  and  C_20
REMARK    9  A    between atoms: C_10  and  O_12
REMARK   10  A    between atoms: O_12  and  C_13
REMARK   11  A    between atoms: C_13  and  C_14
REMARK   12  A    between atoms: C_20  and  C_21
REMARK   13  A    between atoms: C_20  and  C_22
REMARK   14  A    between atoms: C_23  and  O_24
REMARK   15  A    between atoms: C_28  and  C_29
REMARK   16  A    between atoms: C_29  and  N_30
REMARK                            x       y       z     vdW  Elec       q    Type
REMARK                         _______ _______ _______ _____ _____    ______ ____
ROOT
ATOM      1  P   UNL     1       6.504  -1.696  24.423  0.00  0.00    +0.223 P 
ATOM      2  O   UNL     1       6.692  -0.360  23.679  0.00  0.00    -0.289 OA
ENDROOT
BRANCH   1   3
ATOM      3  O   UNL     1       4.871  -1.220  24.744  0.00  0.00    -0.342 OA
ATOM      4  H   UNL     1       4.677  -1.544  25.651  0.00  0.00    +0.218 HD
ENDBRANCH   1   3
BRANCH   1   5
ATOM      5  C   UNL     1       5.762  -2.924  23.035  0.00  0.00    +0.118 C 
BRANCH   5   6
ATOM      6  C   UNL     1       6.345  -4.348  23.147  0.00  0.00    +0.137 C 
BRANCH   6   7
ATOM      7  C   UNL     1       5.589  -5.256  24.093  0.00  0.00    -0.033 A 
ATOM      8  C   UNL     1       4.616  -6.167  23.668  0.00  0.00    +0.004 A 
ATOM      9  C   UNL     1       4.026  -7.038  24.586  0.00  0.00    +0.001 A 
ATOM     10  C   UNL     1       4.412  -7.021  25.928  0.00  0.00    +0.005 A 
ATOM     11  C   UNL     1       5.393  -6.127  26.370  0.00  0.00    -0.034 A 
ATOM     12  C   UNL     1       5.948  -5.230  25.450  0.00  0.00    +0.009 A 
BRANCH  11  13
ATOM     13  C   UNL     1       5.898  -6.145  27.789  0.00  0.00    +0.113 C 
BRANCH  13  14
ATOM     14  N   UNL     1       7.354  -6.026  27.816  0.00  0.00    -0.326 NA
ATOM     15  H   UNL     1       7.624  -5.333  28.512  0.00  0.00    +0.119 HD
ATOM     16  H   UNL     1       7.749  -6.915  28.124  0.00  0.00    +0.119 HD
ENDBRANCH  13  14
ENDBRANCH  11  13
ENDBRANCH   6   7
BRANCH   6  17
ATOM     17  C   UNL     1       6.515  -4.961  21.757  0.00  0.00    +0.313 C 
ATOM     18  O   UNL     1       7.292  -5.873  21.502  0.00  0.00    -0.250 OA
BRANCH  17  19
ATOM     19  O   UNL     1       5.748  -4.378  20.802  0.00  0.00    -0.480 OA
ATOM     20  H   UNL     1       5.949  -4.716  19.906  0.00  0.00    +0.295 HD
ENDBRANCH  17  19
ENDBRANCH   6  17
ENDBRANCH   5   6
ENDBRANCH   1   5
BRANCH   1  21
ATOM     21  C   UNL     1       8.230  -2.201  24.084  0.00  0.00    +0.165 C 
BRANCH  21  22
ATOM     22  N   UNL     1       9.002  -1.038  23.569  0.00  0.00    -0.269 N 
ATOM     23  H   UNL     1       8.649  -0.106  23.726  0.00  0.00    +0.153 HD
ATOM     24  C   UNL     1      10.036  -1.133  22.679  0.00  0.00    +0.401 C 
ATOM     25  O   UNL     1      10.591  -2.181  22.384  0.00  0.00    -0.226 OA
BRANCH  24  26
ATOM     26  O   UNL     1      10.325   0.095  22.181  0.00  0.00    -0.446 OA
BRANCH  26  27
ATOM     27  C   UNL     1       9.252   0.787  21.522  0.00  0.00    +0.269 C 
BRANCH  27  28
ATOM     28  C   UNL     1       8.922   2.125  22.151  0.00  0.00    -0.010 A 
ATOM     29  C   UNL     1       9.800   2.707  23.077  0.00  0.00    +0.007 A 
ATOM     30  C   UNL     1       9.455   3.891  23.744  0.00  0.00    +0.000 A 
ATOM     31  C   UNL     1       8.236   4.511  23.483  0.00  0.00    +0.000 A 
ATOM     32  C   UNL     1       7.364   3.955  22.549  0.00  0.00    +0.000 A 
ATOM     33  C   UNL     1       7.707   2.772  21.883  0.00  0.00    +0.007 A 
ENDBRANCH  27  28
ENDBRANCH  26  27
ENDBRANCH  24  26
ENDBRANCH  21  22
BRANCH  21  34
ATOM     34  C   UNL     1       9.039  -2.854  25.240  0.00  0.00    +0.013 C 
ATOM     35  C   UNL     1       9.423  -4.319  25.006  0.00  0.00    +0.009 C 
ATOM     36  C   UNL     1       8.277  -2.749  26.573  0.00  0.00    +0.009 C 
ENDBRANCH  21  34
ENDBRANCH   1  21
TORSDOF 14
ENDMDL
MODEL 7
REMARK VINA RESULT:      -5.9      3.045      6.095
REMARK  Name = 
REMARK  16 active torsions:
REMARK  status: ('A' for Active; 'I' for Inactive)
REMARK    1  A    between atoms: C_2  and  C_3
REMARK    2  A    between atoms: C_2  and  C_23
REMARK    3  A    between atoms: C_2  and  C_26
REMARK    4  A    between atoms: C_3  and  P_4
REMARK    5  A    between atoms: P_4  and  O_5
REMARK    6  A    between atoms: P_4  and  C_7
REMARK    7  A    between atoms: C_7  and  N_9
REMARK    8  A    between atoms: C_7  and  C_20
REMARK    9  A    between atoms: C_10  and  O_12
REMARK   10  A    between atoms: O_12  and  C_13
REMARK   11  A    between atoms: C_13  and  C_14
REMARK   12  A    between atoms: C_20  and  C_21
REMARK   13  A    between atoms: C_20  and  C_22
REMARK   14  A    between atoms: C_23  and  O_24
REMARK   15  A    between atoms: C_28  and  C_29
REMARK   16  A    between atoms: C_29  and  N_30
REMARK                            x       y       z     vdW  Elec       q    Type
REMARK                         _______ _______ _______ _____ _____    ______ ____
ROOT
ATOM      1  P   UNL     1       9.028  -4.263  25.218  0.00  0.00    +0.223 P 
ATOM      2  O   UNL     1       9.071  -3.894  26.714  0.00  0.00    -0.289 OA
ENDROOT
BRANCH   1   3
ATOM      3  O   UNL     1       9.807  -5.754  25.623  0.00  0.00    -0.342 OA
ATOM      4  H   UNL     1      10.697  -5.706  25.211  0.00  0.00    +0.218 HD
ENDBRANCH   1   3
BRANCH   1   5
ATOM      5  C   UNL     1       7.343  -5.316  25.027  0.00  0.00    +0.118 C 
BRANCH   5   6
ATOM      6  C   UNL     1       6.332  -5.003  26.149  0.00  0.00    +0.137 C 
BRANCH   6   7
ATOM      7  C   UNL     1       4.913  -4.789  25.665  0.00  0.00    -0.033 A 
ATOM      8  C   UNL     1       4.132  -3.692  26.043  0.00  0.00    +0.004 A 
ATOM      9  C   UNL     1       2.866  -3.510  25.484  0.00  0.00    +0.001 A 
ATOM     10  C   UNL     1       2.376  -4.408  24.533  0.00  0.00    +0.005 A 
ATOM     11  C   UNL     1       3.147  -5.504  24.132  0.00  0.00    -0.034 A 
ATOM     12  C   UNL     1       4.398  -5.699  24.729  0.00  0.00    +0.009 A 
BRANCH  11  13
ATOM     13  C   UNL     1       2.689  -6.438  23.043  0.00  0.00    +0.113 C 
BRANCH  13  14
ATOM     14  N   UNL     1       2.750  -7.825  23.497  0.00  0.00    -0.326 NA
ATOM     15  H   UNL     1       2.865  -7.845  24.508  0.00  0.00    +0.119 HD
ATOM     16  H   UNL     1       1.856  -8.274  23.297  0.00  0.00    +0.119 HD
ENDBRANCH  13  14
ENDBRANCH  11  13
ENDBRANCH   6   7
BRANCH   6  17
ATOM     17  C   UNL     1       6.422  -6.058  27.252  0.00  0.00    +0.313 C 
ATOM     18  O   UNL     1       5.500  -6.803  27.563  0.00  0.00    -0.250 OA
BRANCH  17  19
ATOM     19  O   UNL     1       7.615  -6.078  27.896  0.00  0.00    -0.480 OA
ATOM     20  H   UNL     1       7.705  -6.851  28.489  0.00  0.00    +0.295 HD
ENDBRANCH  17  19
ENDBRANCH   6  17
ENDBRANCH   5   6
ENDBRANCH   1   5
BRANCH   1  21
ATOM     21  C   UNL     1       8.205  -2.686  24.790  0.00  0.00    +0.165 C 
BRANCH  21  22
ATOM     22  N   UNL     1       9.221  -1.610  24.645  0.00  0.00    -0.269 N 
ATOM     23  H   UNL     1      10.039  -1.780  24.079  0.00  0.00    +0.153 HD
ATOM     24  C   UNL     1       9.265  -0.482  25.417  0.00  0.00    +0.401 C 
ATOM     25  O   UNL     1       8.357  -0.118  26.149  0.00  0.00    -0.226 OA
BRANCH  24  26
ATOM     26  O   UNL     1      10.459   0.140  25.252  0.00  0.00    -0.446 OA
BRANCH  26  27
ATOM     27  C   UNL     1      10.799   0.527  23.911  0.00  0.00    +0.269 C 
BRANCH  27  28
ATOM     28  C   UNL     1       9.808   1.491  23.293  0.00  0.00    -0.010 A 
ATOM     29  C   UNL     1       9.532   2.718  23.914  0.00  0.00    +0.007 A 
ATOM     30  C   UNL     1       8.540   3.569  23.408  0.00  0.00    +0.000 A 
ATOM     31  C   UNL     1       7.823   3.209  22.269  0.00  0.00    +0.000 A 
ATOM     32  C   UNL     1       8.102   2.003  21.630  0.00  0.00    +0.000 A 
ATOM     33  C   UNL     1       9.092   1.152  22.135  0.00  0.00    +0.007 A 
ENDBRANCH  27  28
ENDBRANCH  26  27
ENDBRANCH  24  26
ENDBRANCH  21  22
BRANCH  21  34
ATOM     34  C   UNL     1       7.283  -2.662  23.537  0.00  0.00    +0.013 C 
ATOM     35  C   UNL     1       8.007  -2.406  22.212  0.00  0.00    +0.009 C 
ATOM     36  C   UNL     1       6.163  -1.618  23.698  0.00  0.00    +0.009 C 
ENDBRANCH  21  34
ENDBRANCH   1  21
TORSDOF 14
ENDMDL
MODEL 8
REMARK VINA RESULT:      -5.8      3.226      6.440
REMARK  Name = 
REMARK  16 active torsions:
REMARK  status: ('A' for Active; 'I' for Inactive)
REMARK    1  A    between atoms: C_2  and  C_3
REMARK    2  A    between atoms: C_2  and  C_23
REMARK    3  A    between atoms: C_2  and  C_26
REMARK    4  A    between atoms: C_3  and  P_4
REMARK    5  A    between atoms: P_4  and  O_5
REMARK    6  A    between atoms: P_4  and  C_7
REMARK    7  A    between atoms: C_7  and  N_9
REMARK    8  A    between atoms: C_7  and  C_20
REMARK    9  A    between atoms: C_10  and  O_12
REMARK   10  A    between atoms: O_12  and  C_13
REMARK   11  A    between atoms: C_13  and  C_14
REMARK   12  A    between atoms: C_20  and  C_21
REMARK   13  A    between atoms: C_20  and  C_22
REMARK   14  A    between atoms: C_23  and  O_24
REMARK   15  A    between atoms: C_28  and  C_29
REMARK   16  A    between atoms: C_29  and  N_30
REMARK                            x       y       z     vdW  Elec       q    Type
REMARK                         _______ _______ _______ _____ _____    ______ ____
ROOT
ATOM      1  P   UNL     1       7.510  -4.733  26.967  0.00  0.00    +0.223 P 
ATOM      2  O   UNL     1       7.172  -5.968  26.110  0.00  0.00    -0.289 OA
ENDROOT
BRANCH   1   3
ATOM      3  O   UNL     1       9.151  -4.888  26.438  0.00  0.00    -0.342 OA
ATOM      4  H   UNL     1       9.312  -4.116  25.852  0.00  0.00    +0.218 HD
ENDBRANCH   1   3
BRANCH   1   5
ATOM      5  C   UNL     1       7.356  -3.202  25.694  0.00  0.00    +0.118 C 
BRANCH   5   6
ATOM      6  C   UNL     1       8.519  -2.201  25.845  0.00  0.00    +0.137 C 
BRANCH   6   7
ATOM      7  C   UNL     1       9.022  -1.631  24.535  0.00  0.00    -0.033 A 
ATOM      8  C   UNL     1      10.009  -2.248  23.760  0.00  0.00    +0.004 A 
ATOM      9  C   UNL     1      10.357  -1.714  22.517  0.00  0.00    +0.001 A 
ATOM     10  C   UNL     1       9.713  -0.574  22.031  0.00  0.00    +0.005 A 
ATOM     11  C   UNL     1       8.714   0.049  22.785  0.00  0.00    -0.034 A 
ATOM     12  C   UNL     1       8.401  -0.471  24.047  0.00  0.00    +0.009 A 
BRANCH  11  13
ATOM     13  C   UNL     1       7.936   1.223  22.252  0.00  0.00    +0.113 C 
BRANCH  13  14
ATOM     14  N   UNL     1       8.807   2.113  21.489  0.00  0.00    -0.326 NA
ATOM     15  H   UNL     1       9.770   1.981  21.788  0.00  0.00    +0.119 HD
ATOM     16  H   UNL     1       8.769   1.843  20.506  0.00  0.00    +0.119 HD
ENDBRANCH  13  14
ENDBRANCH  11  13
ENDBRANCH   6   7
BRANCH   6  17
ATOM     17  C   UNL     1       8.155  -1.114  26.856  0.00  0.00    +0.313 C 
ATOM     18  O   UNL     1       7.008  -0.749  27.085  0.00  0.00    -0.250 OA
BRANCH  17  19
ATOM     19  O   UNL     1       9.227  -0.547  27.463  0.00  0.00    -0.480 OA
ATOM     20  H   UNL     1       9.820  -1.211  27.866  0.00  0.00    +0.295 HD
ENDBRANCH  17  19
ENDBRANCH   6  17
ENDBRANCH   5   6
ENDBRANCH   1   5
BRANCH   1  21
ATOM     21  C   UNL     1       5.776  -4.567  27.526  0.00  0.00    +0.165 C 
BRANCH  21  22
ATOM     22  N   UNL     1       4.869  -5.247  26.563  0.00  0.00    -0.269 N 
ATOM     23  H   UNL     1       5.085  -6.188  26.265  0.00  0.00    +0.153 HD
ATOM     24  C   UNL     1       3.889  -4.615  25.849  0.00  0.00    +0.401 C 
ATOM     25  O   UNL     1       3.494  -3.483  26.084  0.00  0.00    -0.226 OA
BRANCH  24  26
ATOM     26  O   UNL     1       3.451  -5.427  24.855  0.00  0.00    -0.446 OA
BRANCH  26  27
ATOM     27  C   UNL     1       3.449  -4.873  23.530  0.00  0.00    +0.269 C 
BRANCH  27  28
ATOM     28  C   UNL     1       4.838  -4.665  22.962  0.00  0.00    -0.010 A 
ATOM     29  C   UNL     1       5.738  -5.737  22.882  0.00  0.00    +0.007 A 
ATOM     30  C   UNL     1       7.059  -5.532  22.458  0.00  0.00    +0.000 A 
ATOM     31  C   UNL     1       7.489  -4.258  22.098  0.00  0.00    +0.000 A 
ATOM     32  C   UNL     1       6.599  -3.187  22.153  0.00  0.00    +0.000 A 
ATOM     33  C   UNL     1       5.280  -3.390  22.577  0.00  0.00    +0.007 A 
ENDBRANCH  27  28
ENDBRANCH  26  27
ENDBRANCH  24  26
ENDBRANCH  21  22
BRANCH  21  34
ATOM     34  C   UNL     1       5.423  -5.054  28.960  0.00  0.00    +0.013 C 
ATOM     35  C   UNL     1       5.020  -6.529  29.056  0.00  0.00    +0.009 C 
ATOM     36  C   UNL     1       4.303  -4.195  29.574  0.00  0.00    +0.009 C 
ENDBRANCH  21  34
ENDBRANCH   1  21
TORSDOF 14
ENDMDL
MODEL 9
REMARK VINA RESULT:      -5.8      2.601      6.268
REMARK  Name = 
REMARK  16 active torsions:
REMARK  status: ('A' for Active; 'I' for Inactive)
REMARK    1  A    between atoms: C_2  and  C_3
REMARK    2  A    between atoms: C_2  and  C_23
REMARK    3  A    between atoms: C_2  and  C_26
REMARK    4  A    between atoms: C_3  and  P_4
REMARK    5  A    between atoms: P_4  and  O_5
REMARK    6  A    between atoms: P_4  and  C_7
REMARK    7  A    between atoms: C_7  and  N_9
REMARK    8  A    between atoms: C_7  and  C_20
REMARK    9  A    between atoms: C_10  and  O_12
REMARK   10  A    between atoms: O_12  and  C_13
REMARK   11  A    between atoms: C_13  and  C_14
REMARK   12  A    between atoms: C_20  and  C_21
REMARK   13  A    between atoms: C_20  and  C_22
REMARK   14  A    between atoms: C_23  and  O_24
REMARK   15  A    between atoms: C_28  and  C_29
REMARK   16  A    between atoms: C_29  and  N_30
REMARK                            x       y       z     vdW  Elec       q    Type
REMARK                         _______ _______ _______ _____ _____    ______ ____
ROOT
ATOM      1  P   UNL     1       6.692  -1.070  24.478  0.00  0.00    +0.223 P 
ATOM      2  O   UNL     1       5.938   0.227  24.129  0.00  0.00    -0.289 OA
ENDROOT
BRANCH   1   3
ATOM      3  O   UNL     1       5.309  -1.557  25.398  0.00  0.00    -0.342 OA
ATOM      4  H   UNL     1       4.535  -1.168  24.934  0.00  0.00    +0.218 HD
ENDBRANCH   1   3
BRANCH   1   5
ATOM      5  C   UNL     1       6.092  -2.369  23.086  0.00  0.00    +0.118 C 
BRANCH   5   6
ATOM      6  C   UNL     1       7.043  -3.578  22.971  0.00  0.00    +0.137 C 
BRANCH   6   7
ATOM      7  C   UNL     1       7.248  -4.333  24.267  0.00  0.00    -0.033 A 
ATOM      8  C   UNL     1       8.462  -4.348  24.961  0.00  0.00    +0.004 A 
ATOM      9  C   UNL     1       8.551  -4.988  26.199  0.00  0.00    +0.001 A 
ATOM     10  C   UNL     1       7.430  -5.603  26.761  0.00  0.00    +0.005 A 
ATOM     11  C   UNL     1       6.204  -5.587  26.089  0.00  0.00    -0.034 A 
ATOM     12  C   UNL     1       6.135  -4.977  24.830  0.00  0.00    +0.009 A 
BRANCH  11  13
ATOM     13  C   UNL     1       4.955  -6.158  26.707  0.00  0.00    +0.113 C 
BRANCH  13  14
ATOM     14  N   UNL     1       5.290  -7.199  27.675  0.00  0.00    -0.326 NA
ATOM     15  H   UNL     1       4.496  -7.823  27.790  0.00  0.00    +0.119 HD
ATOM     16  H   UNL     1       6.051  -7.764  27.297  0.00  0.00    +0.119 HD
ENDBRANCH  13  14
ENDBRANCH  11  13
ENDBRANCH   6   7
BRANCH   6  17
ATOM     17  C   UNL     1       6.604  -4.490  21.825  0.00  0.00    +0.313 C 
ATOM     18  O   UNL     1       5.610  -4.294  21.136  0.00  0.00    -0.250 OA
BRANCH  17  19
ATOM     19  O   UNL     1       7.398  -5.576  21.652  0.00  0.00    -0.480 OA
ATOM     20  H   UNL     1       8.205  -5.537  22.202  0.00  0.00    +0.295 HD
ENDBRANCH  17  19
ENDBRANCH   6  17
ENDBRANCH   5   6
ENDBRANCH   1   5
BRANCH   1  21
ATOM     21  C   UNL     1       8.154  -0.556  23.506  0.00  0.00    +0.165 C 
BRANCH  21  22
ATOM     22  N   UNL     1       8.221   0.928  23.444  0.00  0.00    -0.269 N 
ATOM     23  H   UNL     1       7.986   1.465  24.266  0.00  0.00    +0.153 HD
ATOM     24  C   UNL     1       8.341   1.647  22.287  0.00  0.00    +0.401 C 
ATOM     25  O   UNL     1       8.634   1.159  21.206  0.00  0.00    -0.226 OA
BRANCH  24  26
ATOM     26  O   UNL     1       8.071   2.953  22.530  0.00  0.00    -0.446 OA
BRANCH  26  27
ATOM     27  C   UNL     1       8.468   3.461  23.814  0.00  0.00    +0.269 C 
BRANCH  27  28
ATOM     28  C   UNL     1       9.736   4.288  23.769  0.00  0.00    -0.010 A 
ATOM     29  C   UNL     1      10.933   3.724  23.305  0.00  0.00    +0.007 A 
ATOM     30  C   UNL     1      12.133   4.447  23.359  0.00  0.00    +0.000 A 
ATOM     31  C   UNL     1      12.147   5.744  23.864  0.00  0.00    +0.000 A 
ATOM     32  C   UNL     1      10.960   6.325  24.308  0.00  0.00    +0.000 A 
ATOM     33  C   UNL     1       9.762   5.603  24.256  0.00  0.00    +0.007 A 
ENDBRANCH  27  28
ENDBRANCH  26  27
ENDBRANCH  24  26
ENDBRANCH  21  22
BRANCH  21  34
ATOM     34  C   UNL     1       9.547  -1.094  23.944  0.00  0.00    +0.013 C 
ATOM     35  C   UNL     1      10.406  -0.091  24.720  0.00  0.00    +0.009 C 
ATOM     36  C   UNL     1      10.349  -1.598  22.731  0.00  0.00    +0.009 C 
ENDBRANCH  21  34
ENDBRANCH   1  21
TORSDOF 14
ENDMDL
