MODEL 1
REMARK VINA RESULT:      -5.0      0.000      0.000
REMARK  Name = 
REMARK  4 active torsions:
REMARK  status: ('A' for Active; 'I' for Inactive)
REMARK    1  A    between atoms: C_2  and  N_3
REMARK    2  A    between atoms: C_2  and  C_4
REMARK    3  A    between atoms: C_2  and  C_11
REMARK    4  A    between atoms: C_4  and  C_5
REMARK                            x       y       z     vdW  Elec       q    Type
REMARK                         _______ _______ _______ _____ _____    ______ ____
ROOT
ATOM      1  C   UNL     1       9.124  -4.544  25.522  0.00  0.00    +0.142 C 
ENDROOT
BRANCH   1   2
ATOM      2  C   UNL     1       7.841  -5.266  25.979  0.00  0.00    +0.228 C 
ATOM      3  O   UNL     1       6.791  -5.235  25.344  0.00  0.00    -0.274 OA
ATOM      4  N   UNL     1       7.895  -5.895  27.192  0.00  0.00    -0.328 N 
ATOM      5  H   UNL     1       7.080  -6.441  27.442  0.00  0.00    +0.145 HD
ATOM      6  H   UNL     1       8.771  -6.140  27.630  0.00  0.00    +0.145 HD
ENDBRANCH   1   2
BRANCH   1   7
ATOM      7  N   UNL     1      10.204  -5.547  25.347  0.00  0.00    -0.320 NA
ATOM      8  H   UNL     1       9.905  -6.406  25.814  0.00  0.00    +0.119 HD
ATOM      9  H   UNL     1      10.275  -5.792  24.361  0.00  0.00    +0.119 HD
ENDBRANCH   1   7
BRANCH   1  10
ATOM     10  C   UNL     1       8.913  -3.735  24.228  0.00  0.00    +0.063 C 
BRANCH  10  11
ATOM     11  C   UNL     1       9.348  -2.283  24.282  0.00  0.00    -0.045 A 
ATOM     12  C   UNL     1       8.977  -1.491  25.379  0.00  0.00    +0.004 A 
ATOM     13  C   UNL     1       9.364  -0.150  25.454  0.00  0.00    +0.000 A 
ATOM     14  C   UNL     1      10.117   0.419  24.431  0.00  0.00    +0.000 A 
ATOM     15  C   UNL     1      10.467  -0.348  23.324  0.00  0.00    +0.000 A 
ATOM     16  C   UNL     1      10.076  -1.684  23.243  0.00  0.00    +0.004 A 
ENDBRANCH  10  11
ENDBRANCH   1  10
TORSDOF 4
ENDMDL
MODEL 2
REMARK VINA RESULT:      -5.0      2.373      3.188
REMARK  Name = 
REMARK  4 active torsions:
REMARK  status: ('A' for Active; 'I' for Inactive)
REMARK    1  A    between atoms: C_2  and  N_3
REMARK    2  A    between atoms: C_2  and  C_4
REMARK    3  A    between atoms: C_2  and  C_11
REMARK    4  A    between atoms: C_4  and  C_5
REMARK                            x       y       z     vdW  Elec       q    Type
REMARK                         _______ _______ _______ _____ _____    ______ ____
ROOT
ATOM      1  C   UNL     1       9.241  -2.664  23.795  0.00  0.00    +0.142 C 
ENDROOT
BRANCH   1   2
ATOM      2  C   UNL     1       8.014  -3.124  22.982  0.00  0.00    +0.228 C 
ATOM      3  O   UNL     1       7.351  -2.366  22.281  0.00  0.00    -0.274 OA
ATOM      4  N   UNL     1       7.634  -4.429  23.138  0.00  0.00    -0.328 N 
ATOM      5  H   UNL     1       6.886  -4.745  22.535  0.00  0.00    +0.145 HD
ATOM      6  H   UNL     1       8.261  -5.129  23.509  0.00  0.00    +0.145 HD
ENDBRANCH   1   2
BRANCH   1   7
ATOM      7  N   UNL     1       9.842  -3.843  24.467  0.00  0.00    -0.320 NA
ATOM      8  H   UNL     1       9.294  -4.663  24.198  0.00  0.00    +0.119 HD
ATOM      9  H   UNL     1      10.771  -4.008  24.084  0.00  0.00    +0.119 HD
ENDBRANCH   1   7
BRANCH   1  10
ATOM     10  C   UNL     1      10.283  -1.939  22.924  0.00  0.00    +0.063 C 
BRANCH  10  11
ATOM     11  C   UNL     1      10.236  -0.424  22.966  0.00  0.00    -0.045 A 
ATOM     12  C   UNL     1       9.796   0.285  21.839  0.00  0.00    +0.004 A 
ATOM     13  C   UNL     1       9.743   1.682  21.850  0.00  0.00    +0.000 A 
ATOM     14  C   UNL     1      10.139   2.387  22.982  0.00  0.00    +0.000 A 
ATOM     15  C   UNL     1      10.606   1.697  24.097  0.00  0.00    +0.000 A 
ATOM     16  C   UNL     1      10.667   0.304  24.085  0.00  0.00    +0.004 A 
ENDBRANCH  10  11
ENDBRANCH   1  10
TORSDOF 4
ENDMDL
MODEL 3
REMARK VINA RESULT:      -5.0      4.833      6.402
REMARK  Name = 
REMARK  4 active torsions:
REMARK  status: ('A' for Active; 'I' for Inactive)
REMARK    1  A    between atoms: C_2  and  N_3
REMARK    2  A    between atoms: C_2  and  C_4
REMARK    3  A    between atoms: C_2  and  C_11
REMARK    4  A    between atoms: C_4  and  C_5
REMARK                            x       y       z     vdW  Elec       q    Type
REMARK                         _______ _______ _______ _____ _____    ______ ____
ROOT
ATOM      1  C   UNL     1      10.090   1.226  22.215  0.00  0.00    +0.142 C 
ENDROOT
BRANCH   1   2
ATOM      2  C   UNL     1       9.840  -0.295  22.218  0.00  0.00    +0.228 C 
ATOM      3  O   UNL     1       9.950  -0.992  23.223  0.00  0.00    -0.274 OA
ATOM      4  N   UNL     1       9.560  -0.869  21.009  0.00  0.00    -0.328 N 
ATOM      5  H   UNL     1       9.309  -1.849  21.034  0.00  0.00    +0.145 HD
ATOM      6  H   UNL     1       9.239  -0.326  20.220  0.00  0.00    +0.145 HD
ENDBRANCH   1   2
BRANCH   1   7
ATOM      7  N   UNL     1       9.088   1.876  21.333  0.00  0.00    -0.320 NA
ATOM      8  H   UNL     1       8.192   1.865  21.825  0.00  0.00    +0.119 HD
ATOM      9  H   UNL     1       9.323   2.862  21.232  0.00  0.00    +0.119 HD
ENDBRANCH   1   7
BRANCH   1  10
ATOM     10  C   UNL     1      10.048   1.831  23.631  0.00  0.00    +0.063 C 
BRANCH  10  11
ATOM     11  C   UNL     1      10.301   3.323  23.716  0.00  0.00    -0.045 A 
ATOM     12  C   UNL     1       9.264   4.178  24.121  0.00  0.00    +0.004 A 
ATOM     13  C   UNL     1       9.470   5.558  24.208  0.00  0.00    +0.000 A 
ATOM     14  C   UNL     1      10.708   6.102  23.882  0.00  0.00    +0.000 A 
ATOM     15  C   UNL     1      11.736   5.269  23.451  0.00  0.00    +0.000 A 
ATOM     16  C   UNL     1      11.531   3.892  23.356  0.00  0.00    +0.004 A 
ENDBRANCH  10  11
ENDBRANCH   1  10
TORSDOF 4
ENDMDL
MODEL 4
REMARK VINA RESULT:      -4.8      4.203      5.570
REMARK  Name = 
REMARK  4 active torsions:
REMARK  status: ('A' for Active; 'I' for Inactive)
REMARK    1  A    between atoms: C_2  and  N_3
REMARK    2  A    between atoms: C_2  and  C_4
REMARK    3  A    between atoms: C_2  and  C_11
REMARK    4  A    between atoms: C_4  and  C_5
REMARK                            x       y       z     vdW  Elec       q    Type
REMARK                         _______ _______ _______ _____ _____    ______ ____
ROOT
ATOM      1  C   UNL     1       9.585   0.902  22.624  0.00  0.00    +0.142 C 
ENDROOT
BRANCH   1   2
ATOM      2  C   UNL     1      10.149   1.317  23.997  0.00  0.00    +0.228 C 
ATOM      3  O   UNL     1      11.228   0.921  24.427  0.00  0.00    -0.274 OA
ATOM      4  N   UNL     1       9.343   2.103  24.774  0.00  0.00    -0.328 N 
ATOM      5  H   UNL     1       9.756   2.445  25.633  0.00  0.00    +0.145 HD
ATOM      6  H   UNL     1       8.574   2.630  24.386  0.00  0.00    +0.145 HD
ENDBRANCH   1   2
BRANCH   1   7
ATOM      7  N   UNL     1       9.913   1.955  21.630  0.00  0.00    -0.320 NA
ATOM      8  H   UNL     1       9.176   1.951  20.922  0.00  0.00    +0.119 HD
ATOM      9  H   UNL     1       9.846   2.868  22.078  0.00  0.00    +0.119 HD
ENDBRANCH   1   7
BRANCH   1  10
ATOM     10  C   UNL     1      10.113  -0.469  22.163  0.00  0.00    +0.063 C 
BRANCH  10  11
ATOM     11  C   UNL     1       9.395  -1.676  22.735  0.00  0.00    -0.045 A 
ATOM     12  C   UNL     1       9.953  -2.358  23.827  0.00  0.00    +0.004 A 
ATOM     13  C   UNL     1       9.312  -3.474  24.374  0.00  0.00    +0.000 A 
ATOM     14  C   UNL     1       8.115  -3.929  23.830  0.00  0.00    +0.000 A 
ATOM     15  C   UNL     1       7.566  -3.280  22.728  0.00  0.00    +0.000 A 
ATOM     16  C   UNL     1       8.207  -2.171  22.176  0.00  0.00    +0.004 A 
ENDBRANCH  10  11
ENDBRANCH   1  10
TORSDOF 4
ENDMDL
MODEL 5
REMARK VINA RESULT:      -4.7      2.517      4.201
REMARK  Name = 
REMARK  4 active torsions:
REMARK  status: ('A' for Active; 'I' for Inactive)
REMARK    1  A    between atoms: C_2  and  N_3
REMARK    2  A    between atoms: C_2  and  C_4
REMARK    3  A    between atoms: C_2  and  C_11
REMARK    4  A    between atoms: C_4  and  C_5
REMARK                            x       y       z     vdW  Elec       q    Type
REMARK                         _______ _______ _______ _____ _____    ______ ____
ROOT
ATOM      1  C   UNL     1       9.286  -4.531  25.485  0.00  0.00    +0.142 C 
ENDROOT
BRANCH   1   2
ATOM      2  C   UNL     1       8.204  -4.721  26.567  0.00  0.00    +0.228 C 
ATOM      3  O   UNL     1       7.634  -3.784  27.118  0.00  0.00    -0.274 OA
ATOM      4  N   UNL     1       7.951  -6.008  26.957  0.00  0.00    -0.328 N 
ATOM      5  H   UNL     1       7.179  -6.130  27.599  0.00  0.00    +0.145 HD
ATOM      6  H   UNL     1       8.216  -6.801  26.390  0.00  0.00    +0.145 HD
ENDBRANCH   1   2
BRANCH   1   7
ATOM      7  N   UNL     1       9.874  -5.854  25.155  0.00  0.00    -0.320 NA
ATOM      8  H   UNL     1      10.808  -5.689  24.773  0.00  0.00    +0.119 HD
ATOM      9  H   UNL     1      10.028  -6.375  26.017  0.00  0.00    +0.119 HD
ENDBRANCH   1   7
BRANCH   1  10
ATOM     10  C   UNL     1       8.737  -3.845  24.221  0.00  0.00    +0.063 C 
BRANCH  10  11
ATOM     11  C   UNL     1       7.515  -4.492  23.599  0.00  0.00    -0.045 A 
ATOM     12  C   UNL     1       6.239  -3.997  23.907  0.00  0.00    +0.004 A 
ATOM     13  C   UNL     1       5.095  -4.575  23.348  0.00  0.00    +0.000 A 
ATOM     14  C   UNL     1       5.212  -5.660  22.485  0.00  0.00    +0.000 A 
ATOM     15  C   UNL     1       6.469  -6.180  22.195  0.00  0.00    +0.000 A 
ATOM     16  C   UNL     1       7.612  -5.610  22.757  0.00  0.00    +0.004 A 
ENDBRANCH  10  11
ENDBRANCH   1  10
TORSDOF 4
ENDMDL
MODEL 6
REMARK VINA RESULT:      -4.7      2.083      2.916
REMARK  Name = 
REMARK  4 active torsions:
REMARK  status: ('A' for Active; 'I' for Inactive)
REMARK    1  A    between atoms: C_2  and  N_3
REMARK    2  A    between atoms: C_2  and  C_4
REMARK    3  A    between atoms: C_2  and  C_11
REMARK    4  A    between atoms: C_4  and  C_5
REMARK                            x       y       z     vdW  Elec       q    Type
REMARK                         _______ _______ _______ _____ _____    ______ ____
ROOT
ATOM      1  C   UNL     1       8.703  -2.747  23.920  0.00  0.00    +0.142 C 
ENDROOT
BRANCH   1   2
ATOM      2  C   UNL     1       8.769  -4.259  24.215  0.00  0.00    +0.228 C 
ATOM      3  O   UNL     1       9.729  -4.795  24.762  0.00  0.00    -0.274 OA
ATOM      4  N   UNL     1       7.723  -5.014  23.763  0.00  0.00    -0.328 N 
ATOM      5  H   UNL     1       7.730  -5.988  24.039  0.00  0.00    +0.145 HD
ATOM      6  H   UNL     1       6.831  -4.605  23.523  0.00  0.00    +0.145 HD
ENDBRANCH   1   2
BRANCH   1   7
ATOM      7  N   UNL     1       7.981  -2.072  25.027  0.00  0.00    -0.320 NA
ATOM      8  H   UNL     1       8.167  -2.599  25.883  0.00  0.00    +0.119 HD
ATOM      9  H   UNL     1       8.395  -1.155  25.185  0.00  0.00    +0.119 HD
ENDBRANCH   1   7
BRANCH   1  10
ATOM     10  C   UNL     1      10.099  -2.127  23.718  0.00  0.00    +0.063 C 
BRANCH  10  11
ATOM     11  C   UNL     1      10.119  -0.648  23.385  0.00  0.00    -0.045 A 
ATOM     12  C   UNL     1       9.735  -0.224  22.104  0.00  0.00    +0.004 A 
ATOM     13  C   UNL     1       9.744   1.134  21.769  0.00  0.00    +0.000 A 
ATOM     14  C   UNL     1      10.148   2.081  22.705  0.00  0.00    +0.000 A 
ATOM     15  C   UNL     1      10.561   1.671  23.969  0.00  0.00    +0.000 A 
ATOM     16  C   UNL     1      10.559   0.317  24.303  0.00  0.00    +0.004 A 
ENDBRANCH  10  11
ENDBRANCH   1  10
TORSDOF 4
ENDMDL
MODEL 7
REMARK VINA RESULT:      -4.7      3.888      5.591
REMARK  Name = 
REMARK  4 active torsions:
REMARK  status: ('A' for Active; 'I' for Inactive)
REMARK    1  A    between atoms: C_2  and  N_3
REMARK    2  A    between atoms: C_2  and  C_4
REMARK    3  A    between atoms: C_2  and  C_11
REMARK    4  A    between atoms: C_4  and  C_5
REMARK                            x       y       z     vdW  Elec       q    Type
REMARK                         _______ _______ _______ _____ _____    ______ ____
ROOT
ATOM      1  C   UNL     1       9.206  -0.390  21.750  0.00  0.00    +0.142 C 
ENDROOT
BRANCH   1   2
ATOM      2  C   UNL     1       9.986   0.822  22.300  0.00  0.00    +0.228 C 
ATOM      3  O   UNL     1      10.596   0.799  23.365  0.00  0.00    -0.274 OA
ATOM      4  N   UNL     1       9.905   1.979  21.575  0.00  0.00    -0.328 N 
ATOM      5  H   UNL     1      10.490   2.740  21.894  0.00  0.00    +0.145 HD
ATOM      6  H   UNL     1       9.619   1.985  20.606  0.00  0.00    +0.145 HD
ENDBRANCH   1   2
BRANCH   1   7
ATOM      7  N   UNL     1      10.161  -1.495  21.482  0.00  0.00    -0.320 NA
ATOM      8  H   UNL     1       9.679  -2.374  21.682  0.00  0.00    +0.119 HD
ATOM      9  H   UNL     1      10.365  -1.525  20.484  0.00  0.00    +0.119 HD
ENDBRANCH   1   7
BRANCH   1  10
ATOM     10  C   UNL     1       8.089  -0.851  22.704  0.00  0.00    +0.063 C 
BRANCH  10  11
ATOM     11  C   UNL     1       8.233  -2.256  23.255  0.00  0.00    -0.045 A 
ATOM     12  C   UNL     1       7.492  -3.302  22.685  0.00  0.00    +0.004 A 
ATOM     13  C   UNL     1       7.606  -4.607  23.173  0.00  0.00    +0.000 A 
ATOM     14  C   UNL     1       8.452  -4.881  24.244  0.00  0.00    +0.000 A 
ATOM     15  C   UNL     1       9.171  -3.847  24.838  0.00  0.00    +0.000 A 
ATOM     16  C   UNL     1       9.053  -2.543  24.357  0.00  0.00    +0.004 A 
ENDBRANCH  10  11
ENDBRANCH   1  10
TORSDOF 4
ENDMDL
MODEL 8
REMARK VINA RESULT:      -4.4      2.828      4.214
REMARK  Name = 
REMARK  4 active torsions:
REMARK  status: ('A' for Active; 'I' for Inactive)
REMARK    1  A    between atoms: C_2  and  N_3
REMARK    2  A    between atoms: C_2  and  C_4
REMARK    3  A    between atoms: C_2  and  C_11
REMARK    4  A    between atoms: C_4  and  C_5
REMARK                            x       y       z     vdW  Elec       q    Type
REMARK                         _______ _______ _______ _____ _____    ______ ____
ROOT
ATOM      1  C   UNL     1       8.975  -1.293  24.725  0.00  0.00    +0.142 C 
ENDROOT
BRANCH   1   2
ATOM      2  C   UNL     1       9.705  -2.211  23.724  0.00  0.00    +0.228 C 
ATOM      3  O   UNL     1      10.095  -3.339  24.009  0.00  0.00    -0.274 OA
ATOM      4  N   UNL     1       9.977  -1.677  22.494  0.00  0.00    -0.328 N 
ATOM      5  H   UNL     1      10.373  -2.314  21.815  0.00  0.00    +0.145 HD
ATOM      6  H   UNL     1       9.489  -0.866  22.142  0.00  0.00    +0.145 HD
ENDBRANCH   1   2
BRANCH   1   7
ATOM      7  N   UNL     1       8.412  -2.124  25.818  0.00  0.00    -0.320 NA
ATOM      8  H   UNL     1       9.166  -2.716  26.174  0.00  0.00    +0.119 HD
ATOM      9  H   UNL     1       8.157  -1.521  26.599  0.00  0.00    +0.119 HD
ENDBRANCH   1   7
BRANCH   1  10
ATOM     10  C   UNL     1       9.895  -0.194  25.291  0.00  0.00    +0.063 C 
BRANCH  10  11
ATOM     11  C   UNL     1       9.682   1.196  24.726  0.00  0.00    -0.045 A 
ATOM     12  C   UNL     1      10.678   1.777  23.926  0.00  0.00    +0.004 A 
ATOM     13  C   UNL     1      10.508   3.058  23.393  0.00  0.00    +0.000 A 
ATOM     14  C   UNL     1       9.348   3.778  23.660  0.00  0.00    +0.000 A 
ATOM     15  C   UNL     1       8.365   3.226  24.476  0.00  0.00    +0.000 A 
ATOM     16  C   UNL     1       8.535   1.951  25.016  0.00  0.00    +0.004 A 
ENDBRANCH  10  11
ENDBRANCH   1  10
TORSDOF 4
ENDMDL
MODEL 9
REMARK VINA RESULT:      -4.3      3.588      5.127
REMARK  Name = 
REMARK  4 active torsions:
REMARK  status: ('A' for Active; 'I' for Inactive)
REMARK    1  A    between atoms: C_2  and  N_3
REMARK    2  A    between atoms: C_2  and  C_4
REMARK    3  A    between atoms: C_2  and  C_11
REMARK    4  A    between atoms: C_4  and  C_5
REMARK                            x       y       z     vdW  Elec       q    Type
REMARK                         _______ _______ _______ _____ _____    ______ ____
ROOT
ATOM      1  C   UNL     1       9.472  -1.219  23.504  0.00  0.00    +0.142 C 
ENDROOT
BRANCH   1   2
ATOM      2  C   UNL     1      10.120  -0.194  24.457  0.00  0.00    +0.228 C 
ATOM      3  O   UNL     1      11.089   0.493  24.146  0.00  0.00    -0.274 OA
ATOM      4  N   UNL     1       9.610  -0.133  25.724  0.00  0.00    -0.328 N 
ATOM      5  H   UNL     1       9.979   0.603  26.313  0.00  0.00    +0.145 HD
ATOM      6  H   UNL     1       8.695  -0.496  25.951  0.00  0.00    +0.145 HD
ENDBRANCH   1   2
BRANCH   1   7
ATOM      7  N   UNL     1      10.521  -1.778  22.614  0.00  0.00    -0.320 NA
ATOM      8  H   UNL     1      10.428  -1.319  21.704  0.00  0.00    +0.119 HD
ATOM      9  H   UNL     1      11.437  -1.497  22.960  0.00  0.00    +0.119 HD
ENDBRANCH   1   7
BRANCH   1  10
ATOM     10  C   UNL     1       8.742  -2.343  24.262  0.00  0.00    +0.063 C 
BRANCH  10  11
ATOM     11  C   UNL     1       7.848  -3.231  23.418  0.00  0.00    -0.045 A 
ATOM     12  C   UNL     1       7.971  -4.626  23.513  0.00  0.00    +0.004 A 
ATOM     13  C   UNL     1       7.160  -5.468  22.747  0.00  0.00    +0.000 A 
ATOM     14  C   UNL     1       6.225  -4.928  21.868  0.00  0.00    +0.000 A 
ATOM     15  C   UNL     1       6.113  -3.547  21.742  0.00  0.00    +0.000 A 
ATOM     16  C   UNL     1       6.926  -2.705  22.501  0.00  0.00    +0.004 A 
ENDBRANCH  10  11
ENDBRANCH   1  10
TORSDOF 4
ENDMDL
