MODEL 1
REMARK VINA RESULT:      -6.5      0.000      0.000
REMARK  Name = 
REMARK  8 active torsions:
REMARK  status: ('A' for Active; 'I' for Inactive)
REMARK    1  A    between atoms: N_8  and  C_9
REMARK    2  A    between atoms: C_9  and  C_10
REMARK    3  A    between atoms: C_10  and  C_11
REMARK    4  A    between atoms: C_11  and  C_12
REMARK    5  A    between atoms: C_12  and  C_13
REMARK    6  A    between atoms: C_13  and  P_16
REMARK    7  A    between atoms: P_16  and  O_17
REMARK    8  A    between atoms: P_16  and  O_18
REMARK                            x       y       z     vdW  Elec       q    Type
REMARK                         _______ _______ _______ _____ _____    ______ ____
ROOT
ATOM      1  N   UNL     1      10.267  -5.512  25.739  0.00  0.00    -0.329 N 
ATOM      2  H   UNL     1      10.058  -5.870  26.662  0.00  0.00    +0.145 HD
ATOM      3  H   UNL     1      11.174  -5.058  25.687  0.00  0.00    +0.145 HD
ATOM      4  C   UNL     1       9.300  -4.789  25.123  0.00  0.00    +0.195 A 
ATOM      5  N   UNL     1       7.998  -5.158  25.394  0.00  0.00    -0.293 N 
ATOM      6  H   UNL     1       7.810  -5.954  25.978  0.00  0.00    +0.172 HD
ATOM      7  C   UNL     1       6.875  -4.544  24.854  0.00  0.00    +0.280 A 
ATOM      8  O   UNL     1       5.737  -4.919  25.121  0.00  0.00    -0.265 OA
ATOM      9  C   UNL     1       7.223  -3.448  23.976  0.00  0.00    +0.172 A 
ATOM     10  N   UNL     1       6.431  -2.593  23.258  0.00  0.00    -0.229 NA
ATOM     11  C   UNL     1       7.285  -1.807  22.633  0.00  0.00    +0.201 A 
ATOM     12  N   UNL     1       8.589  -2.121  22.919  0.00  0.00    -0.315 N 
ATOM     13  C   UNL     1       8.561  -3.178  23.786  0.00  0.00    +0.169 A 
ATOM     14  N   UNL     1       9.628  -3.802  24.334  0.00  0.00    -0.196 NA
ENDROOT
BRANCH  12  15
ATOM     15  C   UNL     1       9.788  -1.471  22.420  0.00  0.00    +0.125 C 
BRANCH  15  16
ATOM     16  C   UNL     1       9.496  -0.270  21.531  0.00  0.00    +0.022 C 
BRANCH  16  17
ATOM     17  C   UNL     1       9.996   1.062  22.102  0.00  0.00    +0.008 C 
BRANCH  17  18
ATOM     18  C   UNL     1       8.893   1.605  23.001  0.00  0.00    +0.089 C 
BRANCH  18  19
ATOM     19  C   UNL     1       9.152   1.543  24.494  0.00  0.00    +0.346 C 
ATOM     20  F   UNL     1       8.938   2.745  25.086  0.00  0.00    -0.192 F 
ATOM     21  F   UNL     1      10.403   1.143  24.802  0.00  0.00    -0.192 F 
BRANCH  19  22
ATOM     22  P   UNL     1       8.089   0.443  25.500  0.00  0.00    +0.396 P 
ATOM     23  O   UNL     1       7.190  -0.487  26.350  0.00  0.00    -0.253 OA
BRANCH  22  24
ATOM     24  O   UNL     1       7.895   1.652  26.606  0.00  0.00    -0.320 OA
ATOM     25  H   UNL     1       8.014   2.483  26.098  0.00  0.00    +0.220 HD
ENDBRANCH  22  24
BRANCH  22  26
ATOM     26  O   UNL     1       9.477  -0.199  26.144  0.00  0.00    -0.320 OA
ATOM     27  H   UNL     1       9.896  -0.860  25.557  0.00  0.00    +0.220 HD
ENDBRANCH  22  26
ENDBRANCH  19  22
ENDBRANCH  18  19
ENDBRANCH  17  18
ENDBRANCH  16  17
ENDBRANCH  15  16
ENDBRANCH  12  15
TORSDOF 8
ENDMDL
MODEL 2
REMARK VINA RESULT:      -6.4      2.620      3.495
REMARK  Name = 
REMARK  8 active torsions:
REMARK  status: ('A' for Active; 'I' for Inactive)
REMARK    1  A    between atoms: N_8  and  C_9
REMARK    2  A    between atoms: C_9  and  C_10
REMARK    3  A    between atoms: C_10  and  C_11
REMARK    4  A    between atoms: C_11  and  C_12
REMARK    5  A    between atoms: C_12  and  C_13
REMARK    6  A    between atoms: C_13  and  P_16
REMARK    7  A    between atoms: P_16  and  O_17
REMARK    8  A    between atoms: P_16  and  O_18
REMARK                            x       y       z     vdW  Elec       q    Type
REMARK                         _______ _______ _______ _____ _____    ______ ____
ROOT
ATOM      1  N   UNL     1      10.232  -5.668  25.553  0.00  0.00    -0.329 N 
ATOM      2  H   UNL     1      10.823  -5.497  26.355  0.00  0.00    +0.145 HD
ATOM      3  H   UNL     1      10.612  -5.286  24.693  0.00  0.00    +0.145 HD
ATOM      4  C   UNL     1       8.910  -5.397  25.691  0.00  0.00    +0.195 A 
ATOM      5  N   UNL     1       8.374  -5.603  26.945  0.00  0.00    -0.293 N 
ATOM      6  H   UNL     1       8.944  -5.982  27.681  0.00  0.00    +0.172 HD
ATOM      7  C   UNL     1       7.042  -5.389  27.279  0.00  0.00    +0.280 A 
ATOM      8  O   UNL     1       6.615  -5.599  28.411  0.00  0.00    -0.265 OA
ATOM      9  C   UNL     1       6.271  -4.905  26.156  0.00  0.00    +0.172 A 
ATOM     10  N   UNL     1       4.947  -4.570  26.060  0.00  0.00    -0.229 NA
ATOM     11  C   UNL     1       4.794  -4.205  24.802  0.00  0.00    +0.201 A 
ATOM     12  N   UNL     1       5.962  -4.291  24.089  0.00  0.00    -0.315 N 
ATOM     13  C   UNL     1       6.922  -4.740  24.952  0.00  0.00    +0.169 A 
ATOM     14  N   UNL     1       8.226  -4.959  24.668  0.00  0.00    -0.196 NA
ENDROOT
BRANCH  12  15
ATOM     15  C   UNL     1       6.172  -3.967  22.689  0.00  0.00    +0.125 C 
BRANCH  15  16
ATOM     16  C   UNL     1       6.598  -2.523  22.463  0.00  0.00    +0.022 C 
BRANCH  16  17
ATOM     17  C   UNL     1       8.108  -2.344  22.267  0.00  0.00    +0.008 C 
BRANCH  17  18
ATOM     18  C   UNL     1       8.503  -1.064  22.994  0.00  0.00    +0.089 C 
BRANCH  18  19
ATOM     19  C   UNL     1       9.239  -0.025  22.172  0.00  0.00    +0.346 C 
ATOM     20  F   UNL     1       9.305  -0.380  20.864  0.00  0.00    -0.192 F 
ATOM     21  F   UNL     1      10.496   0.206  22.605  0.00  0.00    -0.192 F 
BRANCH  19  22
ATOM     22  P   UNL     1       8.509   1.650  22.061  0.00  0.00    +0.396 P 
ATOM     23  O   UNL     1       7.890   3.066  21.967  0.00  0.00    -0.253 OA
BRANCH  22  24
ATOM     24  O   UNL     1       9.925   2.221  21.436  0.00  0.00    -0.320 OA
ATOM     25  H   UNL     1      10.563   2.188  22.181  0.00  0.00    +0.220 HD
ENDBRANCH  22  24
BRANCH  22  26
ATOM     26  O   UNL     1       8.897   1.854  23.661  0.00  0.00    -0.320 OA
ATOM     27  H   UNL     1       8.326   1.332  24.259  0.00  0.00    +0.220 HD
ENDBRANCH  22  26
ENDBRANCH  19  22
ENDBRANCH  18  19
ENDBRANCH  17  18
ENDBRANCH  16  17
ENDBRANCH  15  16
ENDBRANCH  12  15
TORSDOF 8
ENDMDL
MODEL 3
REMARK VINA RESULT:      -6.4      2.448      3.585
REMARK  Name = 
REMARK  8 active torsions:
REMARK  status: ('A' for Active; 'I' for Inactive)
REMARK    1  A    between atoms: N_8  and  C_9
REMARK    2  A    between atoms: C_9  and  C_10
REMARK    3  A    between atoms: C_10  and  C_11
REMARK    4  A    between atoms: C_11  and  C_12
REMARK    5  A    between atoms: C_12  and  C_13
REMARK    6  A    between atoms: C_13  and  P_16
REMARK    7  A    between atoms: P_16  and  O_17
REMARK    8  A    between atoms: P_16  and  O_18
REMARK                            x       y       z     vdW  Elec       q    Type
REMARK                         _______ _______ _______ _____ _____    ______ ____
ROOT
ATOM      1  N   UNL     1      10.219  -5.423  25.516  0.00  0.00    -0.329 N 
ATOM      2  H   UNL     1      10.787  -5.095  26.285  0.00  0.00    +0.145 HD
ATOM      3  H   UNL     1      10.515  -5.054  24.618  0.00  0.00    +0.145 HD
ATOM      4  C   UNL     1       8.873  -5.362  25.672  0.00  0.00    +0.195 A 
ATOM      5  N   UNL     1       8.400  -5.553  26.954  0.00  0.00    -0.293 N 
ATOM      6  H   UNL     1       9.037  -5.773  27.699  0.00  0.00    +0.172 HD
ATOM      7  C   UNL     1       7.057  -5.534  27.310  0.00  0.00    +0.280 A 
ATOM      8  O   UNL     1       6.689  -5.720  28.467  0.00  0.00    -0.265 OA
ATOM      9  C   UNL     1       6.197  -5.273  26.177  0.00  0.00    +0.172 A 
ATOM     10  N   UNL     1       4.834  -5.168  26.096  0.00  0.00    -0.229 NA
ATOM     11  C   UNL     1       4.602  -4.934  24.819  0.00  0.00    +0.201 A 
ATOM     12  N   UNL     1       5.756  -4.884  24.080  0.00  0.00    -0.315 N 
ATOM     13  C   UNL     1       6.792  -5.100  24.946  0.00  0.00    +0.169 A 
ATOM     14  N   UNL     1       8.109  -5.125  24.640  0.00  0.00    -0.196 NA
ENDROOT
BRANCH  12  15
ATOM     15  C   UNL     1       5.885  -4.642  22.654  0.00  0.00    +0.125 C 
BRANCH  15  16
ATOM     16  C   UNL     1       5.518  -3.221  22.248  0.00  0.00    +0.022 C 
BRANCH  16  17
ATOM     17  C   UNL     1       6.469  -2.152  22.798  0.00  0.00    +0.008 C 
BRANCH  17  18
ATOM     18  C   UNL     1       7.845  -2.433  22.206  0.00  0.00    +0.089 C 
BRANCH  18  19
ATOM     19  C   UNL     1       8.887  -1.346  22.383  0.00  0.00    +0.346 C 
ATOM     20  F   UNL     1       8.473  -0.168  21.851  0.00  0.00    -0.192 F 
ATOM     21  F   UNL     1      10.080  -1.655  21.835  0.00  0.00    -0.192 F 
BRANCH  19  22
ATOM     22  P   UNL     1       9.315  -0.847  24.091  0.00  0.00    +0.396 P 
ATOM     23  O   UNL     1       9.677  -0.424  25.536  0.00  0.00    -0.253 OA
BRANCH  22  24
ATOM     24  O   UNL     1      10.759  -0.257  23.551  0.00  0.00    -0.320 OA
ATOM     25  H   UNL     1      10.843  -0.594  22.633  0.00  0.00    +0.220 HD
ENDBRANCH  22  24
BRANCH  22  26
ATOM     26  O   UNL     1       9.819  -2.406  24.351  0.00  0.00    -0.320 OA
ATOM     27  H   UNL     1      10.787  -2.512  24.255  0.00  0.00    +0.220 HD
ENDBRANCH  22  26
ENDBRANCH  19  22
ENDBRANCH  18  19
ENDBRANCH  17  18
ENDBRANCH  16  17
ENDBRANCH  15  16
ENDBRANCH  12  15
TORSDOF 8
ENDMDL
MODEL 4
REMARK VINA RESULT:      -6.4      3.634      5.812
REMARK  Name = 
REMARK  8 active torsions:
REMARK  status: ('A' for Active; 'I' for Inactive)
REMARK    1  A    between atoms: N_8  and  C_9
REMARK    2  A    between atoms: C_9  and  C_10
REMARK    3  A    between atoms: C_10  and  C_11
REMARK    4  A    between atoms: C_11  and  C_12
REMARK    5  A    between atoms: C_12  and  C_13
REMARK    6  A    between atoms: C_13  and  P_16
REMARK    7  A    between atoms: P_16  and  O_17
REMARK    8  A    between atoms: P_16  and  O_18
REMARK                            x       y       z     vdW  Elec       q    Type
REMARK                         _______ _______ _______ _____ _____    ______ ____
ROOT
ATOM      1  N   UNL     1       9.069  -0.535  27.156  0.00  0.00    -0.329 N 
ATOM      2  H   UNL     1       9.801  -0.220  27.778  0.00  0.00    +0.145 HD
ATOM      3  H   UNL     1       8.732  -1.466  27.381  0.00  0.00    +0.145 HD
ATOM      4  C   UNL     1       9.278  -0.378  25.826  0.00  0.00    +0.195 A 
ATOM      5  N   UNL     1      10.012   0.729  25.452  0.00  0.00    -0.293 N 
ATOM      6  H   UNL     1      10.317   1.390  26.145  0.00  0.00    +0.172 HD
ATOM      7  C   UNL     1      10.324   1.064  24.140  0.00  0.00    +0.280 A 
ATOM      8  O   UNL     1      10.973   2.068  23.862  0.00  0.00    -0.265 OA
ATOM      9  C   UNL     1       9.800   0.102  23.195  0.00  0.00    +0.172 A 
ATOM     10  N   UNL     1       9.885   0.055  21.829  0.00  0.00    -0.229 NA
ATOM     11  C   UNL     1       9.218  -1.033  21.499  0.00  0.00    +0.201 A 
ATOM     12  N   UNL     1       8.711  -1.686  22.594  0.00  0.00    -0.315 N 
ATOM     13  C   UNL     1       9.082  -0.963  23.694  0.00  0.00    +0.169 A 
ATOM     14  N   UNL     1       8.801  -1.254  24.984  0.00  0.00    -0.196 NA
ENDROOT
BRANCH  12  15
ATOM     15  C   UNL     1       7.934  -2.912  22.613  0.00  0.00    +0.125 C 
BRANCH  15  16
ATOM     16  C   UNL     1       6.433  -2.677  22.514  0.00  0.00    +0.022 C 
BRANCH  16  17
ATOM     17  C   UNL     1       5.596  -3.638  23.365  0.00  0.00    +0.008 C 
BRANCH  17  18
ATOM     18  C   UNL     1       6.227  -3.672  24.751  0.00  0.00    +0.089 C 
BRANCH  18  19
ATOM     19  C   UNL     1       6.578  -5.043  25.296  0.00  0.00    +0.346 C 
ATOM     20  F   UNL     1       7.848  -5.397  24.971  0.00  0.00    -0.192 F 
ATOM     21  F   UNL     1       5.750  -6.017  24.865  0.00  0.00    -0.192 F 
BRANCH  19  22
ATOM     22  P   UNL     1       6.590  -5.262  27.113  0.00  0.00    +0.396 P 
ATOM     23  O   UNL     1       6.600  -5.446  28.650  0.00  0.00    -0.253 OA
BRANCH  22  24
ATOM     24  O   UNL     1       8.108  -5.903  27.021  0.00  0.00    -0.320 OA
ATOM     25  H   UNL     1       8.372  -6.067  27.952  0.00  0.00    +0.220 HD
ENDBRANCH  22  24
BRANCH  22  26
ATOM     26  O   UNL     1       5.759  -6.678  26.882  0.00  0.00    -0.320 OA
ATOM     27  H   UNL     1       4.877  -6.673  27.307  0.00  0.00    +0.220 HD
ENDBRANCH  22  26
ENDBRANCH  19  22
ENDBRANCH  18  19
ENDBRANCH  17  18
ENDBRANCH  16  17
ENDBRANCH  15  16
ENDBRANCH  12  15
TORSDOF 8
ENDMDL
MODEL 5
REMARK VINA RESULT:      -6.4      3.802      6.078
REMARK  Name = 
REMARK  8 active torsions:
REMARK  status: ('A' for Active; 'I' for Inactive)
REMARK    1  A    between atoms: N_8  and  C_9
REMARK    2  A    between atoms: C_9  and  C_10
REMARK    3  A    between atoms: C_10  and  C_11
REMARK    4  A    between atoms: C_11  and  C_12
REMARK    5  A    between atoms: C_12  and  C_13
REMARK    6  A    between atoms: C_13  and  P_16
REMARK    7  A    between atoms: P_16  and  O_17
REMARK    8  A    between atoms: P_16  and  O_18
REMARK                            x       y       z     vdW  Elec       q    Type
REMARK                         _______ _______ _______ _____ _____    ______ ____
ROOT
ATOM      1  N   UNL     1       9.863  -5.641  25.724  0.00  0.00    -0.329 N 
ATOM      2  H   UNL     1      10.872  -5.587  25.706  0.00  0.00    +0.145 HD
ATOM      3  H   UNL     1       9.517  -6.596  25.708  0.00  0.00    +0.145 HD
ATOM      4  C   UNL     1       9.186  -4.842  24.863  0.00  0.00    +0.195 A 
ATOM      5  N   UNL     1       9.763  -3.619  24.585  0.00  0.00    -0.293 N 
ATOM      6  H   UNL     1      10.611  -3.345  25.050  0.00  0.00    +0.172 HD
ATOM      7  C   UNL     1       9.219  -2.664  23.737  0.00  0.00    +0.280 A 
ATOM      8  O   UNL     1       9.771  -1.586  23.533  0.00  0.00    -0.265 OA
ATOM      9  C   UNL     1       7.970  -3.102  23.154  0.00  0.00    +0.172 A 
ATOM     10  N   UNL     1       7.126  -2.477  22.275  0.00  0.00    -0.229 NA
ATOM     11  C   UNL     1       6.142  -3.337  22.101  0.00  0.00    +0.201 A 
ATOM     12  N   UNL     1       6.319  -4.486  22.829  0.00  0.00    -0.315 N 
ATOM     13  C   UNL     1       7.496  -4.346  23.511  0.00  0.00    +0.169 A 
ATOM     14  N   UNL     1       8.060  -5.250  24.343  0.00  0.00    -0.196 NA
ENDROOT
BRANCH  12  15
ATOM     15  C   UNL     1       5.449  -5.646  22.879  0.00  0.00    +0.125 C 
BRANCH  15  16
ATOM     16  C   UNL     1       4.283  -5.484  23.846  0.00  0.00    +0.022 C 
BRANCH  16  17
ATOM     17  C   UNL     1       4.144  -6.634  24.850  0.00  0.00    +0.008 C 
BRANCH  17  18
ATOM     18  C   UNL     1       5.325  -6.535  25.807  0.00  0.00    +0.089 C 
BRANCH  18  19
ATOM     19  C   UNL     1       5.201  -5.516  26.923  0.00  0.00    +0.346 C 
ATOM     20  F   UNL     1       3.903  -5.296  27.255  0.00  0.00    -0.192 F 
ATOM     21  F   UNL     1       5.762  -4.325  26.625  0.00  0.00    -0.192 F 
BRANCH  19  22
ATOM     22  P   UNL     1       5.928  -5.938  28.549  0.00  0.00    +0.396 P 
ATOM     23  O   UNL     1       6.542  -6.295  29.925  0.00  0.00    -0.253 OA
BRANCH  22  24
ATOM     24  O   UNL     1       7.418  -6.044  27.849  0.00  0.00    -0.320 OA
ATOM     25  H   UNL     1       7.622  -5.133  27.547  0.00  0.00    +0.220 HD
ENDBRANCH  22  24
BRANCH  22  26
ATOM     26  O   UNL     1       5.465  -7.507  28.275  0.00  0.00    -0.320 OA
ATOM     27  H   UNL     1       5.779  -7.850  27.414  0.00  0.00    +0.220 HD
ENDBRANCH  22  26
ENDBRANCH  19  22
ENDBRANCH  18  19
ENDBRANCH  17  18
ENDBRANCH  16  17
ENDBRANCH  15  16
ENDBRANCH  12  15
TORSDOF 8
ENDMDL
MODEL 6
REMARK VINA RESULT:      -6.4      2.189      2.488
REMARK  Name = 
REMARK  8 active torsions:
REMARK  status: ('A' for Active; 'I' for Inactive)
REMARK    1  A    between atoms: N_8  and  C_9
REMARK    2  A    between atoms: C_9  and  C_10
REMARK    3  A    between atoms: C_10  and  C_11
REMARK    4  A    between atoms: C_11  and  C_12
REMARK    5  A    between atoms: C_12  and  C_13
REMARK    6  A    between atoms: C_13  and  P_16
REMARK    7  A    between atoms: P_16  and  O_17
REMARK    8  A    between atoms: P_16  and  O_18
REMARK                            x       y       z     vdW  Elec       q    Type
REMARK                         _______ _______ _______ _____ _____    ______ ____
ROOT
ATOM      1  N   UNL     1       9.906  -5.889  25.609  0.00  0.00    -0.329 N 
ATOM      2  H   UNL     1       9.789  -6.214  26.559  0.00  0.00    +0.145 HD
ATOM      3  H   UNL     1      10.832  -5.513  25.430  0.00  0.00    +0.145 HD
ATOM      4  C   UNL     1       8.929  -5.097  25.102  0.00  0.00    +0.195 A 
ATOM      5  N   UNL     1       7.647  -5.352  25.546  0.00  0.00    -0.293 N 
ATOM      6  H   UNL     1       7.473  -6.121  26.170  0.00  0.00    +0.172 HD
ATOM      7  C   UNL     1       6.517  -4.655  25.138  0.00  0.00    +0.280 A 
ATOM      8  O   UNL     1       5.397  -4.931  25.558  0.00  0.00    -0.265 OA
ATOM      9  C   UNL     1       6.836  -3.607  24.194  0.00  0.00    +0.172 A 
ATOM     10  N   UNL     1       6.030  -2.699  23.561  0.00  0.00    -0.229 NA
ATOM     11  C   UNL     1       6.856  -1.997  22.812  0.00  0.00    +0.201 A 
ATOM     12  N   UNL     1       8.157  -2.414  22.938  0.00  0.00    -0.315 N 
ATOM     13  C   UNL     1       8.156  -3.451  23.829  0.00  0.00    +0.169 A 
ATOM     14  N   UNL     1       9.231  -4.153  24.252  0.00  0.00    -0.196 NA
ENDROOT
BRANCH  12  15
ATOM     15  C   UNL     1       9.329  -1.874  22.274  0.00  0.00    +0.125 C 
BRANCH  15  16
ATOM     16  C   UNL     1      10.219  -1.052  23.197  0.00  0.00    +0.022 C 
BRANCH  16  17
ATOM     17  C   UNL     1       9.446  -0.200  24.209  0.00  0.00    +0.008 C 
BRANCH  17  18
ATOM     18  C   UNL     1      10.319   1.005  24.537  0.00  0.00    +0.089 C 
BRANCH  18  19
ATOM     19  C   UNL     1       9.899   2.326  23.922  0.00  0.00    +0.346 C 
ATOM     20  F   UNL     1      10.936   2.933  23.291  0.00  0.00    -0.192 F 
ATOM     21  F   UNL     1       9.390   3.195  24.820  0.00  0.00    -0.192 F 
BRANCH  19  22
ATOM     22  P   UNL     1       8.636   2.287  22.598  0.00  0.00    +0.396 P 
ATOM     23  O   UNL     1       7.567   2.254  21.478  0.00  0.00    -0.253 OA
BRANCH  22  24
ATOM     24  O   UNL     1       9.827   2.086  21.474  0.00  0.00    -0.320 OA
ATOM     25  H   UNL     1      10.626   1.844  21.991  0.00  0.00    +0.220 HD
ENDBRANCH  22  24
BRANCH  22  26
ATOM     26  O   UNL     1       8.657   3.946  22.619  0.00  0.00    -0.320 OA
ATOM     27  H   UNL     1       9.153   4.308  23.381  0.00  0.00    +0.220 HD
ENDBRANCH  22  26
ENDBRANCH  19  22
ENDBRANCH  18  19
ENDBRANCH  17  18
ENDBRANCH  16  17
ENDBRANCH  15  16
ENDBRANCH  12  15
TORSDOF 8
ENDMDL
MODEL 7
REMARK VINA RESULT:      -6.3      2.568      3.607
REMARK  Name = 
REMARK  8 active torsions:
REMARK  status: ('A' for Active; 'I' for Inactive)
REMARK    1  A    between atoms: N_8  and  C_9
REMARK    2  A    between atoms: C_9  and  C_10
REMARK    3  A    between atoms: C_10  and  C_11
REMARK    4  A    between atoms: C_11  and  C_12
REMARK    5  A    between atoms: C_12  and  C_13
REMARK    6  A    between atoms: C_13  and  P_16
REMARK    7  A    between atoms: P_16  and  O_17
REMARK    8  A    between atoms: P_16  and  O_18
REMARK                            x       y       z     vdW  Elec       q    Type
REMARK                         _______ _______ _______ _____ _____    ______ ____
ROOT
ATOM      1  N   UNL     1       4.927  -5.225  22.621  0.00  0.00    -0.329 N 
ATOM      2  H   UNL     1       4.423  -6.085  22.451  0.00  0.00    +0.145 HD
ATOM      3  H   UNL     1       5.404  -4.877  21.796  0.00  0.00    +0.145 HD
ATOM      4  C   UNL     1       5.716  -5.179  23.723  0.00  0.00    +0.195 A 
ATOM      5  N   UNL     1       5.279  -5.899  24.816  0.00  0.00    -0.293 N 
ATOM      6  H   UNL     1       4.396  -6.379  24.783  0.00  0.00    +0.172 HD
ATOM      7  C   UNL     1       5.945  -5.968  26.033  0.00  0.00    +0.280 A 
ATOM      8  O   UNL     1       5.505  -6.616  26.978  0.00  0.00    -0.265 OA
ATOM      9  C   UNL     1       7.173  -5.204  26.026  0.00  0.00    +0.172 A 
ATOM     10  N   UNL     1       8.112  -5.014  27.003  0.00  0.00    -0.229 NA
ATOM     11  C   UNL     1       9.007  -4.223  26.445  0.00  0.00    +0.201 A 
ATOM     12  N   UNL     1       8.682  -3.898  25.153  0.00  0.00    -0.315 N 
ATOM     13  C   UNL     1       7.501  -4.527  24.871  0.00  0.00    +0.169 A 
ATOM     14  N   UNL     1       6.823  -4.486  23.702  0.00  0.00    -0.196 NA
ENDROOT
BRANCH  12  15
ATOM     15  C   UNL     1       9.430  -3.058  24.235  0.00  0.00    +0.125 C 
BRANCH  15  16
ATOM     16  C   UNL     1       9.316  -1.572  24.548  0.00  0.00    +0.022 C 
BRANCH  16  17
ATOM     17  C   UNL     1      10.202  -0.683  23.669  0.00  0.00    +0.008 C 
BRANCH  17  18
ATOM     18  C   UNL     1      10.575   0.537  24.503  0.00  0.00    +0.089 C 
BRANCH  18  19
ATOM     19  C   UNL     1      10.060   1.873  24.005  0.00  0.00    +0.346 C 
ATOM     20  F   UNL     1      11.074   2.680  23.602  0.00  0.00    -0.192 F 
ATOM     21  F   UNL     1       9.334   2.543  24.925  0.00  0.00    -0.192 F 
BRANCH  19  22
ATOM     22  P   UNL     1       8.982   1.874  22.525  0.00  0.00    +0.396 P 
ATOM     23  O   UNL     1       8.070   1.874  21.274  0.00  0.00    -0.253 OA
BRANCH  22  24
ATOM     24  O   UNL     1      10.298   2.163  21.573  0.00  0.00    -0.320 OA
ATOM     25  H   UNL     1      10.253   3.120  21.361  0.00  0.00    +0.220 HD
ENDBRANCH  22  24
BRANCH  22  26
ATOM     26  O   UNL     1       8.627   3.458  22.865  0.00  0.00    -0.320 OA
ATOM     27  H   UNL     1       7.790   3.561  23.360  0.00  0.00    +0.220 HD
ENDBRANCH  22  26
ENDBRANCH  19  22
ENDBRANCH  18  19
ENDBRANCH  17  18
ENDBRANCH  16  17
ENDBRANCH  15  16
ENDBRANCH  12  15
TORSDOF 8
ENDMDL
MODEL 8
REMARK VINA RESULT:      -6.2      2.940      3.753
REMARK  Name = 
REMARK  8 active torsions:
REMARK  status: ('A' for Active; 'I' for Inactive)
REMARK    1  A    between atoms: N_8  and  C_9
REMARK    2  A    between atoms: C_9  and  C_10
REMARK    3  A    between atoms: C_10  and  C_11
REMARK    4  A    between atoms: C_11  and  C_12
REMARK    5  A    between atoms: C_12  and  C_13
REMARK    6  A    between atoms: C_13  and  P_16
REMARK    7  A    between atoms: P_16  and  O_17
REMARK    8  A    between atoms: P_16  and  O_18
REMARK                            x       y       z     vdW  Elec       q    Type
REMARK                         _______ _______ _______ _____ _____    ______ ____
ROOT
ATOM      1  N   UNL     1      10.009  -5.266  25.555  0.00  0.00    -0.329 N 
ATOM      2  H   UNL     1      10.598  -5.888  26.092  0.00  0.00    +0.145 HD
ATOM      3  H   UNL     1      10.516  -4.478  25.166  0.00  0.00    +0.145 HD
ATOM      4  C   UNL     1       8.835  -4.888  26.119  0.00  0.00    +0.195 A 
ATOM      5  N   UNL     1       8.221  -5.820  26.931  0.00  0.00    -0.293 N 
ATOM      6  H   UNL     1       8.621  -6.736  27.039  0.00  0.00    +0.172 HD
ATOM      7  C   UNL     1       7.014  -5.621  27.589  0.00  0.00    +0.280 A 
ATOM      8  O   UNL     1       6.507  -6.489  28.293  0.00  0.00    -0.265 OA
ATOM      9  C   UNL     1       6.469  -4.305  27.338  0.00  0.00    +0.172 A 
ATOM     10  N   UNL     1       5.319  -3.713  27.790  0.00  0.00    -0.229 NA
ATOM     11  C   UNL     1       5.328  -2.518  27.234  0.00  0.00    +0.201 A 
ATOM     12  N   UNL     1       6.433  -2.318  26.445  0.00  0.00    -0.315 N 
ATOM     13  C   UNL     1       7.177  -3.464  26.506  0.00  0.00    +0.169 A 
ATOM     14  N   UNL     1       8.354  -3.697  25.884  0.00  0.00    -0.196 NA
ENDROOT
BRANCH  12  15
ATOM     15  C   UNL     1       6.778  -1.129  25.688  0.00  0.00    +0.125 C 
BRANCH  15  16
ATOM     16  C   UNL     1       7.759  -0.217  26.411  0.00  0.00    +0.022 C 
BRANCH  16  17
ATOM     17  C   UNL     1       9.029   0.090  25.610  0.00  0.00    +0.008 C 
BRANCH  17  18
ATOM     18  C   UNL     1       8.584   0.701  24.287  0.00  0.00    +0.089 C 
BRANCH  18  19
ATOM     19  C   UNL     1       8.988  -0.049  23.032  0.00  0.00    +0.346 C 
ATOM     20  F   UNL     1       9.894   0.652  22.304  0.00  0.00    -0.192 F 
ATOM     21  F   UNL     1       7.946  -0.345  22.229  0.00  0.00    -0.192 F 
BRANCH  19  22
ATOM     22  P   UNL     1       9.844  -1.654  23.236  0.00  0.00    +0.396 P 
ATOM     23  O   UNL     1      10.568  -3.011  23.409  0.00  0.00    -0.253 OA
BRANCH  22  24
ATOM     24  O   UNL     1      10.326  -1.591  21.659  0.00  0.00    -0.320 OA
ATOM     25  H   UNL     1      11.280  -1.366  21.693  0.00  0.00    +0.220 HD
ENDBRANCH  22  24
BRANCH  22  26
ATOM     26  O   UNL     1       8.382  -2.392  22.971  0.00  0.00    -0.320 OA
ATOM     27  H   UNL     1       7.626  -1.858  23.286  0.00  0.00    +0.220 HD
ENDBRANCH  22  26
ENDBRANCH  19  22
ENDBRANCH  18  19
ENDBRANCH  17  18
ENDBRANCH  16  17
ENDBRANCH  15  16
ENDBRANCH  12  15
TORSDOF 8
ENDMDL
MODEL 9
REMARK VINA RESULT:      -6.2      2.334      2.664
REMARK  Name = 
REMARK  8 active torsions:
REMARK  status: ('A' for Active; 'I' for Inactive)
REMARK    1  A    between atoms: N_8  and  C_9
REMARK    2  A    between atoms: C_9  and  C_10
REMARK    3  A    between atoms: C_10  and  C_11
REMARK    4  A    between atoms: C_11  and  C_12
REMARK    5  A    between atoms: C_12  and  C_13
REMARK    6  A    between atoms: C_13  and  P_16
REMARK    7  A    between atoms: P_16  and  O_17
REMARK    8  A    between atoms: P_16  and  O_18
REMARK                            x       y       z     vdW  Elec       q    Type
REMARK                         _______ _______ _______ _____ _____    ______ ____
ROOT
ATOM      1  N   UNL     1      10.193  -5.725  25.725  0.00  0.00    -0.329 N 
ATOM      2  H   UNL     1       9.925  -6.152  26.601  0.00  0.00    +0.145 HD
ATOM      3  H   UNL     1      11.098  -5.266  25.768  0.00  0.00    +0.145 HD
ATOM      4  C   UNL     1       9.264  -4.960  25.101  0.00  0.00    +0.195 A 
ATOM      5  N   UNL     1       7.950  -5.352  25.254  0.00  0.00    -0.293 N 
ATOM      6  H   UNL     1       7.730  -6.191  25.763  0.00  0.00    +0.172 HD
ATOM      7  C   UNL     1       6.860  -4.702  24.687  0.00  0.00    +0.280 A 
ATOM      8  O   UNL     1       5.710  -5.101  24.848  0.00  0.00    -0.265 OA
ATOM      9  C   UNL     1       7.258  -3.543  23.920  0.00  0.00    +0.172 A 
ATOM     10  N   UNL     1       6.509  -2.638  23.216  0.00  0.00    -0.229 NA
ATOM     11  C   UNL     1       7.397  -1.805  22.711  0.00  0.00    +0.201 A 
ATOM     12  N   UNL     1       8.681  -2.136  23.060  0.00  0.00    -0.315 N 
ATOM     13  C   UNL     1       8.604  -3.255  23.842  0.00  0.00    +0.169 A 
ATOM     14  N   UNL     1       9.637  -3.916  24.412  0.00  0.00    -0.196 NA
ENDROOT
BRANCH  12  15
ATOM     15  C   UNL     1       9.905  -1.447  22.694  0.00  0.00    +0.125 C 
BRANCH  15  16
ATOM     16  C   UNL     1       9.715  -0.436  21.570  0.00  0.00    +0.022 C 
BRANCH  16  17
ATOM     17  C   UNL     1       9.904   1.021  22.007  0.00  0.00    +0.008 C 
BRANCH  17  18
ATOM     18  C   UNL     1       8.660   1.783  21.567  0.00  0.00    +0.089 C 
BRANCH  18  19
ATOM     19  C   UNL     1       7.549   1.902  22.591  0.00  0.00    +0.346 C 
ATOM     20  F   UNL     1       7.899   1.337  23.774  0.00  0.00    -0.192 F 
ATOM     21  F   UNL     1       6.388   1.344  22.189  0.00  0.00    -0.192 F 
BRANCH  19  22
ATOM     22  P   UNL     1       7.054   3.583  23.122  0.00  0.00    +0.396 P 
ATOM     23  O   UNL     1       6.637   5.005  23.571  0.00  0.00    -0.253 OA
BRANCH  22  24
ATOM     24  O   UNL     1       6.084   3.711  21.793  0.00  0.00    -0.320 OA
ATOM     25  H   UNL     1       6.533   3.184  21.098  0.00  0.00    +0.220 HD
ENDBRANCH  22  24
BRANCH  22  26
ATOM     26  O   UNL     1       8.444   4.145  22.411  0.00  0.00    -0.320 OA
ATOM     27  H   UNL     1       8.705   5.030  22.736  0.00  0.00    +0.220 HD
ENDBRANCH  22  26
ENDBRANCH  19  22
ENDBRANCH  18  19
ENDBRANCH  17  18
ENDBRANCH  16  17
ENDBRANCH  15  16
ENDBRANCH  12  15
TORSDOF 8
ENDMDL
