MODEL 1
REMARK VINA RESULT:      -6.0      0.000      0.000
REMARK  Name = 
REMARK  3 active torsions:
REMARK  status: ('A' for Active; 'I' for Inactive)
REMARK    1  A    between atoms: O_1  and  C_2
REMARK    2  A    between atoms: C_6  and  C_9
REMARK    3  A    between atoms: C_7  and  O_8
REMARK                            x       y       z     vdW  Elec       q    Type
REMARK                         _______ _______ _______ _____ _____    ______ ____
ROOT
ATOM      1  C   UNL     1       9.777  -0.028  22.247  0.00  0.00    +0.159 A 
ATOM      2  C   UNL     1       9.579   1.365  22.299  0.00  0.00    +0.166 A 
ATOM      3  C   UNL     1       9.767   2.096  23.498  0.00  0.00    +0.030 A 
ATOM      4  C   UNL     1      10.265   1.350  24.591  0.00  0.00    +0.012 A 
ATOM      5  C   UNL     1      10.568  -0.017  24.500  0.00  0.00    +0.004 A 
ATOM      6  C   UNL     1      10.292  -0.717  23.334  0.00  0.00    +0.049 A 
ENDROOT
BRANCH   3   7
ATOM      7  C   UNL     1       9.454   3.562  23.662  0.00  0.00    +0.022 A 
ATOM      8  C   UNL     1       8.128   4.024  23.887  0.00  0.00    +0.050 A 
ATOM      9 CL   UNL     1       6.786   2.968  24.186  0.00  0.00    -0.083 Cl
ATOM     10  C   UNL     1       7.809   5.398  23.940  0.00  0.00    +0.021 A 
ATOM     11  C   UNL     1       8.806   6.357  23.858  0.00  0.00    +0.003 A 
ATOM     12  C   UNL     1      10.124   5.947  23.723  0.00  0.00    +0.021 A 
ATOM     13  C   UNL     1      10.445   4.580  23.600  0.00  0.00    +0.050 A 
ATOM     14 CL   UNL     1      12.136   4.263  23.360  0.00  0.00    -0.083 Cl
ENDBRANCH   3   7
BRANCH   1  15
ATOM     15  O   UNL     1       9.443  -0.715  21.110  0.00  0.00    -0.503 OA
ATOM     16  H   UNL     1       8.817  -1.417  21.346  0.00  0.00    +0.292 HD
ENDBRANCH   1  15
BRANCH   2  17
ATOM     17  O   UNL     1       9.210   1.947  21.110  0.00  0.00    -0.503 OA
ATOM     18  H   UNL     1       8.504   1.435  20.695  0.00  0.00    +0.292 HD
ENDBRANCH   2  17
TORSDOF 3
ENDMDL
MODEL 2
REMARK VINA RESULT:      -5.9      0.140      2.306
REMARK  Name = 
REMARK  3 active torsions:
REMARK  status: ('A' for Active; 'I' for Inactive)
REMARK    1  A    between atoms: O_1  and  C_2
REMARK    2  A    between atoms: C_6  and  C_9
REMARK    3  A    between atoms: C_7  and  O_8
REMARK                            x       y       z     vdW  Elec       q    Type
REMARK                         _______ _______ _______ _____ _____    ______ ____
ROOT
ATOM      1  C   UNL     1       9.820   0.005  22.274  0.00  0.00    +0.159 A 
ATOM      2  C   UNL     1       9.595   1.393  22.327  0.00  0.00    +0.166 A 
ATOM      3  C   UNL     1       9.741   2.123  23.533  0.00  0.00    +0.030 A 
ATOM      4  C   UNL     1      10.226   1.382  24.635  0.00  0.00    +0.012 A 
ATOM      5  C   UNL     1      10.556   0.021  24.546  0.00  0.00    +0.004 A 
ATOM      6  C   UNL     1      10.321  -0.679  23.371  0.00  0.00    +0.049 A 
ENDROOT
BRANCH   3   7
ATOM      7  C   UNL     1       9.397   3.582  23.693  0.00  0.00    +0.022 A 
ATOM      8  C   UNL     1      10.400   4.592  23.699  0.00  0.00    +0.050 A 
ATOM      9 CL   UNL     1      12.067   4.284  23.335  0.00  0.00    -0.083 Cl
ATOM     10  C   UNL     1      10.101   5.948  23.950  0.00  0.00    +0.021 A 
ATOM     11  C   UNL     1       8.789   6.361  24.118  0.00  0.00    +0.003 A 
ATOM     12  C   UNL     1       7.771   5.422  24.036  0.00  0.00    +0.021 A 
ATOM     13  C   UNL     1       8.066   4.055  23.854  0.00  0.00    +0.050 A 
ATOM     14 CL   UNL     1       6.671   3.018  23.855  0.00  0.00    -0.083 Cl
ENDBRANCH   3   7
BRANCH   1  15
ATOM     15  O   UNL     1       9.527  -0.684  21.127  0.00  0.00    -0.503 OA
ATOM     16  H   UNL     1       9.472  -1.628  21.340  0.00  0.00    +0.292 HD
ENDBRANCH   1  15
BRANCH   2  17
ATOM     17  O   UNL     1       9.245   1.973  21.131  0.00  0.00    -0.503 OA
ATOM     18  H   UNL     1       8.353   1.699  20.878  0.00  0.00    +0.292 HD
ENDBRANCH   2  17
TORSDOF 3
ENDMDL
MODEL 3
REMARK VINA RESULT:      -5.5      2.683      4.843
REMARK  Name = 
REMARK  3 active torsions:
REMARK  status: ('A' for Active; 'I' for Inactive)
REMARK    1  A    between atoms: O_1  and  C_2
REMARK    2  A    between atoms: C_6  and  C_9
REMARK    3  A    between atoms: C_7  and  O_8
REMARK                            x       y       z     vdW  Elec       q    Type
REMARK                         _______ _______ _______ _____ _____    ______ ____
ROOT
ATOM      1  C   UNL     1      11.833   5.956  24.326  0.00  0.00    +0.159 A 
ATOM      2  C   UNL     1      11.002   5.055  23.635  0.00  0.00    +0.166 A 
ATOM      3  C   UNL     1       9.637   4.890  23.980  0.00  0.00    +0.030 A 
ATOM      4  C   UNL     1       9.157   5.763  24.984  0.00  0.00    +0.012 A 
ATOM      5  C   UNL     1       9.964   6.737  25.590  0.00  0.00    +0.004 A 
ATOM      6  C   UNL     1      11.316   6.813  25.286  0.00  0.00    +0.049 A 
ENDROOT
BRANCH   3   7
ATOM      7  C   UNL     1       8.722   3.859  23.371  0.00  0.00    +0.022 A 
ATOM      8  C   UNL     1       7.630   4.227  22.536  0.00  0.00    +0.050 A 
ATOM      9 CL   UNL     1       7.355   5.846  21.982  0.00  0.00    -0.083 Cl
ATOM     10  C   UNL     1       6.707   3.279  22.044  0.00  0.00    +0.021 A 
ATOM     11  C   UNL     1       6.885   1.928  22.291  0.00  0.00    +0.003 A 
ATOM     12  C   UNL     1       7.984   1.517  23.031  0.00  0.00    +0.021 A 
ATOM     13  C   UNL     1       8.873   2.461  23.584  0.00  0.00    +0.050 A 
ATOM     14 CL   UNL     1      10.144   1.767  24.544  0.00  0.00    -0.083 Cl
ENDBRANCH   3   7
BRANCH   1  15
ATOM     15  O   UNL     1      13.176   5.978  24.057  0.00  0.00    -0.503 OA
ATOM     16  H   UNL     1      13.329   5.524  23.214  0.00  0.00    +0.292 HD
ENDBRANCH   1  15
BRANCH   2  17
ATOM     17  O   UNL     1      11.607   4.374  22.606  0.00  0.00    -0.503 OA
ATOM     18  H   UNL     1      11.863   3.489  22.899  0.00  0.00    +0.292 HD
ENDBRANCH   2  17
TORSDOF 3
ENDMDL
MODEL 4
REMARK VINA RESULT:      -5.5      4.405      6.851
REMARK  Name = 
REMARK  3 active torsions:
REMARK  status: ('A' for Active; 'I' for Inactive)
REMARK    1  A    between atoms: O_1  and  C_2
REMARK    2  A    between atoms: C_6  and  C_9
REMARK    3  A    between atoms: C_7  and  O_8
REMARK                            x       y       z     vdW  Elec       q    Type
REMARK                         _______ _______ _______ _____ _____    ______ ____
ROOT
ATOM      1  C   UNL     1       9.868  -1.281  22.781  0.00  0.00    +0.159 A 
ATOM      2  C   UNL     1       9.015  -2.152  23.485  0.00  0.00    +0.166 A 
ATOM      3  C   UNL     1       8.811  -2.023  24.881  0.00  0.00    +0.030 A 
ATOM      4  C   UNL     1       9.434  -0.905  25.484  0.00  0.00    +0.012 A 
ATOM      5  C   UNL     1      10.191   0.024  24.755  0.00  0.00    +0.004 A 
ATOM      6  C   UNL     1      10.438  -0.182  23.405  0.00  0.00    +0.049 A 
ENDROOT
BRANCH   3   7
ATOM      7  C   UNL     1       8.015  -2.989  25.720  0.00  0.00    +0.022 A 
ATOM      8  C   UNL     1       6.737  -2.649  26.246  0.00  0.00    +0.050 A 
ATOM      9 CL   UNL     1       5.889  -1.195  25.830  0.00  0.00    -0.083 Cl
ATOM     10  C   UNL     1       6.028  -3.506  27.116  0.00  0.00    +0.021 A 
ATOM     11  C   UNL     1       6.523  -4.763  27.423  0.00  0.00    +0.003 A 
ATOM     12  C   UNL     1       7.725  -5.169  26.864  0.00  0.00    +0.021 A 
ATOM     13  C   UNL     1       8.473  -4.294  26.050  0.00  0.00    +0.050 A 
ATOM     14 CL   UNL     1       9.988  -4.947  25.504  0.00  0.00    -0.083 Cl
ENDBRANCH   3   7
BRANCH   1  15
ATOM     15  O   UNL     1      10.150  -1.530  21.464  0.00  0.00    -0.503 OA
ATOM     16  H   UNL     1       9.959  -0.730  20.951  0.00  0.00    +0.292 HD
ENDBRANCH   1  15
BRANCH   2  17
ATOM     17  O   UNL     1       8.395  -3.109  22.717  0.00  0.00    -0.503 OA
ATOM     18  H   UNL     1       7.512  -2.810  22.464  0.00  0.00    +0.292 HD
ENDBRANCH   2  17
TORSDOF 3
ENDMDL
MODEL 5
REMARK VINA RESULT:      -5.5      3.974      5.756
REMARK  Name = 
REMARK  3 active torsions:
REMARK  status: ('A' for Active; 'I' for Inactive)
REMARK    1  A    between atoms: O_1  and  C_2
REMARK    2  A    between atoms: C_6  and  C_9
REMARK    3  A    between atoms: C_7  and  O_8
REMARK                            x       y       z     vdW  Elec       q    Type
REMARK                         _______ _______ _______ _____ _____    ______ ____
ROOT
ATOM      1  C   UNL     1       6.017  -3.919  22.944  0.00  0.00    +0.159 A 
ATOM      2  C   UNL     1       6.764  -2.739  23.114  0.00  0.00    +0.166 A 
ATOM      3  C   UNL     1       8.059  -2.756  23.689  0.00  0.00    +0.030 A 
ATOM      4  C   UNL     1       8.578  -4.041  23.973  0.00  0.00    +0.012 A 
ATOM      5  C   UNL     1       7.872  -5.221  23.696  0.00  0.00    +0.004 A 
ATOM      6  C   UNL     1       6.574  -5.161  23.210  0.00  0.00    +0.049 A 
ENDROOT
BRANCH   3   7
ATOM      7  C   UNL     1       8.865  -1.525  24.016  0.00  0.00    +0.022 A 
ATOM      8  C   UNL     1       9.587  -0.814  23.017  0.00  0.00    +0.050 A 
ATOM      9 CL   UNL     1       9.466  -1.162  21.323  0.00  0.00    -0.083 Cl
ATOM     10  C   UNL     1      10.424   0.278  23.328  0.00  0.00    +0.021 A 
ATOM     11  C   UNL     1      10.506   0.756  24.626  0.00  0.00    +0.003 A 
ATOM     12  C   UNL     1       9.753   0.145  25.618  0.00  0.00    +0.021 A 
ATOM     13  C   UNL     1       8.967  -0.989  25.329  0.00  0.00    +0.050 A 
ATOM     14 CL   UNL     1       8.157  -1.665  26.710  0.00  0.00    -0.083 Cl
ENDBRANCH   3   7
BRANCH   1  15
ATOM     15  O   UNL     1       4.716  -3.840  22.521  0.00  0.00    -0.503 OA
ATOM     16  H   UNL     1       4.499  -2.908  22.365  0.00  0.00    +0.292 HD
ENDBRANCH   1  15
BRANCH   2  17
ATOM     17  O   UNL     1       6.151  -1.591  22.670  0.00  0.00    -0.503 OA
ATOM     18  H   UNL     1       6.769  -1.068  22.143  0.00  0.00    +0.292 HD
ENDBRANCH   2  17
TORSDOF 3
ENDMDL
MODEL 6
REMARK VINA RESULT:      -5.5      5.453      7.299
REMARK  Name = 
REMARK  3 active torsions:
REMARK  status: ('A' for Active; 'I' for Inactive)
REMARK    1  A    between atoms: O_1  and  C_2
REMARK    2  A    between atoms: C_6  and  C_9
REMARK    3  A    between atoms: C_7  and  O_8
REMARK                            x       y       z     vdW  Elec       q    Type
REMARK                         _______ _______ _______ _____ _____    ______ ____
ROOT
ATOM      1  C   UNL     1       7.019  -5.243  27.462  0.00  0.00    +0.159 A 
ATOM      2  C   UNL     1       7.910  -4.398  26.773  0.00  0.00    +0.166 A 
ATOM      3  C   UNL     1       7.447  -3.322  25.976  0.00  0.00    +0.030 A 
ATOM      4  C   UNL     1       6.051  -3.099  26.012  0.00  0.00    +0.012 A 
ATOM      5  C   UNL     1       5.179  -3.876  26.791  0.00  0.00    +0.004 A 
ATOM      6  C   UNL     1       5.659  -4.973  27.493  0.00  0.00    +0.049 A 
ENDROOT
BRANCH   3   7
ATOM      7  C   UNL     1       8.330  -2.457  25.114  0.00  0.00    +0.022 A 
ATOM      8  C   UNL     1       8.603  -2.784  23.756  0.00  0.00    +0.050 A 
ATOM      9 CL   UNL     1       7.816  -4.074  22.908  0.00  0.00    -0.083 Cl
ATOM     10  C   UNL     1       9.508  -2.038  22.971  0.00  0.00    +0.021 A 
ATOM     11  C   UNL     1      10.104  -0.894  23.477  0.00  0.00    +0.003 A 
ATOM     12  C   UNL     1       9.800  -0.491  24.769  0.00  0.00    +0.021 A 
ATOM     13  C   UNL     1       8.951  -1.267  25.584  0.00  0.00    +0.050 A 
ATOM     14 CL   UNL     1       8.748  -0.649  27.195  0.00  0.00    -0.083 Cl
ENDBRANCH   3   7
BRANCH   1  15
ATOM     15  O   UNL     1       7.500  -6.356  28.100  0.00  0.00    -0.503 OA
ATOM     16  H   UNL     1       6.803  -6.705  28.677  0.00  0.00    +0.292 HD
ENDBRANCH   1  15
BRANCH   2  17
ATOM     17  O   UNL     1       9.242  -4.689  26.948  0.00  0.00    -0.503 OA
ATOM     18  H   UNL     1       9.353  -5.628  27.147  0.00  0.00    +0.292 HD
ENDBRANCH   2  17
TORSDOF 3
ENDMDL
MODEL 7
REMARK VINA RESULT:      -5.4      6.160      8.287
REMARK  Name = 
REMARK  3 active torsions:
REMARK  status: ('A' for Active; 'I' for Inactive)
REMARK    1  A    between atoms: O_1  and  C_2
REMARK    2  A    between atoms: C_6  and  C_9
REMARK    3  A    between atoms: C_7  and  O_8
REMARK                            x       y       z     vdW  Elec       q    Type
REMARK                         _______ _______ _______ _____ _____    ______ ____
ROOT
ATOM      1  C   UNL     1       4.943  -6.583  24.497  0.00  0.00    +0.159 A 
ATOM      2  C   UNL     1       5.958  -5.812  23.901  0.00  0.00    +0.166 A 
ATOM      3  C   UNL     1       6.574  -4.737  24.589  0.00  0.00    +0.030 A 
ATOM      4  C   UNL     1       6.174  -4.571  25.936  0.00  0.00    +0.012 A 
ATOM      5  C   UNL     1       5.244  -5.416  26.559  0.00  0.00    +0.004 A 
ATOM      6  C   UNL     1       4.600  -6.405  25.829  0.00  0.00    +0.049 A 
ENDROOT
BRANCH   3   7
ATOM      7  C   UNL     1       7.574  -3.791  23.974  0.00  0.00    +0.022 A 
ATOM      8  C   UNL     1       8.930  -3.751  24.405  0.00  0.00    +0.050 A 
ATOM      9 CL   UNL     1       9.612  -4.890  25.520  0.00  0.00    -0.083 Cl
ATOM     10  C   UNL     1       9.849  -2.801  23.908  0.00  0.00    +0.021 A 
ATOM     11  C   UNL     1       9.478  -1.918  22.907  0.00  0.00    +0.003 A 
ATOM     12  C   UNL     1       8.189  -1.980  22.398  0.00  0.00    +0.021 A 
ATOM     13  C   UNL     1       7.245  -2.878  22.936  0.00  0.00    +0.050 A 
ATOM     14 CL   UNL     1       5.663  -2.758  22.227  0.00  0.00    -0.083 Cl
ENDBRANCH   3   7
BRANCH   1  15
ATOM     15  O   UNL     1       4.275  -7.515  23.748  0.00  0.00    -0.503 OA
ATOM     16  H   UNL     1       4.633  -8.392  23.956  0.00  0.00    +0.292 HD
ENDBRANCH   1  15
BRANCH   2  17
ATOM     17  O   UNL     1       6.306  -6.190  22.626  0.00  0.00    -0.503 OA
ATOM     18  H   UNL     1       6.580  -7.116  22.619  0.00  0.00    +0.292 HD
ENDBRANCH   2  17
TORSDOF 3
ENDMDL
MODEL 8
REMARK VINA RESULT:      -5.4      2.028      3.205
REMARK  Name = 
REMARK  3 active torsions:
REMARK  status: ('A' for Active; 'I' for Inactive)
REMARK    1  A    between atoms: O_1  and  C_2
REMARK    2  A    between atoms: C_6  and  C_9
REMARK    3  A    between atoms: C_7  and  O_8
REMARK                            x       y       z     vdW  Elec       q    Type
REMARK                         _______ _______ _______ _____ _____    ______ ____
ROOT
ATOM      1  C   UNL     1       9.684   0.603  24.614  0.00  0.00    +0.159 A 
ATOM      2  C   UNL     1       9.081   1.869  24.495  0.00  0.00    +0.166 A 
ATOM      3  C   UNL     1       9.073   2.576  23.267  0.00  0.00    +0.030 A 
ATOM      4  C   UNL     1       9.614   1.877  22.163  0.00  0.00    +0.012 A 
ATOM      5  C   UNL     1      10.112   0.569  22.264  0.00  0.00    +0.004 A 
ATOM      6  C   UNL     1      10.179  -0.059  23.500  0.00  0.00    +0.049 A 
ENDROOT
BRANCH   3   7
ATOM      7  C   UNL     1       8.559   3.982  23.095  0.00  0.00    +0.022 A 
ATOM      8  C   UNL     1       9.365   5.116  23.395  0.00  0.00    +0.050 A 
ATOM      9 CL   UNL     1      11.050   5.012  23.793  0.00  0.00    -0.083 Cl
ATOM     10  C   UNL     1       8.862   6.434  23.335  0.00  0.00    +0.021 A 
ATOM     11  C   UNL     1       7.572   6.676  22.893  0.00  0.00    +0.003 A 
ATOM     12  C   UNL     1       6.779   5.604  22.510  0.00  0.00    +0.021 A 
ATOM     13  C   UNL     1       7.249   4.281  22.632  0.00  0.00    +0.050 A 
ATOM     14 CL   UNL     1       6.090   3.067  22.179  0.00  0.00    -0.083 Cl
ENDBRANCH   3   7
BRANCH   1  15
ATOM     15  O   UNL     1       9.798   0.021  25.848  0.00  0.00    -0.503 OA
ATOM     16  H   UNL     1      10.337  -0.780  25.763  0.00  0.00    +0.292 HD
ENDBRANCH   1  15
BRANCH   2  17
ATOM     17  O   UNL     1       8.496   2.346  25.644  0.00  0.00    -0.503 OA
ATOM     18  H   UNL     1       9.087   2.974  26.080  0.00  0.00    +0.292 HD
ENDBRANCH   2  17
TORSDOF 3
ENDMDL
MODEL 9
REMARK VINA RESULT:      -5.4      2.081      2.423
REMARK  Name = 
REMARK  3 active torsions:
REMARK  status: ('A' for Active; 'I' for Inactive)
REMARK    1  A    between atoms: O_1  and  C_2
REMARK    2  A    between atoms: C_6  and  C_9
REMARK    3  A    between atoms: C_7  and  O_8
REMARK                            x       y       z     vdW  Elec       q    Type
REMARK                         _______ _______ _______ _____ _____    ______ ____
ROOT
ATOM      1  C   UNL     1       9.666   0.713  24.590  0.00  0.00    +0.159 A 
ATOM      2  C   UNL     1       9.028   1.962  24.477  0.00  0.00    +0.166 A 
ATOM      3  C   UNL     1       8.990   2.669  23.249  0.00  0.00    +0.030 A 
ATOM      4  C   UNL     1       9.540   1.984  22.140  0.00  0.00    +0.012 A 
ATOM      5  C   UNL     1      10.073   0.690  22.237  0.00  0.00    +0.004 A 
ATOM      6  C   UNL     1      10.168   0.064  23.472  0.00  0.00    +0.049 A 
ENDROOT
BRANCH   3   7
ATOM      7  C   UNL     1       8.438   4.061  23.082  0.00  0.00    +0.022 A 
ATOM      8  C   UNL     1       7.113   4.290  22.615  0.00  0.00    +0.050 A 
ATOM      9 CL   UNL     1       5.951   3.025  22.380  0.00  0.00    -0.083 Cl
ATOM     10  C   UNL     1       6.620   5.587  22.358  0.00  0.00    +0.021 A 
ATOM     11  C   UNL     1       7.393   6.703  22.637  0.00  0.00    +0.003 A 
ATOM     12  C   UNL     1       8.661   6.528  23.173  0.00  0.00    +0.021 A 
ATOM     13  C   UNL     1       9.187   5.235  23.368  0.00  0.00    +0.050 A 
ATOM     14 CL   UNL     1      10.816   5.212  23.973  0.00  0.00    -0.083 Cl
ENDBRANCH   3   7
BRANCH   1  15
ATOM     15  O   UNL     1       9.806   0.135  25.824  0.00  0.00    -0.503 OA
ATOM     16  H   UNL     1       9.305  -0.696  25.833  0.00  0.00    +0.292 HD
ENDBRANCH   1  15
BRANCH   2  17
ATOM     17  O   UNL     1       8.441   2.425  25.631  0.00  0.00    -0.503 OA
ATOM     18  H   UNL     1       8.996   3.104  26.035  0.00  0.00    +0.292 HD
ENDBRANCH   2  17
TORSDOF 3
ENDMDL
