MODEL 1
REMARK VINA RESULT:      -5.5      0.000      0.000
REMARK  Name = 
REMARK  17 active torsions:
REMARK  status: ('A' for Active; 'I' for Inactive)
REMARK    1  A    between atoms: C_1  and  C_2
REMARK    2  A    between atoms: C_2  and  C_3
REMARK    3  A    between atoms: C_4  and  C_5
REMARK    4  A    between atoms: C_9  and  C_10
REMARK    5  A    between atoms: C_10  and  C_11
REMARK    6  A    between atoms: C_12  and  C_13
REMARK    7  A    between atoms: C_26  and  C_27
REMARK    8  A    between atoms: C_28  and  C_29
REMARK    9  A    between atoms: C_29  and  C_30
REMARK   10  A    between atoms: C_30  and  C_31
REMARK   11  A    between atoms: C_31  and  O_32
REMARK   12  A    between atoms: C_34  and  C_35
REMARK   13  A    between atoms: C_35  and  C_36
REMARK   14  A    between atoms: C_36  and  C_37
REMARK   15  A    between atoms: C_37  and  O_38
REMARK   16  A    between atoms: C_40  and  C_41
REMARK   17  A    between atoms: N_42  and  C_43
REMARK                            x       y       z     vdW  Elec       q    Type
REMARK                         _______ _______ _______ _____ _____    ______ ____
ROOT
ATOM      1  C   UNL     1       6.682   0.507  27.901  0.00  0.00    -0.017 C 
ATOM      2  C   UNL     1       7.432   0.806  26.582  0.00  0.00    +0.070 C 
ATOM      3  N   UNL     1       6.748   1.684  25.910  0.00  0.00    -0.247 NA
ATOM      4  C   UNL     1       5.859   2.328  26.791  0.00  0.00    +0.070 C 
ATOM      5  C   UNL     1       5.266   3.557  26.657  0.00  0.00    +0.054 C 
ATOM      6  C   UNL     1       5.766   4.504  25.705  0.00  0.00    +0.048 A 
ATOM      7  N   UNL     1       6.875   4.089  24.974  0.00  0.00    -0.343 N 
ATOM      8  C   UNL     1       8.161   3.952  25.670  0.00  0.00    +0.149 C 
ATOM      9  C   UNL     1       6.784   4.748  23.755  0.00  0.00    +0.047 A 
ATOM     10  C   UNL     1       7.329   4.113  22.603  0.00  0.00    +0.054 C 
ATOM     11  C   UNL     1       7.170   2.829  22.194  0.00  0.00    +0.070 C 
ATOM     12  C   UNL     1       6.315   1.760  22.668  0.00  0.00    -0.020 C 
ATOM     13  C   UNL     1       5.017   1.953  23.337  0.00  0.00    +0.046 C 
ATOM     14  C   UNL     1       6.885   0.530  22.499  0.00  0.00    -0.017 C 
ATOM     15  C   UNL     1       8.110   0.970  21.775  0.00  0.00    +0.070 C 
ATOM     16  C   UNL     1       9.201  -0.042  21.689  0.00  0.00    +0.054 C 
ATOM     17  C   UNL     1       9.816   0.050  22.888  0.00  0.00    +0.045 A 
ATOM     18  C   UNL     1      10.472   1.245  23.418  0.00  0.00    -0.019 A 
ATOM     19  C   UNL     1      10.792   0.930  24.699  0.00  0.00    -0.022 A 
ATOM     20  C   UNL     1      12.301   0.464  24.658  0.00  0.00    +0.046 C 
ATOM     21  C   UNL     1       9.762  -0.051  25.197  0.00  0.00    +0.045 A 
ATOM     22  N   UNL     1       9.574  -0.817  23.997  0.00  0.00    -0.355 N 
ATOM     23  H   UNL     1      10.270  -1.562  23.980  0.00  0.00    +0.166 HD
ATOM     24  N   UNL     1       8.210   2.232  21.486  0.00  0.00    -0.247 NA
ATOM     25  C   UNL     1       6.746   6.021  24.340  0.00  0.00    -0.022 A 
ATOM     26  C   UNL     1       7.756   7.108  24.168  0.00  0.00    +0.046 C 
ATOM     27  C   UNL     1       5.820   5.896  25.472  0.00  0.00    -0.019 A 
ATOM     28  C   UNL     1       8.701  -0.052  26.098  0.00  0.00    +0.054 C 
ATOM     29  C   UNL     1       6.144   1.751  28.110  0.00  0.00    -0.020 C 
ATOM     30  C   UNL     1       6.859   2.806  28.953  0.00  0.00    +0.046 C 
ENDROOT
BRANCH   1  32
ATOM     31  C   UNL     1       4.391  -0.516  28.618  0.00  0.00    +0.009 C 
ATOM     32  C   UNL     1       5.614  -0.603  27.716  0.00  0.00    +0.034 C 
ENDBRANCH   1  32
BRANCH  27  33
ATOM     33  C   UNL     1       5.285   7.061  26.267  0.00  0.00    +0.034 C 
ATOM     34  C   UNL     1       5.656   7.062  27.750  0.00  0.00    +0.009 C 
ENDBRANCH  27  33
BRANCH  14  35
ATOM     35  C   UNL     1       6.685  -0.805  23.173  0.00  0.00    +0.049 C 
BRANCH  35  36
ATOM     36  C   UNL     1       6.079  -2.053  22.539  0.00  0.00    +0.125 C 
BRANCH  36  37
ATOM     37  C   UNL     1       7.125  -3.170  22.549  0.00  0.00    +0.305 C 
ATOM     38  O   UNL     1       8.243  -3.102  23.026  0.00  0.00    -0.251 OA
BRANCH  37  39
ATOM     39  O   UNL     1       6.659  -4.302  21.964  0.00  0.00    -0.481 OA
ATOM     40  H   UNL     1       6.464  -4.202  21.009  0.00  0.00    +0.295 HD
ENDBRANCH  37  39
ENDBRANCH  36  37
ENDBRANCH  35  36
ENDBRANCH  14  35
BRANCH  18  41
ATOM     41  C   UNL     1      11.149   2.337  22.598  0.00  0.00    +0.048 C 
BRANCH  41  42
ATOM     42  C   UNL     1      10.969   3.599  23.423  0.00  0.00    +0.125 C 
BRANCH  42  43
ATOM     43  C   UNL     1      11.793   4.825  23.205  0.00  0.00    +0.305 C 
ATOM     44  O   UNL     1      13.008   4.832  23.360  0.00  0.00    -0.251 OA
BRANCH  43  45
ATOM     45  O   UNL     1      11.091   5.952  22.991  0.00  0.00    -0.481 OA
ATOM     46  H   UNL     1      10.286   6.025  23.541  0.00  0.00    +0.295 HD
ENDBRANCH  43  45
ENDBRANCH  42  43
ENDBRANCH  41  42
ENDBRANCH  18  41
TORSDOF 10
ENDMDL
MODEL 2
REMARK VINA RESULT:      -5.0      2.521      7.029
REMARK  Name = 
REMARK  17 active torsions:
REMARK  status: ('A' for Active; 'I' for Inactive)
REMARK    1  A    between atoms: C_1  and  C_2
REMARK    2  A    between atoms: C_2  and  C_3
REMARK    3  A    between atoms: C_4  and  C_5
REMARK    4  A    between atoms: C_9  and  C_10
REMARK    5  A    between atoms: C_10  and  C_11
REMARK    6  A    between atoms: C_12  and  C_13
REMARK    7  A    between atoms: C_26  and  C_27
REMARK    8  A    between atoms: C_28  and  C_29
REMARK    9  A    between atoms: C_29  and  C_30
REMARK   10  A    between atoms: C_30  and  C_31
REMARK   11  A    between atoms: C_31  and  O_32
REMARK   12  A    between atoms: C_34  and  C_35
REMARK   13  A    between atoms: C_35  and  C_36
REMARK   14  A    between atoms: C_36  and  C_37
REMARK   15  A    between atoms: C_37  and  O_38
REMARK   16  A    between atoms: C_40  and  C_41
REMARK   17  A    between atoms: N_42  and  C_43
REMARK                            x       y       z     vdW  Elec       q    Type
REMARK                         _______ _______ _______ _____ _____    ______ ____
ROOT
ATOM      1  C   UNL     1       6.235   2.301  23.682  0.00  0.00    -0.017 C 
ATOM      2  C   UNL     1       6.405   0.775  23.868  0.00  0.00    +0.070 C 
ATOM      3  N   UNL     1       6.361   0.509  25.140  0.00  0.00    -0.247 NA
ATOM      4  C   UNL     1       5.763   1.596  25.805  0.00  0.00    +0.070 C 
ATOM      5  C   UNL     1       5.138   1.610  27.025  0.00  0.00    +0.054 C 
ATOM      6  C   UNL     1       4.723   0.385  27.641  0.00  0.00    +0.048 A 
ATOM      7  N   UNL     1       4.984  -0.771  26.912  0.00  0.00    -0.343 N 
ATOM      8  C   UNL     1       4.217  -1.010  25.682  0.00  0.00    +0.149 C 
ATOM      9  C   UNL     1       5.160  -1.774  27.856  0.00  0.00    +0.047 A 
ATOM     10  C   UNL     1       6.029  -2.856  27.536  0.00  0.00    +0.054 C 
ATOM     11  C   UNL     1       7.276  -2.806  27.004  0.00  0.00    +0.070 C 
ATOM     12  C   UNL     1       8.173  -1.699  26.738  0.00  0.00    -0.020 C 
ATOM     13  C   UNL     1       8.186  -0.428  27.482  0.00  0.00    +0.046 C 
ATOM     14  C   UNL     1       8.966  -1.929  25.649  0.00  0.00    -0.017 C 
ATOM     15  C   UNL     1       8.531  -3.325  25.370  0.00  0.00    +0.070 C 
ATOM     16  C   UNL     1       8.912  -3.859  24.031  0.00  0.00    +0.054 C 
ATOM     17  C   UNL     1       7.974  -3.348  23.206  0.00  0.00    +0.045 A 
ATOM     18  C   UNL     1       6.535  -3.596  23.298  0.00  0.00    -0.019 A 
ATOM     19  C   UNL     1       5.976  -2.757  22.387  0.00  0.00    -0.022 A 
ATOM     20  C   UNL     1       5.757  -3.626  21.087  0.00  0.00    +0.046 C 
ATOM     21  C   UNL     1       6.862  -1.541  22.285  0.00  0.00    +0.045 A 
ATOM     22  N   UNL     1       8.144  -2.179  22.402  0.00  0.00    -0.355 N 
ATOM     23  H   UNL     1       8.442  -2.471  21.471  0.00  0.00    +0.166 HD
ATOM     24  N   UNL     1       7.690  -3.864  26.199  0.00  0.00    -0.247 NA
ATOM     25  C   UNL     1       3.906  -1.567  28.447  0.00  0.00    -0.022 A 
ATOM     26  C   UNL     1       2.778  -2.544  28.502  0.00  0.00    +0.046 C 
ATOM     27  C   UNL     1       3.772  -0.109  28.561  0.00  0.00    -0.019 A 
ATOM     28  C   UNL     1       6.808  -0.202  22.658  0.00  0.00    +0.054 C 
ATOM     29  C   UNL     1       5.397   2.538  24.740  0.00  0.00    -0.020 C 
ATOM     30  C   UNL     1       3.877   2.521  24.584  0.00  0.00    +0.046 C 
ENDROOT
BRANCH   1  32
ATOM     31  C   UNL     1       7.945   3.969  22.631  0.00  0.00    +0.009 C 
ATOM     32  C   UNL     1       7.591   3.048  23.790  0.00  0.00    +0.034 C 
ENDBRANCH   1  32
BRANCH  27  33
ATOM     33  C   UNL     1       2.685   0.587  29.341  0.00  0.00    +0.034 C 
ATOM     34  C   UNL     1       1.585   1.227  28.496  0.00  0.00    +0.009 C 
ENDBRANCH  27  33
BRANCH  14  35
ATOM     35  C   UNL     1       9.702  -1.021  24.694  0.00  0.00    +0.049 C 
BRANCH  35  36
ATOM     36  C   UNL     1      10.416   0.278  25.053  0.00  0.00    +0.125 C 
BRANCH  36  37
ATOM     37  C   UNL     1      10.556   1.131  23.790  0.00  0.00    +0.305 C 
ATOM     38  O   UNL     1      10.967   2.276  23.740  0.00  0.00    -0.251 OA
BRANCH  37  39
ATOM     39  O   UNL     1      10.177   0.451  22.679  0.00  0.00    -0.481 OA
ATOM     40  H   UNL     1       9.946  -0.486  22.849  0.00  0.00    +0.295 HD
ENDBRANCH  37  39
ENDBRANCH  36  37
ENDBRANCH  35  36
ENDBRANCH  14  35
BRANCH  18  41
ATOM     41  C   UNL     1       5.873  -4.859  23.833  0.00  0.00    +0.048 C 
BRANCH  41  42
ATOM     42  C   UNL     1       4.617  -4.365  24.530  0.00  0.00    +0.125 C 
BRANCH  42  43
ATOM     43  C   UNL     1       3.247  -4.633  23.999  0.00  0.00    +0.305 C 
ATOM     44  O   UNL     1       3.059  -5.193  22.926  0.00  0.00    -0.251 OA
BRANCH  43  45
ATOM     45  O   UNL     1       2.246  -4.069  24.698  0.00  0.00    -0.481 OA
ATOM     46  H   UNL     1       2.412  -3.137  24.942  0.00  0.00    +0.295 HD
ENDBRANCH  43  45
ENDBRANCH  42  43
ENDBRANCH  41  42
ENDBRANCH  18  41
TORSDOF 10
ENDMDL
MODEL 3
REMARK VINA RESULT:      -4.7      2.303      5.014
REMARK  Name = 
REMARK  17 active torsions:
REMARK  status: ('A' for Active; 'I' for Inactive)
REMARK    1  A    between atoms: C_1  and  C_2
REMARK    2  A    between atoms: C_2  and  C_3
REMARK    3  A    between atoms: C_4  and  C_5
REMARK    4  A    between atoms: C_9  and  C_10
REMARK    5  A    between atoms: C_10  and  C_11
REMARK    6  A    between atoms: C_12  and  C_13
REMARK    7  A    between atoms: C_26  and  C_27
REMARK    8  A    between atoms: C_28  and  C_29
REMARK    9  A    between atoms: C_29  and  C_30
REMARK   10  A    between atoms: C_30  and  C_31
REMARK   11  A    between atoms: C_31  and  O_32
REMARK   12  A    between atoms: C_34  and  C_35
REMARK   13  A    between atoms: C_35  and  C_36
REMARK   14  A    between atoms: C_36  and  C_37
REMARK   15  A    between atoms: C_37  and  O_38
REMARK   16  A    between atoms: C_40  and  C_41
REMARK   17  A    between atoms: N_42  and  C_43
REMARK                            x       y       z     vdW  Elec       q    Type
REMARK                         _______ _______ _______ _____ _____    ______ ____
ROOT
ATOM      1  C   UNL     1       9.373   0.105  25.066  0.00  0.00    -0.017 C 
ATOM      2  C   UNL     1       8.867   1.561  24.934  0.00  0.00    +0.070 C 
ATOM      3  N   UNL     1       7.587   1.573  25.162  0.00  0.00    -0.247 NA
ATOM      4  C   UNL     1       7.242   0.390  25.844  0.00  0.00    +0.070 C 
ATOM      5  C   UNL     1       6.151   0.151  26.640  0.00  0.00    +0.054 C 
ATOM      6  C   UNL     1       5.370   1.241  27.146  0.00  0.00    +0.048 A 
ATOM      7  N   UNL     1       5.812   2.511  26.789  0.00  0.00    -0.343 N 
ATOM      8  C   UNL     1       7.067   3.004  27.371  0.00  0.00    +0.149 C 
ATOM      9  C   UNL     1       4.673   3.305  26.757  0.00  0.00    +0.047 A 
ATOM     10  C   UNL     1       4.645   4.408  25.858  0.00  0.00    +0.054 C 
ATOM     11  C   UNL     1       4.993   4.435  24.546  0.00  0.00    +0.070 C 
ATOM     12  C   UNL     1       5.342   3.382  23.614  0.00  0.00    -0.020 C 
ATOM     13  C   UNL     1       4.870   1.989  23.701  0.00  0.00    +0.046 C 
ATOM     14  C   UNL     1       6.238   3.802  22.673  0.00  0.00    -0.017 C 
ATOM     15  C   UNL     1       6.295   5.236  23.071  0.00  0.00    +0.070 C 
ATOM     16  C   UNL     1       7.434   6.013  22.503  0.00  0.00    +0.054 C 
ATOM     17  C   UNL     1       8.469   5.696  23.310  0.00  0.00    +0.045 A 
ATOM     18  C   UNL     1       8.537   5.954  24.748  0.00  0.00    -0.019 A 
ATOM     19  C   UNL     1       9.665   5.324  25.165  0.00  0.00    -0.022 A 
ATOM     20  C   UNL     1      10.786   6.437  25.198  0.00  0.00    +0.046 C 
ATOM     21  C   UNL     1       9.878   4.132  24.266  0.00  0.00    +0.045 A 
ATOM     22  N   UNL     1       9.456   4.705  23.019  0.00  0.00    -0.355 N 
ATOM     23  H   UNL     1      10.258   5.167  22.591  0.00  0.00    +0.166 HD
ATOM     24  N   UNL     1       5.505   5.621  24.026  0.00  0.00    -0.247 NA
ATOM     25  C   UNL     1       4.319   3.014  28.082  0.00  0.00    -0.022 A 
ATOM     26  C   UNL     1       4.234   3.987  29.212  0.00  0.00    +0.046 C 
ATOM     27  C   UNL     1       4.517   1.567  28.223  0.00  0.00    -0.019 A 
ATOM     28  C   UNL     1       9.789   2.747  24.366  0.00  0.00    +0.054 C 
ATOM     29  C   UNL     1       8.513  -0.316  26.047  0.00  0.00    -0.020 C 
ATOM     30  C   UNL     1       8.879  -0.233  27.529  0.00  0.00    +0.046 C 
ENDROOT
BRANCH   1  32
ATOM     31  C   UNL     1       9.864  -2.058  23.693  0.00  0.00    +0.009 C 
ATOM     32  C   UNL     1       9.222  -0.679  23.736  0.00  0.00    +0.034 C 
ENDBRANCH   1  32
BRANCH  27  33
ATOM     33  C   UNL     1       4.053   0.755  29.407  0.00  0.00    +0.034 C 
ATOM     34  C   UNL     1       3.689  -0.696  29.098  0.00  0.00    +0.009 C 
ENDBRANCH  27  33
BRANCH  14  35
ATOM     35  C   UNL     1       7.239   3.083  21.802  0.00  0.00    +0.049 C 
BRANCH  35  36
ATOM     36  C   UNL     1       7.299   1.581  21.548  0.00  0.00    +0.125 C 
BRANCH  36  37
ATOM     37  C   UNL     1       8.731   1.200  21.165  0.00  0.00    +0.305 C 
ATOM     38  O   UNL     1       9.096   0.122  20.734  0.00  0.00    -0.251 OA
BRANCH  37  39
ATOM     39  O   UNL     1       9.591   2.234  21.344  0.00  0.00    -0.481 OA
ATOM     40  H   UNL     1       9.700   2.500  22.280  0.00  0.00    +0.295 HD
ENDBRANCH  37  39
ENDBRANCH  36  37
ENDBRANCH  35  36
ENDBRANCH  14  35
BRANCH  18  41
ATOM     41  C   UNL     1       7.862   7.103  25.488  0.00  0.00    +0.048 C 
BRANCH  41  42
ATOM     42  C   UNL     1       7.390   6.489  26.794  0.00  0.00    +0.125 C 
BRANCH  42  43
ATOM     43  C   UNL     1       7.857   6.978  28.126  0.00  0.00    +0.305 C 
ATOM     44  O   UNL     1       9.045   7.105  28.396  0.00  0.00    -0.251 OA
BRANCH  43  45
ATOM     45  O   UNL     1       6.893   7.108  29.054  0.00  0.00    -0.481 OA
ATOM     46  H   UNL     1       6.454   6.266  29.287  0.00  0.00    +0.295 HD
ENDBRANCH  43  45
ENDBRANCH  42  43
ENDBRANCH  41  42
ENDBRANCH  18  41
TORSDOF 10
ENDMDL
MODEL 4
REMARK VINA RESULT:      -4.7      2.825      7.083
REMARK  Name = 
REMARK  17 active torsions:
REMARK  status: ('A' for Active; 'I' for Inactive)
REMARK    1  A    between atoms: C_1  and  C_2
REMARK    2  A    between atoms: C_2  and  C_3
REMARK    3  A    between atoms: C_4  and  C_5
REMARK    4  A    between atoms: C_9  and  C_10
REMARK    5  A    between atoms: C_10  and  C_11
REMARK    6  A    between atoms: C_12  and  C_13
REMARK    7  A    between atoms: C_26  and  C_27
REMARK    8  A    between atoms: C_28  and  C_29
REMARK    9  A    between atoms: C_29  and  C_30
REMARK   10  A    between atoms: C_30  and  C_31
REMARK   11  A    between atoms: C_31  and  O_32
REMARK   12  A    between atoms: C_34  and  C_35
REMARK   13  A    between atoms: C_35  and  C_36
REMARK   14  A    between atoms: C_36  and  C_37
REMARK   15  A    between atoms: C_37  and  O_38
REMARK   16  A    between atoms: C_40  and  C_41
REMARK   17  A    between atoms: N_42  and  C_43
REMARK                            x       y       z     vdW  Elec       q    Type
REMARK                         _______ _______ _______ _____ _____    ______ ____
ROOT
ATOM      1  C   UNL     1       6.070   2.469  28.705  0.00  0.00    -0.017 C 
ATOM      2  C   UNL     1       5.771   2.718  27.208  0.00  0.00    +0.070 C 
ATOM      3  N   UNL     1       6.618   2.030  26.500  0.00  0.00    -0.247 NA
ATOM      4  C   UNL     1       7.172   1.025  27.316  0.00  0.00    +0.070 C 
ATOM      5  C   UNL     1       7.756  -0.155  26.937  0.00  0.00    +0.054 C 
ATOM      6  C   UNL     1       7.567  -0.665  25.611  0.00  0.00    +0.048 A 
ATOM      7  N   UNL     1       6.755   0.104  24.783  0.00  0.00    -0.343 N 
ATOM      8  C   UNL     1       5.317   0.166  25.077  0.00  0.00    +0.149 C 
ATOM      9  C   UNL     1       7.217  -0.123  23.494  0.00  0.00    +0.047 A 
ATOM     10  C   UNL     1       7.076   0.919  22.534  0.00  0.00    +0.054 C 
ATOM     11  C   UNL     1       7.378   2.235  22.669  0.00  0.00    +0.070 C 
ATOM     12  C   UNL     1       8.057   2.972  23.716  0.00  0.00    -0.020 C 
ATOM     13  C   UNL     1       9.072   2.406  24.621  0.00  0.00    +0.046 C 
ATOM     14  C   UNL     1       7.590   4.250  23.833  0.00  0.00    -0.017 C 
ATOM     15  C   UNL     1       6.651   4.232  22.677  0.00  0.00    +0.070 C 
ATOM     16  C   UNL     1       5.660   5.345  22.639  0.00  0.00    +0.054 C 
ATOM     17  C   UNL     1       4.695   4.943  23.494  0.00  0.00    +0.045 A 
ATOM     18  C   UNL     1       3.885   3.733  23.353  0.00  0.00    -0.019 A 
ATOM     19  C   UNL     1       3.180   3.646  24.511  0.00  0.00    -0.022 A 
ATOM     20  C   UNL     1       1.771   4.287  24.198  0.00  0.00    +0.046 C 
ATOM     21  C   UNL     1       4.016   4.270  25.599  0.00  0.00    +0.045 A 
ATOM     22  N   UNL     1       4.588   5.358  24.857  0.00  0.00    -0.355 N 
ATOM     23  H   UNL     1       3.945   6.149  24.901  0.00  0.00    +0.166 HD
ATOM     24  N   UNL     1       6.627   3.159  21.946  0.00  0.00    -0.247 NA
ATOM     25  C   UNL     1       7.046  -1.512  23.577  0.00  0.00    -0.022 A 
ATOM     26  C   UNL     1       6.125  -2.344  22.747  0.00  0.00    +0.046 C 
ATOM     27  C   UNL     1       7.567  -1.884  24.898  0.00  0.00    -0.019 A 
ATOM     28  C   UNL     1       4.736   3.840  26.710  0.00  0.00    +0.054 C 
ATOM     29  C   UNL     1       6.492   1.168  28.609  0.00  0.00    -0.020 C 
ATOM     30  C   UNL     1       5.530  -0.006  28.779  0.00  0.00    +0.046 C 
ENDROOT
BRANCH   1  32
ATOM     31  C   UNL     1       6.666   4.761  29.800  0.00  0.00    +0.009 C 
ATOM     32  C   UNL     1       7.159   3.433  29.242  0.00  0.00    +0.034 C 
ENDBRANCH   1  32
BRANCH  27  33
ATOM     33  C   UNL     1       7.803  -3.303  25.351  0.00  0.00    +0.034 C 
ATOM     34  C   UNL     1       9.091  -3.944  24.838  0.00  0.00    +0.009 C 
ENDBRANCH  27  33
BRANCH  14  35
ATOM     35  C   UNL     1       7.588   5.253  24.961  0.00  0.00    +0.049 C 
BRANCH  35  36
ATOM     36  C   UNL     1       8.239   6.632  24.942  0.00  0.00    +0.125 C 
BRANCH  36  37
ATOM     37  C   UNL     1       9.630   6.514  24.315  0.00  0.00    +0.305 C 
ATOM     38  O   UNL     1      10.689   6.494  24.917  0.00  0.00    -0.251 OA
BRANCH  37  39
ATOM     39  O   UNL     1       9.567   6.410  22.964  0.00  0.00    -0.481 OA
ATOM     40  H   UNL     1       9.337   5.512  22.648  0.00  0.00    +0.295 HD
ENDBRANCH  37  39
ENDBRANCH  36  37
ENDBRANCH  35  36
ENDBRANCH  14  35
BRANCH  18  41
ATOM     41  C   UNL     1       3.485   3.067  22.042  0.00  0.00    +0.048 C 
BRANCH  41  42
ATOM     42  C   UNL     1       2.701   4.134  21.298  0.00  0.00    +0.125 C 
BRANCH  42  43
ATOM     43  C   UNL     1       2.010   3.864  20.002  0.00  0.00    +0.305 C 
ATOM     44  O   UNL     1       1.199   2.956  19.870  0.00  0.00    -0.251 OA
BRANCH  43  45
ATOM     45  O   UNL     1       2.463   4.578  18.956  0.00  0.00    -0.481 OA
ATOM     46  H   UNL     1       3.176   4.133  18.456  0.00  0.00    +0.295 HD
ENDBRANCH  43  45
ENDBRANCH  42  43
ENDBRANCH  41  42
ENDBRANCH  18  41
TORSDOF 10
ENDMDL
MODEL 5
REMARK VINA RESULT:      -4.6      4.224      8.349
REMARK  Name = 
REMARK  17 active torsions:
REMARK  status: ('A' for Active; 'I' for Inactive)
REMARK    1  A    between atoms: C_1  and  C_2
REMARK    2  A    between atoms: C_2  and  C_3
REMARK    3  A    between atoms: C_4  and  C_5
REMARK    4  A    between atoms: C_9  and  C_10
REMARK    5  A    between atoms: C_10  and  C_11
REMARK    6  A    between atoms: C_12  and  C_13
REMARK    7  A    between atoms: C_26  and  C_27
REMARK    8  A    between atoms: C_28  and  C_29
REMARK    9  A    between atoms: C_29  and  C_30
REMARK   10  A    between atoms: C_30  and  C_31
REMARK   11  A    between atoms: C_31  and  O_32
REMARK   12  A    between atoms: C_34  and  C_35
REMARK   13  A    between atoms: C_35  and  C_36
REMARK   14  A    between atoms: C_36  and  C_37
REMARK   15  A    between atoms: C_37  and  O_38
REMARK   16  A    between atoms: C_40  and  C_41
REMARK   17  A    between atoms: N_42  and  C_43
REMARK                            x       y       z     vdW  Elec       q    Type
REMARK                         _______ _______ _______ _____ _____    ______ ____
ROOT
ATOM      1  C   UNL     1       6.839  -1.565  22.616  0.00  0.00    -0.017 C 
ATOM      2  C   UNL     1       5.961  -2.494  23.486  0.00  0.00    +0.070 C 
ATOM      3  N   UNL     1       6.253  -2.284  24.735  0.00  0.00    -0.247 NA
ATOM      4  C   UNL     1       6.904  -1.040  24.840  0.00  0.00    +0.070 C 
ATOM      5  C   UNL     1       7.016  -0.226  25.937  0.00  0.00    +0.054 C 
ATOM      6  C   UNL     1       6.162  -0.416  27.072  0.00  0.00    +0.048 A 
ATOM      7  N   UNL     1       5.234  -1.446  26.958  0.00  0.00    -0.343 N 
ATOM      8  C   UNL     1       4.119  -1.281  26.016  0.00  0.00    +0.149 C 
ATOM      9  C   UNL     1       5.021  -1.900  28.252  0.00  0.00    +0.047 A 
ATOM     10  C   UNL     1       4.674  -3.269  28.438  0.00  0.00    +0.054 C 
ATOM     11  C   UNL     1       5.255  -4.367  27.892  0.00  0.00    +0.070 C 
ATOM     12  C   UNL     1       6.457  -4.535  27.101  0.00  0.00    -0.020 C 
ATOM     13  C   UNL     1       7.636  -3.655  27.164  0.00  0.00    +0.046 C 
ATOM     14  C   UNL     1       6.350  -5.569  26.214  0.00  0.00    -0.017 C 
ATOM     15  C   UNL     1       5.012  -6.065  26.639  0.00  0.00    +0.070 C 
ATOM     16  C   UNL     1       4.345  -7.002  25.689  0.00  0.00    +0.054 C 
ATOM     17  C   UNL     1       3.803  -6.184  24.762  0.00  0.00    +0.045 A 
ATOM     18  C   UNL     1       2.796  -5.155  25.020  0.00  0.00    -0.019 A 
ATOM     19  C   UNL     1       2.678  -4.479  23.848  0.00  0.00    -0.022 A 
ATOM     20  C   UNL     1       1.431  -5.115  23.116  0.00  0.00    +0.046 C 
ATOM     21  C   UNL     1       4.014  -4.538  23.152  0.00  0.00    +0.045 A 
ATOM     22  N   UNL     1       4.396  -5.878  23.498  0.00  0.00    -0.355 N 
ATOM     23  H   UNL     1       4.008  -6.512  22.800  0.00  0.00    +0.166 HD
ATOM     24  N   UNL     1       4.456  -5.484  27.658  0.00  0.00    -0.247 NA
ATOM     25  C   UNL     1       4.638  -0.640  28.731  0.00  0.00    -0.022 A 
ATOM     26  C   UNL     1       3.301  -0.269  29.284  0.00  0.00    +0.046 C 
ATOM     27  C   UNL     1       5.607   0.300  28.156  0.00  0.00    -0.019 A 
ATOM     28  C   UNL     1       5.053  -3.661  22.857  0.00  0.00    +0.054 C 
ATOM     29  C   UNL     1       6.912  -0.499  23.475  0.00  0.00    -0.020 C 
ATOM     30  C   UNL     1       5.917   0.659  23.410  0.00  0.00    +0.046 C 
ENDROOT
BRANCH   1  32
ATOM     31  C   UNL     1       9.317  -1.245  21.863  0.00  0.00    +0.009 C 
ATOM     32  C   UNL     1       8.218  -2.202  22.304  0.00  0.00    +0.034 C 
ENDBRANCH   1  32
BRANCH  27  33
ATOM     33  C   UNL     1       5.738   1.746  28.566  0.00  0.00    +0.034 C 
ATOM     34  C   UNL     1       6.931   2.061  29.467  0.00  0.00    +0.009 C 
ENDBRANCH  27  33
BRANCH  14  35
ATOM     35  C   UNL     1       7.045  -5.895  24.915  0.00  0.00    +0.049 C 
BRANCH  35  36
ATOM     36  C   UNL     1       8.110  -5.049  24.225  0.00  0.00    +0.125 C 
BRANCH  36  37
ATOM     37  C   UNL     1       9.467  -5.339  24.872  0.00  0.00    +0.305 C 
ATOM     38  O   UNL     1      10.443  -4.611  24.848  0.00  0.00    -0.251 OA
BRANCH  37  39
ATOM     39  O   UNL     1       9.472  -6.531  25.518  0.00  0.00    -0.481 OA
ATOM     40  H   UNL     1       8.936  -7.222  25.076  0.00  0.00    +0.295 HD
ENDBRANCH  37  39
ENDBRANCH  36  37
ENDBRANCH  35  36
ENDBRANCH  14  35
BRANCH  18  41
ATOM     41  C   UNL     1       1.734  -5.191  26.112  0.00  0.00    +0.048 C 
BRANCH  41  42
ATOM     42  C   UNL     1       1.514  -3.733  26.476  0.00  0.00    +0.125 C 
BRANCH  42  43
ATOM     43  C   UNL     1       1.030  -3.306  27.823  0.00  0.00    +0.305 C 
ATOM     44  O   UNL     1       0.590  -2.182  28.033  0.00  0.00    -0.251 OA
BRANCH  43  45
ATOM     45  O   UNL     1       1.267  -4.181  28.816  0.00  0.00    -0.481 OA
ATOM     46  H   UNL     1       1.740  -3.792  29.578  0.00  0.00    +0.295 HD
ENDBRANCH  43  45
ENDBRANCH  42  43
ENDBRANCH  41  42
ENDBRANCH  18  41
TORSDOF 10
ENDMDL
MODEL 6
REMARK VINA RESULT:      -4.6      3.027      6.355
REMARK  Name = 
REMARK  17 active torsions:
REMARK  status: ('A' for Active; 'I' for Inactive)
REMARK    1  A    between atoms: C_1  and  C_2
REMARK    2  A    between atoms: C_2  and  C_3
REMARK    3  A    between atoms: C_4  and  C_5
REMARK    4  A    between atoms: C_9  and  C_10
REMARK    5  A    between atoms: C_10  and  C_11
REMARK    6  A    between atoms: C_12  and  C_13
REMARK    7  A    between atoms: C_26  and  C_27
REMARK    8  A    between atoms: C_28  and  C_29
REMARK    9  A    between atoms: C_29  and  C_30
REMARK   10  A    between atoms: C_30  and  C_31
REMARK   11  A    between atoms: C_31  and  O_32
REMARK   12  A    between atoms: C_34  and  C_35
REMARK   13  A    between atoms: C_35  and  C_36
REMARK   14  A    between atoms: C_36  and  C_37
REMARK   15  A    between atoms: C_37  and  O_38
REMARK   16  A    between atoms: C_40  and  C_41
REMARK   17  A    between atoms: N_42  and  C_43
REMARK                            x       y       z     vdW  Elec       q    Type
REMARK                         _______ _______ _______ _____ _____    ______ ____
ROOT
ATOM      1  C   UNL     1       8.699   5.933  24.416  0.00  0.00    -0.017 C 
ATOM      2  C   UNL     1       8.007   4.559  24.576  0.00  0.00    +0.070 C 
ATOM      3  N   UNL     1       6.727   4.755  24.688  0.00  0.00    -0.247 NA
ATOM      4  C   UNL     1       6.426   6.041  24.201  0.00  0.00    +0.070 C 
ATOM      5  C   UNL     1       5.228   6.518  23.735  0.00  0.00    +0.054 C 
ATOM      6  C   UNL     1       4.177   5.613  23.376  0.00  0.00    +0.048 A 
ATOM      7  N   UNL     1       4.476   4.261  23.520  0.00  0.00    -0.343 N 
ATOM      8  C   UNL     1       5.449   3.659  22.599  0.00  0.00    +0.149 C 
ATOM      9  C   UNL     1       3.264   3.640  23.792  0.00  0.00    +0.047 A 
ATOM     10  C   UNL     1       3.276   2.461  24.592  0.00  0.00    +0.054 C 
ATOM     11  C   UNL     1       3.927   2.244  25.763  0.00  0.00    +0.070 C 
ATOM     12  C   UNL     1       4.664   3.129  26.641  0.00  0.00    -0.020 C 
ATOM     13  C   UNL     1       4.423   4.576  26.774  0.00  0.00    +0.046 C 
ATOM     14  C   UNL     1       5.682   2.486  27.286  0.00  0.00    -0.017 C 
ATOM     15  C   UNL     1       5.401   1.110  26.791  0.00  0.00    +0.070 C 
ATOM     16  C   UNL     1       6.499   0.121  26.988  0.00  0.00    +0.054 C 
ATOM     17  C   UNL     1       7.342   0.372  25.964  0.00  0.00    +0.045 A 
ATOM     18  C   UNL     1       7.010   0.264  24.543  0.00  0.00    -0.019 A 
ATOM     19  C   UNL     1       8.089   0.768  23.891  0.00  0.00    -0.022 A 
ATOM     20  C   UNL     1       8.966  -0.484  23.492  0.00  0.00    +0.046 C 
ATOM     21  C   UNL     1       8.711   1.813  24.782  0.00  0.00    +0.045 A 
ATOM     22  N   UNL     1       8.520   1.175  26.055  0.00  0.00    -0.355 N 
ATOM     23  H   UNL     1       9.315   0.560  26.227  0.00  0.00    +0.166 HD
ATOM     24  N   UNL     1       4.348   0.947  26.050  0.00  0.00    -0.247 NA
ATOM     25  C   UNL     1       2.649   4.119  22.628  0.00  0.00    -0.022 A 
ATOM     26  C   UNL     1       2.128   3.296  21.496  0.00  0.00    +0.046 C 
ATOM     27  C   UNL     1       3.043   5.530  22.539  0.00  0.00    -0.019 A 
ATOM     28  C   UNL     1       8.831   3.199  24.803  0.00  0.00    +0.054 C 
ATOM     29  C   UNL     1       7.706   6.576  23.723  0.00  0.00    -0.020 C 
ATOM     30  C   UNL     1       7.677   6.602  22.195  0.00  0.00    +0.046 C 
ENDROOT
BRANCH   1  32
ATOM     31  C   UNL     1      10.463   6.978  26.030  0.00  0.00    +0.009 C 
ATOM     32  C   UNL     1       9.013   6.582  25.789  0.00  0.00    +0.034 C 
ENDBRANCH   1  32
BRANCH  27  33
ATOM     33  C   UNL     1       2.442   6.522  21.575  0.00  0.00    +0.034 C 
ATOM     34  C   UNL     1       1.061   7.050  21.959  0.00  0.00    +0.009 C 
ENDBRANCH  27  33
BRANCH  14  35
ATOM     35  C   UNL     1       6.972   2.956  27.913  0.00  0.00    +0.049 C 
BRANCH  35  36
ATOM     36  C   UNL     1       7.242   3.118  29.405  0.00  0.00    +0.125 C 
BRANCH  36  37
ATOM     37  C   UNL     1       7.292   1.732  30.052  0.00  0.00    +0.305 C 
ATOM     38  O   UNL     1       6.339   1.106  30.481  0.00  0.00    -0.251 OA
BRANCH  37  39
ATOM     39  O   UNL     1       8.554   1.238  30.087  0.00  0.00    -0.481 OA
ATOM     40  H   UNL     1       9.139   1.692  30.728  0.00  0.00    +0.295 HD
ENDBRANCH  37  39
ENDBRANCH  36  37
ENDBRANCH  35  36
ENDBRANCH  14  35
BRANCH  18  41
ATOM     41  C   UNL     1       5.993  -0.690  23.929  0.00  0.00    +0.048 C 
BRANCH  41  42
ATOM     42  C   UNL     1       6.319  -2.040  24.543  0.00  0.00    +0.125 C 
BRANCH  42  43
ATOM     43  C   UNL     1       5.319  -2.831  25.322  0.00  0.00    +0.305 C 
ATOM     44  O   UNL     1       5.639  -3.790  26.013  0.00  0.00    -0.251 OA
BRANCH  43  45
ATOM     45  O   UNL     1       4.033  -2.521  25.077  0.00  0.00    -0.481 OA
ATOM     46  H   UNL     1       3.918  -1.827  24.398  0.00  0.00    +0.295 HD
ENDBRANCH  43  45
ENDBRANCH  42  43
ENDBRANCH  41  42
ENDBRANCH  18  41
TORSDOF 10
ENDMDL
MODEL 7
REMARK VINA RESULT:      -4.5      3.175      6.968
REMARK  Name = 
REMARK  17 active torsions:
REMARK  status: ('A' for Active; 'I' for Inactive)
REMARK    1  A    between atoms: C_1  and  C_2
REMARK    2  A    between atoms: C_2  and  C_3
REMARK    3  A    between atoms: C_4  and  C_5
REMARK    4  A    between atoms: C_9  and  C_10
REMARK    5  A    between atoms: C_10  and  C_11
REMARK    6  A    between atoms: C_12  and  C_13
REMARK    7  A    between atoms: C_26  and  C_27
REMARK    8  A    between atoms: C_28  and  C_29
REMARK    9  A    between atoms: C_29  and  C_30
REMARK   10  A    between atoms: C_30  and  C_31
REMARK   11  A    between atoms: C_31  and  O_32
REMARK   12  A    between atoms: C_34  and  C_35
REMARK   13  A    between atoms: C_35  and  C_36
REMARK   14  A    between atoms: C_36  and  C_37
REMARK   15  A    between atoms: C_37  and  O_38
REMARK   16  A    between atoms: C_40  and  C_41
REMARK   17  A    between atoms: N_42  and  C_43
REMARK                            x       y       z     vdW  Elec       q    Type
REMARK                         _______ _______ _______ _____ _____    ______ ____
ROOT
ATOM      1  C   UNL     1       9.098  -0.563  22.055  0.00  0.00    -0.017 C 
ATOM      2  C   UNL     1       8.012  -1.097  23.019  0.00  0.00    +0.070 C 
ATOM      3  N   UNL     1       7.907  -0.271  24.017  0.00  0.00    -0.247 NA
ATOM      4  C   UNL     1       8.475   0.961  23.641  0.00  0.00    +0.070 C 
ATOM      5  C   UNL     1       8.234   2.206  24.163  0.00  0.00    +0.054 C 
ATOM      6  C   UNL     1       7.079   2.441  24.977  0.00  0.00    +0.048 A 
ATOM      7  N   UNL     1       6.247   1.342  25.167  0.00  0.00    -0.343 N 
ATOM      8  C   UNL     1       5.468   0.848  24.023  0.00  0.00    +0.149 C 
ATOM      9  C   UNL     1       5.657   1.532  26.409  0.00  0.00    +0.047 A 
ATOM     10  C   UNL     1       5.292   0.382  27.166  0.00  0.00    +0.054 C 
ATOM     11  C   UNL     1       6.029  -0.729  27.417  0.00  0.00    +0.070 C 
ATOM     12  C   UNL     1       7.418  -1.051  27.157  0.00  0.00    -0.020 C 
ATOM     13  C   UNL     1       8.508  -0.065  27.065  0.00  0.00    +0.046 C 
ATOM     14  C   UNL     1       7.603  -2.383  26.920  0.00  0.00    -0.017 C 
ATOM     15  C   UNL     1       6.207  -2.833  27.180  0.00  0.00    +0.070 C 
ATOM     16  C   UNL     1       5.876  -4.206  26.701  0.00  0.00    +0.054 C 
ATOM     17  C   UNL     1       5.629  -4.033  25.385  0.00  0.00    +0.045 A 
ATOM     18  C   UNL     1       4.575  -3.190  24.822  0.00  0.00    -0.019 A 
ATOM     19  C   UNL     1       4.807  -3.185  23.484  0.00  0.00    -0.022 A 
ATOM     20  C   UNL     1       3.853  -4.292  22.883  0.00  0.00    +0.046 C 
ATOM     21  C   UNL     1       6.292  -3.345  23.280  0.00  0.00    +0.045 A 
ATOM     22  N   UNL     1       6.573  -4.273  24.340  0.00  0.00    -0.355 N 
ATOM     23  H   UNL     1       6.426  -5.217  23.985  0.00  0.00    +0.166 HD
ATOM     24  N   UNL     1       5.359  -1.938  27.586  0.00  0.00    -0.247 NA
ATOM     25  C   UNL     1       5.126   2.784  26.070  0.00  0.00    -0.022 A 
ATOM     26  C   UNL     1       3.678   3.145  25.998  0.00  0.00    +0.046 C 
ATOM     27  C   UNL     1       6.209   3.483  25.367  0.00  0.00    -0.019 A 
ATOM     28  C   UNL     1       7.358  -2.555  22.858  0.00  0.00    +0.054 C 
ATOM     29  C   UNL     1       8.889   0.778  22.244  0.00  0.00    -0.020 C 
ATOM     30  C   UNL     1       7.942   1.580  21.352  0.00  0.00    +0.046 C 
ENDROOT
BRANCH   1  32
ATOM     31  C   UNL     1      10.585  -2.269  23.354  0.00  0.00    +0.009 C 
ATOM     32  C   UNL     1      10.517  -1.031  22.472  0.00  0.00    +0.034 C 
ENDBRANCH   1  32
BRANCH  27  33
ATOM     33  C   UNL     1       6.186   4.947  25.008  0.00  0.00    +0.034 C 
ATOM     34  C   UNL     1       6.065   5.250  23.516  0.00  0.00    +0.009 C 
ENDBRANCH  27  33
BRANCH  14  35
ATOM     35  C   UNL     1       8.665  -3.168  26.191  0.00  0.00    +0.049 C 
BRANCH  35  36
ATOM     36  C   UNL     1       9.168  -4.561  26.556  0.00  0.00    +0.125 C 
BRANCH  36  37
ATOM     37  C   UNL     1       9.672  -5.253  25.287  0.00  0.00    +0.305 C 
ATOM     38  O   UNL     1       8.979  -5.708  24.395  0.00  0.00    -0.251 OA
BRANCH  37  39
ATOM     39  O   UNL     1      11.027  -5.297  25.241  0.00  0.00    -0.481 OA
ATOM     40  H   UNL     1      11.454  -5.244  26.122  0.00  0.00    +0.295 HD
ENDBRANCH  37  39
ENDBRANCH  36  37
ENDBRANCH  35  36
ENDBRANCH  14  35
BRANCH  18  41
ATOM     41  C   UNL     1       3.231  -2.877  25.470  0.00  0.00    +0.048 C 
BRANCH  41  42
ATOM     42  C   UNL     1       2.762  -4.208  26.031  0.00  0.00    +0.125 C 
BRANCH  42  43
ATOM     43  C   UNL     1       2.249  -4.355  27.426  0.00  0.00    +0.305 C 
ATOM     44  O   UNL     1       1.279  -5.052  27.696  0.00  0.00    -0.251 OA
BRANCH  43  45
ATOM     45  O   UNL     1       2.821  -3.540  28.331  0.00  0.00    -0.481 OA
ATOM     46  H   UNL     1       2.178  -3.058  28.888  0.00  0.00    +0.295 HD
ENDBRANCH  43  45
ENDBRANCH  42  43
ENDBRANCH  41  42
ENDBRANCH  18  41
TORSDOF 10
ENDMDL
MODEL 8
REMARK VINA RESULT:      -4.3      3.039      7.361
REMARK  Name = 
REMARK  17 active torsions:
REMARK  status: ('A' for Active; 'I' for Inactive)
REMARK    1  A    between atoms: C_1  and  C_2
REMARK    2  A    between atoms: C_2  and  C_3
REMARK    3  A    between atoms: C_4  and  C_5
REMARK    4  A    between atoms: C_9  and  C_10
REMARK    5  A    between atoms: C_10  and  C_11
REMARK    6  A    between atoms: C_12  and  C_13
REMARK    7  A    between atoms: C_26  and  C_27
REMARK    8  A    between atoms: C_28  and  C_29
REMARK    9  A    between atoms: C_29  and  C_30
REMARK   10  A    between atoms: C_30  and  C_31
REMARK   11  A    between atoms: C_31  and  O_32
REMARK   12  A    between atoms: C_34  and  C_35
REMARK   13  A    between atoms: C_35  and  C_36
REMARK   14  A    between atoms: C_36  and  C_37
REMARK   15  A    between atoms: C_37  and  O_38
REMARK   16  A    between atoms: C_40  and  C_41
REMARK   17  A    between atoms: N_42  and  C_43
REMARK                            x       y       z     vdW  Elec       q    Type
REMARK                         _______ _______ _______ _____ _____    ______ ____
ROOT
ATOM      1  C   UNL     1       9.368   2.517  24.435  0.00  0.00    -0.017 C 
ATOM      2  C   UNL     1       8.201   3.181  25.204  0.00  0.00    +0.070 C 
ATOM      3  N   UNL     1       7.119   2.495  24.981  0.00  0.00    -0.247 NA
ATOM      4  C   UNL     1       7.486   1.220  24.508  0.00  0.00    +0.070 C 
ATOM      5  C   UNL     1       6.761   0.057  24.541  0.00  0.00    +0.054 C 
ATOM      6  C   UNL     1       5.616  -0.060  25.395  0.00  0.00    +0.048 A 
ATOM      7  N   UNL     1       5.330   1.059  26.170  0.00  0.00    -0.343 N 
ATOM      8  C   UNL     1       6.244   1.401  27.269  0.00  0.00    +0.149 C 
ATOM      9  C   UNL     1       3.955   1.039  26.359  0.00  0.00    +0.047 A 
ATOM     10  C   UNL     1       3.278   2.281  26.523  0.00  0.00    +0.054 C 
ATOM     11  C   UNL     1       3.403   3.412  25.782  0.00  0.00    +0.070 C 
ATOM     12  C   UNL     1       4.104   3.688  24.545  0.00  0.00    -0.020 C 
ATOM     13  C   UNL     1       4.389   2.692  23.498  0.00  0.00    +0.046 C 
ATOM     14  C   UNL     1       4.554   4.976  24.484  0.00  0.00    -0.017 C 
ATOM     15  C   UNL     1       3.950   5.464  25.755  0.00  0.00    +0.070 C 
ATOM     16  C   UNL     1       4.482   6.763  26.259  0.00  0.00    +0.054 C 
ATOM     17  C   UNL     1       5.630   6.418  26.878  0.00  0.00    +0.045 A 
ATOM     18  C   UNL     1       5.741   5.514  28.023  0.00  0.00    -0.019 A 
ATOM     19  C   UNL     1       7.075   5.331  28.197  0.00  0.00    -0.022 A 
ATOM     20  C   UNL     1       7.501   6.353  29.323  0.00  0.00    +0.046 C 
ATOM     21  C   UNL     1       7.731   5.453  26.845  0.00  0.00    +0.045 A 
ATOM     22  N   UNL     1       6.932   6.512  26.295  0.00  0.00    -0.355 N 
ATOM     23  H   UNL     1       7.344   7.402  26.573  0.00  0.00    +0.166 HD
ATOM     24  N   UNL     1       3.199   4.636  26.414  0.00  0.00    -0.247 NA
ATOM     25  C   UNL     1       3.957  -0.244  26.924  0.00  0.00    -0.022 A 
ATOM     26  C   UNL     1       3.547  -0.603  28.315  0.00  0.00    +0.046 C 
ATOM     27  C   UNL     1       4.854  -1.036  26.074  0.00  0.00    -0.019 A 
ATOM     28  C   UNL     1       8.346   4.608  25.926  0.00  0.00    +0.054 C 
ATOM     29  C   UNL     1       8.954   1.214  24.532  0.00  0.00    -0.020 C 
ATOM     30  C   UNL     1       9.413   0.306  25.673  0.00  0.00    +0.046 C 
ENDROOT
BRANCH   1  32
ATOM     31  C   UNL     1       9.827   1.993  21.920  0.00  0.00    +0.009 C 
ATOM     32  C   UNL     1       9.457   3.028  22.973  0.00  0.00    +0.034 C 
ENDBRANCH   1  32
BRANCH  27  33
ATOM     33  C   UNL     1       4.998  -2.535  26.152  0.00  0.00    +0.034 C 
ATOM     34  C   UNL     1       6.262  -3.032  26.854  0.00  0.00    +0.009 C 
ENDBRANCH  27  33
BRANCH  14  35
ATOM     35  C   UNL     1       5.662   5.651  23.712  0.00  0.00    +0.049 C 
BRANCH  35  36
ATOM     36  C   UNL     1       6.444   5.052  22.548  0.00  0.00    +0.125 C 
BRANCH  36  37
ATOM     37  C   UNL     1       7.517   6.051  22.107  0.00  0.00    +0.305 C 
ATOM     38  O   UNL     1       8.580   6.254  22.665  0.00  0.00    -0.251 OA
BRANCH  37  39
ATOM     39  O   UNL     1       7.161   6.704  20.973  0.00  0.00    -0.481 OA
ATOM     40  H   UNL     1       7.656   6.415  20.179  0.00  0.00    +0.295 HD
ENDBRANCH  37  39
ENDBRANCH  36  37
ENDBRANCH  35  36
ENDBRANCH  14  35
BRANCH  18  41
ATOM     41  C   UNL     1       4.688   5.298  29.103  0.00  0.00    +0.048 C 
BRANCH  41  42
ATOM     42  C   UNL     1       4.851   3.843  29.507  0.00  0.00    +0.125 C 
BRANCH  42  43
ATOM     43  C   UNL     1       3.698   2.995  29.934  0.00  0.00    +0.305 C 
ATOM     44  O   UNL     1       3.852   1.911  30.483  0.00  0.00    -0.251 OA
BRANCH  43  45
ATOM     45  O   UNL     1       2.492   3.425  29.524  0.00  0.00    -0.481 OA
ATOM     46  H   UNL     1       2.353   4.385  29.650  0.00  0.00    +0.295 HD
ENDBRANCH  43  45
ENDBRANCH  42  43
ENDBRANCH  41  42
ENDBRANCH  18  41
TORSDOF 10
ENDMDL
MODEL 9
REMARK VINA RESULT:      -4.2      2.329      6.475
REMARK  Name = 
REMARK  17 active torsions:
REMARK  status: ('A' for Active; 'I' for Inactive)
REMARK    1  A    between atoms: C_1  and  C_2
REMARK    2  A    between atoms: C_2  and  C_3
REMARK    3  A    between atoms: C_4  and  C_5
REMARK    4  A    between atoms: C_9  and  C_10
REMARK    5  A    between atoms: C_10  and  C_11
REMARK    6  A    between atoms: C_12  and  C_13
REMARK    7  A    between atoms: C_26  and  C_27
REMARK    8  A    between atoms: C_28  and  C_29
REMARK    9  A    between atoms: C_29  and  C_30
REMARK   10  A    between atoms: C_30  and  C_31
REMARK   11  A    between atoms: C_31  and  O_32
REMARK   12  A    between atoms: C_34  and  C_35
REMARK   13  A    between atoms: C_35  and  C_36
REMARK   14  A    between atoms: C_36  and  C_37
REMARK   15  A    between atoms: C_37  and  O_38
REMARK   16  A    between atoms: C_40  and  C_41
REMARK   17  A    between atoms: N_42  and  C_43
REMARK                            x       y       z     vdW  Elec       q    Type
REMARK                         _______ _______ _______ _____ _____    ______ ____
ROOT
ATOM      1  C   UNL     1       5.927   3.333  22.304  0.00  0.00    -0.017 C 
ATOM      2  C   UNL     1       6.174   2.043  23.120  0.00  0.00    +0.070 C 
ATOM      3  N   UNL     1       6.005   2.315  24.380  0.00  0.00    -0.247 NA
ATOM      4  C   UNL     1       5.266   3.509  24.485  0.00  0.00    +0.070 C 
ATOM      5  C   UNL     1       4.508   3.952  25.538  0.00  0.00    +0.054 C 
ATOM      6  C   UNL     1       4.107   3.048  26.575  0.00  0.00    +0.048 A 
ATOM      7  N   UNL     1       4.524   1.730  26.415  0.00  0.00    -0.343 N 
ATOM      8  C   UNL     1       3.917   0.931  25.342  0.00  0.00    +0.149 C 
ATOM      9  C   UNL     1       4.657   1.224  27.701  0.00  0.00    +0.047 A 
ATOM     10  C   UNL     1       5.625   0.204  27.926  0.00  0.00    +0.054 C 
ATOM     11  C   UNL     1       6.919   0.165  27.517  0.00  0.00    +0.070 C 
ATOM     12  C   UNL     1       7.765   1.155  26.883  0.00  0.00    -0.020 C 
ATOM     13  C   UNL     1       7.612   2.613  27.030  0.00  0.00    +0.046 C 
ATOM     14  C   UNL     1       8.689   0.588  26.052  0.00  0.00    -0.017 C 
ATOM     15  C   UNL     1       8.381  -0.839  26.347  0.00  0.00    +0.070 C 
ATOM     16  C   UNL     1       8.944  -1.828  25.384  0.00  0.00    +0.054 C 
ATOM     17  C   UNL     1       8.073  -1.801  24.353  0.00  0.00    +0.045 A 
ATOM     18  C   UNL     1       6.652  -2.140  24.431  0.00  0.00    -0.019 A 
ATOM     19  C   UNL     1       6.146  -1.810  23.215  0.00  0.00    -0.022 A 
ATOM     20  C   UNL     1       6.132  -3.151  22.382  0.00  0.00    +0.046 C 
ATOM     21  C   UNL     1       6.956  -0.655  22.684  0.00  0.00    +0.045 A 
ATOM     22  N   UNL     1       8.256  -1.050  23.151  0.00  0.00    -0.355 N 
ATOM     23  H   UNL     1       8.675  -1.662  22.451  0.00  0.00    +0.166 HD
ATOM     24  N   UNL     1       7.489  -1.080  27.259  0.00  0.00    -0.247 NA
ATOM     25  C   UNL     1       3.334   1.520  28.056  0.00  0.00    -0.022 A 
ATOM     26  C   UNL     1       2.273   0.537  28.427  0.00  0.00    +0.046 C 
ATOM     27  C   UNL     1       3.093   2.874  27.542  0.00  0.00    -0.019 A 
ATOM     28  C   UNL     1       6.773   0.707  22.460  0.00  0.00    +0.054 C 
ATOM     29  C   UNL     1       4.961   3.891  23.101  0.00  0.00    -0.020 C 
ATOM     30  C   UNL     1       3.473   3.650  22.852  0.00  0.00    +0.046 C 
ENDROOT
BRANCH   1  32
ATOM     31  C   UNL     1       7.005   5.706  22.172  0.00  0.00    +0.009 C 
ATOM     32  C   UNL     1       7.210   4.198  22.193  0.00  0.00    +0.034 C 
ENDBRANCH   1  32
BRANCH  27  33
ATOM     33  C   UNL     1       1.883   3.709  27.878  0.00  0.00    +0.034 C 
ATOM     34  C   UNL     1       1.835   4.238  29.311  0.00  0.00    +0.009 C 
ENDBRANCH  27  33
BRANCH  14  35
ATOM     35  C   UNL     1       9.467   1.100  24.864  0.00  0.00    +0.049 C 
BRANCH  35  36
ATOM     36  C   UNL     1       9.548   2.549  24.396  0.00  0.00    +0.125 C 
BRANCH  36  37
ATOM     37  C   UNL     1      10.274   2.593  23.049  0.00  0.00    +0.305 C 
ATOM     38  O   UNL     1      10.167   1.780  22.149  0.00  0.00    -0.251 OA
BRANCH  37  39
ATOM     39  O   UNL     1      11.072   3.685  22.944  0.00  0.00    -0.481 OA
ATOM     40  H   UNL     1      11.327   3.900  22.022  0.00  0.00    +0.295 HD
ENDBRANCH  37  39
ENDBRANCH  36  37
ENDBRANCH  35  36
ENDBRANCH  14  35
BRANCH  18  41
ATOM     41  C   UNL     1       6.018  -3.138  25.392  0.00  0.00    +0.048 C 
BRANCH  41  42
ATOM     42  C   UNL     1       4.623  -2.593  25.641  0.00  0.00    +0.125 C 
BRANCH  42  43
ATOM     43  C   UNL     1       3.391  -3.300  25.180  0.00  0.00    +0.305 C 
ATOM     44  O   UNL     1       2.266  -2.878  25.420  0.00  0.00    -0.251 OA
BRANCH  43  45
ATOM     45  O   UNL     1       3.600  -4.511  24.634  0.00  0.00    -0.481 OA
ATOM     46  H   UNL     1       3.699  -4.493  23.662  0.00  0.00    +0.295 HD
ENDBRANCH  43  45
ENDBRANCH  42  43
ENDBRANCH  41  42
ENDBRANCH  18  41
TORSDOF 10
ENDMDL
