MODEL 1
REMARK VINA RESULT:      -4.7      0.000      0.000
REMARK  Name = 
REMARK  12 active torsions:
REMARK  status: ('A' for Active; 'I' for Inactive)
REMARK    1  A    between atoms: N_2  and  C_4
REMARK    2  A    between atoms: C_4  and  C_5
REMARK    3  A    between atoms: C_5  and  C_7
REMARK    4  A    between atoms: C_7  and  C_8
REMARK    5  A    between atoms: C_8  and  C_9
REMARK    6  A    between atoms: C_9  and  O_11
REMARK    7  A    between atoms: O_11  and  C_12
REMARK    8  A    between atoms: C_12  and  C_13
REMARK    9  A    between atoms: C_13  and  C_14
REMARK   10  A    between atoms: C_14  and  C_15
REMARK   11  A    between atoms: C_15  and  C_16
REMARK   12  A    between atoms: C_16  and  C_17
REMARK                            x       y       z     vdW  Elec       q    Type
REMARK                         _______ _______ _______ _____ _____    ______ ____
ROOT
ATOM      1  C   UNL     1       9.680  -1.906  23.085  0.00  0.00    +0.307 C 
ATOM      2  O   UNL     1      10.587  -1.930  22.265  0.00  0.00    -0.251 OA
ENDROOT
BRANCH   1   3
ATOM      3  C   UNL     1       8.271  -2.360  22.793  0.00  0.00    +0.128 C 
BRANCH   3   4
ATOM      4  C   UNL     1       7.654  -3.183  23.919  0.00  0.00    +0.087 C 
BRANCH   4   5
ATOM      5  C   UNL     1       8.030  -4.646  23.845  0.00  0.00    +0.147 C 
ATOM      6  O   UNL     1       7.693  -5.368  22.905  0.00  0.00    -0.296 OA
BRANCH   5   7
ATOM      7  C   UNL     1       8.795  -5.188  25.053  0.00  0.00    +0.152 C 
BRANCH   7   9
ATOM      8  H   UNL     1      10.704  -5.099  25.780  0.00  0.00    +0.119 HD
ATOM      9  N   UNL     1      10.233  -4.973  24.887  0.00  0.00    -0.324 NA
ATOM     10  H   UNL     1      10.594  -5.697  24.258  0.00  0.00    +0.119 HD
ENDBRANCH   7   9
ENDBRANCH   5   7
ENDBRANCH   4   5
ENDBRANCH   3   4
ENDBRANCH   1   3
BRANCH   1  11
ATOM     11  O   UNL     1       9.841  -1.659  24.413  0.00  0.00    -0.465 OA
BRANCH  11  12
ATOM     12  C   UNL     1       9.542  -0.321  24.810  0.00  0.00    +0.232 C 
BRANCH  12  13
ATOM     13  C   UNL     1      10.654   0.646  24.431  0.00  0.00    +0.041 C 
BRANCH  13  14
ATOM     14  C   UNL     1      10.059   1.804  23.629  0.00  0.00    +0.003 C 
BRANCH  14  15
ATOM     15  C   UNL     1      10.124   1.575  22.125  0.00  0.00    -0.000 C 
BRANCH  15  16
ATOM     16  C   UNL     1       8.727   1.374  21.552  0.00  0.00    -0.003 C 
ATOM     17  C   UNL     1       7.775   2.477  21.993  0.00  0.00    +0.004 C 
ENDBRANCH  15  16
ENDBRANCH  14  15
ENDBRANCH  13  14
ENDBRANCH  12  13
ENDBRANCH  11  12
ENDBRANCH   1  11
TORSDOF 11
ENDMDL
MODEL 2
REMARK VINA RESULT:      -4.5      2.672      5.957
REMARK  Name = 
REMARK  12 active torsions:
REMARK  status: ('A' for Active; 'I' for Inactive)
REMARK    1  A    between atoms: N_2  and  C_4
REMARK    2  A    between atoms: C_4  and  C_5
REMARK    3  A    between atoms: C_5  and  C_7
REMARK    4  A    between atoms: C_7  and  C_8
REMARK    5  A    between atoms: C_8  and  C_9
REMARK    6  A    between atoms: C_9  and  O_11
REMARK    7  A    between atoms: O_11  and  C_12
REMARK    8  A    between atoms: C_12  and  C_13
REMARK    9  A    between atoms: C_13  and  C_14
REMARK   10  A    between atoms: C_14  and  C_15
REMARK   11  A    between atoms: C_15  and  C_16
REMARK   12  A    between atoms: C_16  and  C_17
REMARK                            x       y       z     vdW  Elec       q    Type
REMARK                         _______ _______ _______ _____ _____    ______ ____
ROOT
ATOM      1  C   UNL     1      10.215  -1.887  23.254  0.00  0.00    +0.307 C 
ATOM      2  O   UNL     1      10.506  -1.732  22.077  0.00  0.00    -0.251 OA
ENDROOT
BRANCH   1   3
ATOM      3  C   UNL     1       9.619  -0.805  24.123  0.00  0.00    +0.128 C 
BRANCH   3   4
ATOM      4  C   UNL     1      10.601   0.310  24.462  0.00  0.00    +0.087 C 
BRANCH   4   5
ATOM      5  C   UNL     1      10.335   1.578  23.682  0.00  0.00    +0.147 C 
ATOM      6  O   UNL     1      11.024   2.591  23.815  0.00  0.00    -0.296 OA
BRANCH   5   7
ATOM      7  C   UNL     1       9.108   1.543  22.772  0.00  0.00    +0.152 C 
BRANCH   7   9
ATOM      8  H   UNL     1       9.588   1.027  20.852  0.00  0.00    +0.119 HD
ATOM      9  N   UNL     1       9.481   1.880  21.397  0.00  0.00    -0.324 NA
ATOM     10  H   UNL     1       8.708   2.404  20.975  0.00  0.00    +0.119 HD
ENDBRANCH   7   9
ENDBRANCH   5   7
ENDBRANCH   4   5
ENDBRANCH   3   4
ENDBRANCH   1   3
BRANCH   1  11
ATOM     11  O   UNL     1      10.199  -3.085  23.899  0.00  0.00    -0.465 OA
BRANCH  11  12
ATOM     12  C   UNL     1       9.058  -3.299  24.729  0.00  0.00    +0.232 C 
BRANCH  12  13
ATOM     13  C   UNL     1       8.787  -4.779  24.952  0.00  0.00    +0.041 C 
BRANCH  13  14
ATOM     14  C   UNL     1       7.331  -5.080  24.598  0.00  0.00    +0.003 C 
BRANCH  14  15
ATOM     15  C   UNL     1       6.957  -4.621  23.195  0.00  0.00    -0.000 C 
BRANCH  15  16
ATOM     16  C   UNL     1       7.278  -5.706  22.174  0.00  0.00    -0.003 C 
ATOM     17  C   UNL     1       6.179  -5.836  21.128  0.00  0.00    +0.004 C 
ENDBRANCH  15  16
ENDBRANCH  14  15
ENDBRANCH  13  14
ENDBRANCH  12  13
ENDBRANCH  11  12
ENDBRANCH   1  11
TORSDOF 11
ENDMDL
MODEL 3
REMARK VINA RESULT:      -4.4      2.277      3.418
REMARK  Name = 
REMARK  12 active torsions:
REMARK  status: ('A' for Active; 'I' for Inactive)
REMARK    1  A    between atoms: N_2  and  C_4
REMARK    2  A    between atoms: C_4  and  C_5
REMARK    3  A    between atoms: C_5  and  C_7
REMARK    4  A    between atoms: C_7  and  C_8
REMARK    5  A    between atoms: C_8  and  C_9
REMARK    6  A    between atoms: C_9  and  O_11
REMARK    7  A    between atoms: O_11  and  C_12
REMARK    8  A    between atoms: C_12  and  C_13
REMARK    9  A    between atoms: C_13  and  C_14
REMARK   10  A    between atoms: C_14  and  C_15
REMARK   11  A    between atoms: C_15  and  C_16
REMARK   12  A    between atoms: C_16  and  C_17
REMARK                            x       y       z     vdW  Elec       q    Type
REMARK                         _______ _______ _______ _____ _____    ______ ____
ROOT
ATOM      1  C   UNL     1       6.264  -3.503  22.663  0.00  0.00    +0.307 C 
ATOM      2  O   UNL     1       5.219  -3.667  22.051  0.00  0.00    -0.251 OA
ENDROOT
BRANCH   1   3
ATOM      3  C   UNL     1       6.467  -3.904  24.104  0.00  0.00    +0.128 C 
BRANCH   3   4
ATOM      4  C   UNL     1       7.402  -5.096  24.275  0.00  0.00    +0.087 C 
BRANCH   4   5
ATOM      5  C   UNL     1       8.622  -4.766  25.105  0.00  0.00    +0.147 C 
ATOM      6  O   UNL     1       9.762  -4.775  24.637  0.00  0.00    -0.296 OA
BRANCH   5   7
ATOM      7  C   UNL     1       8.354  -4.490  26.585  0.00  0.00    +0.152 C 
BRANCH   7   9
ATOM      8  H   UNL     1       8.276  -6.529  26.714  0.00  0.00    +0.119 HD
ATOM      9  N   UNL     1       8.003  -5.729  27.281  0.00  0.00    -0.324 NA
ATOM     10  H   UNL     1       8.553  -5.779  28.144  0.00  0.00    +0.119 HD
ENDBRANCH   7   9
ENDBRANCH   5   7
ENDBRANCH   4   5
ENDBRANCH   3   4
ENDBRANCH   1   3
BRANCH   1  11
ATOM     11  O   UNL     1       7.443  -3.125  22.098  0.00  0.00    -0.465 OA
BRANCH  11  12
ATOM     12  C   UNL     1       7.911  -1.839  22.501  0.00  0.00    +0.232 C 
BRANCH  12  13
ATOM     13  C   UNL     1       9.229  -1.479  21.833  0.00  0.00    +0.041 C 
BRANCH  13  14
ATOM     14  C   UNL     1      10.270  -1.176  22.911  0.00  0.00    +0.003 C 
BRANCH  14  15
ATOM     15  C   UNL     1       9.705  -1.278  24.322  0.00  0.00    -0.000 C 
BRANCH  15  16
ATOM     16  C   UNL     1       9.984  -0.001  25.104  0.00  0.00    -0.003 C 
ATOM     17  C   UNL     1      10.973   0.899  24.377  0.00  0.00    +0.004 C 
ENDBRANCH  15  16
ENDBRANCH  14  15
ENDBRANCH  13  14
ENDBRANCH  12  13
ENDBRANCH  11  12
ENDBRANCH   1  11
TORSDOF 11
ENDMDL
MODEL 4
REMARK VINA RESULT:      -4.4      2.141      2.293
REMARK  Name = 
REMARK  12 active torsions:
REMARK  status: ('A' for Active; 'I' for Inactive)
REMARK    1  A    between atoms: N_2  and  C_4
REMARK    2  A    between atoms: C_4  and  C_5
REMARK    3  A    between atoms: C_5  and  C_7
REMARK    4  A    between atoms: C_7  and  C_8
REMARK    5  A    between atoms: C_8  and  C_9
REMARK    6  A    between atoms: C_9  and  O_11
REMARK    7  A    between atoms: O_11  and  C_12
REMARK    8  A    between atoms: C_12  and  C_13
REMARK    9  A    between atoms: C_13  and  C_14
REMARK   10  A    between atoms: C_14  and  C_15
REMARK   11  A    between atoms: C_15  and  C_16
REMARK   12  A    between atoms: C_16  and  C_17
REMARK                            x       y       z     vdW  Elec       q    Type
REMARK                         _______ _______ _______ _____ _____    ______ ____
ROOT
ATOM      1  C   UNL     1       9.498  -2.441  23.705  0.00  0.00    +0.307 C 
ATOM      2  O   UNL     1      10.065  -3.450  24.097  0.00  0.00    -0.251 OA
ENDROOT
BRANCH   1   3
ATOM      3  C   UNL     1       8.362  -2.446  22.711  0.00  0.00    +0.128 C 
BRANCH   3   4
ATOM      4  C   UNL     1       7.178  -3.300  23.149  0.00  0.00    +0.087 C 
BRANCH   4   5
ATOM      5  C   UNL     1       6.498  -3.994  21.989  0.00  0.00    +0.147 C 
ATOM      6  O   UNL     1       5.609  -3.456  21.327  0.00  0.00    -0.296 OA
BRANCH   5   7
ATOM      7  C   UNL     1       6.938  -5.437  21.740  0.00  0.00    +0.152 C 
BRANCH   7   9
ATOM      8  H   UNL     1       5.054  -5.723  20.999  0.00  0.00    +0.119 HD
ATOM      9  N   UNL     1       5.779  -6.281  21.444  0.00  0.00    -0.324 NA
ATOM     10  H   UNL     1       6.066  -6.990  20.762  0.00  0.00    +0.119 HD
ENDBRANCH   7   9
ENDBRANCH   5   7
ENDBRANCH   4   5
ENDBRANCH   3   4
ENDBRANCH   1   3
BRANCH   1  11
ATOM     11  O   UNL     1       9.664  -1.200  24.239  0.00  0.00    -0.465 OA
BRANCH  11  12
ATOM     12  C   UNL     1      10.576  -0.364  23.528  0.00  0.00    +0.232 C 
BRANCH  12  13
ATOM     13  C   UNL     1      10.661   1.028  24.136  0.00  0.00    +0.041 C 
BRANCH  13  14
ATOM     14  C   UNL     1      10.130   2.047  23.128  0.00  0.00    +0.003 C 
BRANCH  14  15
ATOM     15  C   UNL     1       9.636   1.401  21.840  0.00  0.00    -0.000 C 
BRANCH  15  16
ATOM     16  C   UNL     1       8.187   1.784  21.570  0.00  0.00    -0.003 C 
ATOM     17  C   UNL     1       7.237   1.121  22.557  0.00  0.00    +0.004 C 
ENDBRANCH  15  16
ENDBRANCH  14  15
ENDBRANCH  13  14
ENDBRANCH  12  13
ENDBRANCH  11  12
ENDBRANCH   1  11
TORSDOF 11
ENDMDL
MODEL 5
REMARK VINA RESULT:      -4.3      2.476      3.168
REMARK  Name = 
REMARK  12 active torsions:
REMARK  status: ('A' for Active; 'I' for Inactive)
REMARK    1  A    between atoms: N_2  and  C_4
REMARK    2  A    between atoms: C_4  and  C_5
REMARK    3  A    between atoms: C_5  and  C_7
REMARK    4  A    between atoms: C_7  and  C_8
REMARK    5  A    between atoms: C_8  and  C_9
REMARK    6  A    between atoms: C_9  and  O_11
REMARK    7  A    between atoms: O_11  and  C_12
REMARK    8  A    between atoms: C_12  and  C_13
REMARK    9  A    between atoms: C_13  and  C_14
REMARK   10  A    between atoms: C_14  and  C_15
REMARK   11  A    between atoms: C_15  and  C_16
REMARK   12  A    between atoms: C_16  and  C_17
REMARK                            x       y       z     vdW  Elec       q    Type
REMARK                         _______ _______ _______ _____ _____    ______ ____
ROOT
ATOM      1  C   UNL     1       8.755  -4.540  24.380  0.00  0.00    +0.307 C 
ATOM      2  O   UNL     1       8.908  -5.514  25.103  0.00  0.00    -0.251 OA
ENDROOT
BRANCH   1   3
ATOM      3  C   UNL     1       7.435  -4.152  23.758  0.00  0.00    +0.128 C 
BRANCH   3   4
ATOM      4  C   UNL     1       7.393  -4.356  22.248  0.00  0.00    +0.087 C 
BRANCH   4   5
ATOM      5  C   UNL     1       6.270  -5.272  21.815  0.00  0.00    +0.147 C 
ATOM      6  O   UNL     1       5.949  -5.408  20.633  0.00  0.00    -0.296 OA
BRANCH   5   7
ATOM      7  C   UNL     1       5.511  -5.960  22.949  0.00  0.00    +0.152 C 
BRANCH   7   9
ATOM      8  H   UNL     1       3.817  -7.082  22.717  0.00  0.00    +0.119 HD
ATOM      9  N   UNL     1       4.097  -6.111  22.600  0.00  0.00    -0.324 NA
ATOM     10  H   UNL     1       3.543  -5.563  23.265  0.00  0.00    +0.119 HD
ENDBRANCH   7   9
ENDBRANCH   5   7
ENDBRANCH   4   5
ENDBRANCH   3   4
ENDBRANCH   1   3
BRANCH   1  11
ATOM     11  O   UNL     1       9.684  -3.565  24.186  0.00  0.00    -0.465 OA
BRANCH  11  12
ATOM     12  C   UNL     1       9.235  -2.246  24.496  0.00  0.00    +0.232 C 
BRANCH  12  13
ATOM     13  C   UNL     1       9.985  -1.189  23.699  0.00  0.00    +0.041 C 
BRANCH  13  14
ATOM     14  C   UNL     1       9.834  -1.488  22.208  0.00  0.00    +0.003 C 
BRANCH  14  15
ATOM     15  C   UNL     1       9.428  -0.263  21.399  0.00  0.00    -0.000 C 
BRANCH  15  16
ATOM     16  C   UNL     1       9.931   1.011  22.066  0.00  0.00    -0.003 C 
ATOM     17  C   UNL     1       8.886   2.117  22.028  0.00  0.00    +0.004 C 
ENDBRANCH  15  16
ENDBRANCH  14  15
ENDBRANCH  13  14
ENDBRANCH  12  13
ENDBRANCH  11  12
ENDBRANCH   1  11
TORSDOF 11
ENDMDL
MODEL 6
REMARK VINA RESULT:      -4.3      2.652      5.494
REMARK  Name = 
REMARK  12 active torsions:
REMARK  status: ('A' for Active; 'I' for Inactive)
REMARK    1  A    between atoms: N_2  and  C_4
REMARK    2  A    between atoms: C_4  and  C_5
REMARK    3  A    between atoms: C_5  and  C_7
REMARK    4  A    between atoms: C_7  and  C_8
REMARK    5  A    between atoms: C_8  and  C_9
REMARK    6  A    between atoms: C_9  and  O_11
REMARK    7  A    between atoms: O_11  and  C_12
REMARK    8  A    between atoms: C_12  and  C_13
REMARK    9  A    between atoms: C_13  and  C_14
REMARK   10  A    between atoms: C_14  and  C_15
REMARK   11  A    between atoms: C_15  and  C_16
REMARK   12  A    between atoms: C_16  and  C_17
REMARK                            x       y       z     vdW  Elec       q    Type
REMARK                         _______ _______ _______ _____ _____    ______ ____
ROOT
ATOM      1  C   UNL     1      10.195   0.124  24.624  0.00  0.00    +0.307 C 
ATOM      2  O   UNL     1      11.258   0.688  24.405  0.00  0.00    -0.251 OA
ENDROOT
BRANCH   1   3
ATOM      3  C   UNL     1       8.918   0.846  24.979  0.00  0.00    +0.128 C 
BRANCH   3   4
ATOM      4  C   UNL     1       8.550   1.947  23.991  0.00  0.00    +0.087 C 
BRANCH   4   5
ATOM      5  C   UNL     1       7.894   1.411  22.738  0.00  0.00    +0.147 C 
ATOM      6  O   UNL     1       6.781   0.883  22.750  0.00  0.00    -0.296 OA
BRANCH   5   7
ATOM      7  C   UNL     1       8.738   1.501  21.466  0.00  0.00    +0.152 C 
BRANCH   7   9
ATOM      8  H   UNL     1      10.722   1.429  21.954  0.00  0.00    +0.119 HD
ATOM      9  N   UNL     1      10.024   2.141  21.751  0.00  0.00    -0.324 NA
ATOM     10  H   UNL     1      10.335   2.625  20.903  0.00  0.00    +0.119 HD
ENDBRANCH   7   9
ENDBRANCH   5   7
ENDBRANCH   4   5
ENDBRANCH   3   4
ENDBRANCH   1   3
BRANCH   1  11
ATOM     11  O   UNL     1       9.955  -1.195  24.394  0.00  0.00    -0.465 OA
BRANCH  11  12
ATOM     12  C   UNL     1      10.149  -1.608  23.041  0.00  0.00    +0.232 C 
BRANCH  12  13
ATOM     13  C   UNL     1       8.857  -2.100  22.407  0.00  0.00    +0.041 C 
BRANCH  13  14
ATOM     14  C   UNL     1       7.948  -2.665  23.499  0.00  0.00    +0.003 C 
BRANCH  14  15
ATOM     15  C   UNL     1       7.832  -4.183  23.444  0.00  0.00    -0.000 C 
BRANCH  15  16
ATOM     16  C   UNL     1       6.737  -4.601  22.472  0.00  0.00    -0.003 C 
ATOM     17  C   UNL     1       7.110  -5.869  21.716  0.00  0.00    +0.004 C 
ENDBRANCH  15  16
ENDBRANCH  14  15
ENDBRANCH  13  14
ENDBRANCH  12  13
ENDBRANCH  11  12
ENDBRANCH   1  11
TORSDOF 11
ENDMDL
MODEL 7
REMARK VINA RESULT:      -4.3      1.776      3.349
REMARK  Name = 
REMARK  12 active torsions:
REMARK  status: ('A' for Active; 'I' for Inactive)
REMARK    1  A    between atoms: N_2  and  C_4
REMARK    2  A    between atoms: C_4  and  C_5
REMARK    3  A    between atoms: C_5  and  C_7
REMARK    4  A    between atoms: C_7  and  C_8
REMARK    5  A    between atoms: C_8  and  C_9
REMARK    6  A    between atoms: C_9  and  O_11
REMARK    7  A    between atoms: O_11  and  C_12
REMARK    8  A    between atoms: C_12  and  C_13
REMARK    9  A    between atoms: C_13  and  C_14
REMARK   10  A    between atoms: C_14  and  C_15
REMARK   11  A    between atoms: C_15  and  C_16
REMARK   12  A    between atoms: C_16  and  C_17
REMARK                            x       y       z     vdW  Elec       q    Type
REMARK                         _______ _______ _______ _____ _____    ______ ____
ROOT
ATOM      1  C   UNL     1       7.073  -5.222  23.146  0.00  0.00    +0.307 C 
ATOM      2  O   UNL     1       6.982  -6.001  22.208  0.00  0.00    -0.251 OA
ENDROOT
BRANCH   1   3
ATOM      3  C   UNL     1       6.398  -5.429  24.480  0.00  0.00    +0.128 C 
BRANCH   3   4
ATOM      4  C   UNL     1       6.894  -4.480  25.564  0.00  0.00    +0.087 C 
BRANCH   4   5
ATOM      5  C   UNL     1       7.865  -5.140  26.518  0.00  0.00    +0.147 C 
ATOM      6  O   UNL     1       7.494  -5.892  27.422  0.00  0.00    -0.296 OA
BRANCH   5   7
ATOM      7  C   UNL     1       9.332  -4.753  26.333  0.00  0.00    +0.152 C 
BRANCH   7   9
ATOM      8  H   UNL     1       9.237  -5.886  24.634  0.00  0.00    +0.119 HD
ATOM      9  N   UNL     1       9.949  -5.573  25.290  0.00  0.00    -0.324 NA
ATOM     10  H   UNL     1      10.599  -4.983  24.761  0.00  0.00    +0.119 HD
ENDBRANCH   7   9
ENDBRANCH   5   7
ENDBRANCH   4   5
ENDBRANCH   3   4
ENDBRANCH   1   3
BRANCH   1  11
ATOM     11  O   UNL     1       7.935  -4.171  23.201  0.00  0.00    -0.465 OA
BRANCH  11  12
ATOM     12  C   UNL     1       7.552  -3.045  22.411  0.00  0.00    +0.232 C 
BRANCH  12  13
ATOM     13  C   UNL     1       8.712  -2.085  22.192  0.00  0.00    +0.041 C 
BRANCH  13  14
ATOM     14  C   UNL     1       9.090  -1.444  23.528  0.00  0.00    +0.003 C 
BRANCH  14  15
ATOM     15  C   UNL     1      10.141  -0.352  23.382  0.00  0.00    -0.000 C 
BRANCH  15  16
ATOM     16  C   UNL     1      10.069   0.279  21.998  0.00  0.00    -0.003 C 
ATOM     17  C   UNL     1       9.768   1.769  22.074  0.00  0.00    +0.004 C 
ENDBRANCH  15  16
ENDBRANCH  14  15
ENDBRANCH  13  14
ENDBRANCH  12  13
ENDBRANCH  11  12
ENDBRANCH   1  11
TORSDOF 11
ENDMDL
MODEL 8
REMARK VINA RESULT:      -4.2      2.814      5.684
REMARK  Name = 
REMARK  12 active torsions:
REMARK  status: ('A' for Active; 'I' for Inactive)
REMARK    1  A    between atoms: N_2  and  C_4
REMARK    2  A    between atoms: C_4  and  C_5
REMARK    3  A    between atoms: C_5  and  C_7
REMARK    4  A    between atoms: C_7  and  C_8
REMARK    5  A    between atoms: C_8  and  C_9
REMARK    6  A    between atoms: C_9  and  O_11
REMARK    7  A    between atoms: O_11  and  C_12
REMARK    8  A    between atoms: C_12  and  C_13
REMARK    9  A    between atoms: C_13  and  C_14
REMARK   10  A    between atoms: C_14  and  C_15
REMARK   11  A    between atoms: C_15  and  C_16
REMARK   12  A    between atoms: C_16  and  C_17
REMARK                            x       y       z     vdW  Elec       q    Type
REMARK                         _______ _______ _______ _____ _____    ______ ____
ROOT
ATOM      1  C   UNL     1       9.433  -3.278  24.521  0.00  0.00    +0.307 C 
ATOM      2  O   UNL     1      10.026  -4.346  24.589  0.00  0.00    -0.251 OA
ENDROOT
BRANCH   1   3
ATOM      3  C   UNL     1       9.856  -2.136  23.629  0.00  0.00    +0.128 C 
BRANCH   3   4
ATOM      4  C   UNL     1       9.462  -0.767  24.170  0.00  0.00    +0.087 C 
BRANCH   4   5
ATOM      5  C   UNL     1      10.193   0.364  23.482  0.00  0.00    +0.147 C 
ATOM      6  O   UNL     1      10.959   1.118  24.085  0.00  0.00    -0.296 OA
BRANCH   5   7
ATOM      7  C   UNL     1       9.860   0.556  22.002  0.00  0.00    +0.152 C 
BRANCH   7   9
ATOM      8  H   UNL     1      10.540   2.070  20.808  0.00  0.00    +0.119 HD
ATOM      9  N   UNL     1       9.956   1.970  21.635  0.00  0.00    -0.324 NA
ATOM     10  H   UNL     1       9.020   2.297  21.376  0.00  0.00    +0.119 HD
ENDBRANCH   7   9
ENDBRANCH   5   7
ENDBRANCH   4   5
ENDBRANCH   3   4
ENDBRANCH   1   3
BRANCH   1  11
ATOM     11  O   UNL     1       8.216  -3.030  25.076  0.00  0.00    -0.465 OA
BRANCH  11  12
ATOM     12  C   UNL     1       7.530  -4.189  25.548  0.00  0.00    +0.232 C 
BRANCH  12  13
ATOM     13  C   UNL     1       6.501  -4.689  24.544  0.00  0.00    +0.041 C 
BRANCH  13  14
ATOM     14  C   UNL     1       5.894  -3.491  23.813  0.00  0.00    +0.003 C 
BRANCH  14  15
ATOM     15  C   UNL     1       6.054  -3.581  22.301  0.00  0.00    -0.000 C 
BRANCH  15  16
ATOM     16  C   UNL     1       6.937  -4.763  21.925  0.00  0.00    -0.003 C 
ATOM     17  C   UNL     1       6.232  -5.709  20.963  0.00  0.00    +0.004 C 
ENDBRANCH  15  16
ENDBRANCH  14  15
ENDBRANCH  13  14
ENDBRANCH  12  13
ENDBRANCH  11  12
ENDBRANCH   1  11
TORSDOF 11
ENDMDL
MODEL 9
REMARK VINA RESULT:      -4.2      2.824      6.404
REMARK  Name = 
REMARK  12 active torsions:
REMARK  status: ('A' for Active; 'I' for Inactive)
REMARK    1  A    between atoms: N_2  and  C_4
REMARK    2  A    between atoms: C_4  and  C_5
REMARK    3  A    between atoms: C_5  and  C_7
REMARK    4  A    between atoms: C_7  and  C_8
REMARK    5  A    between atoms: C_8  and  C_9
REMARK    6  A    between atoms: C_9  and  O_11
REMARK    7  A    between atoms: O_11  and  C_12
REMARK    8  A    between atoms: C_12  and  C_13
REMARK    9  A    between atoms: C_13  and  C_14
REMARK   10  A    between atoms: C_14  and  C_15
REMARK   11  A    between atoms: C_15  and  C_16
REMARK   12  A    between atoms: C_16  and  C_17
REMARK                            x       y       z     vdW  Elec       q    Type
REMARK                         _______ _______ _______ _____ _____    ______ ____
ROOT
ATOM      1  C   UNL     1      10.168  -1.921  23.311  0.00  0.00    +0.307 C 
ATOM      2  O   UNL     1      10.392  -1.752  22.121  0.00  0.00    -0.251 OA
ENDROOT
BRANCH   1   3
ATOM      3  C   UNL     1       9.658  -0.840  24.233  0.00  0.00    +0.128 C 
BRANCH   3   4
ATOM      4  C   UNL     1      10.593   0.360  24.335  0.00  0.00    +0.087 C 
BRANCH   4   5
ATOM      5  C   UNL     1       9.989   1.621  23.757  0.00  0.00    +0.147 C 
ATOM      6  O   UNL     1       9.272   2.373  24.419  0.00  0.00    -0.296 OA
BRANCH   5   7
ATOM      7  C   UNL     1      10.267   1.860  22.273  0.00  0.00    +0.152 C 
BRANCH   7   9
ATOM      8  H   UNL     1       9.027   3.066  21.183  0.00  0.00    +0.119 HD
ATOM      9  N   UNL     1       9.019   2.119  21.553  0.00  0.00    -0.324 NA
ATOM     10  H   UNL     1       8.977   1.488  20.747  0.00  0.00    +0.119 HD
ENDBRANCH   7   9
ENDBRANCH   5   7
ENDBRANCH   4   5
ENDBRANCH   3   4
ENDBRANCH   1   3
BRANCH   1  11
ATOM     11  O   UNL     1      10.153  -3.130  23.933  0.00  0.00    -0.465 OA
BRANCH  11  12
ATOM     12  C   UNL     1       8.928  -3.445  24.595  0.00  0.00    +0.232 C 
BRANCH  12  13
ATOM     13  C   UNL     1       8.248  -4.661  23.983  0.00  0.00    +0.041 C 
BRANCH  13  14
ATOM     14  C   UNL     1       6.811  -4.741  24.497  0.00  0.00    +0.003 C 
BRANCH  14  15
ATOM     15  C   UNL     1       6.725  -5.241  25.933  0.00  0.00    -0.000 C 
BRANCH  15  16
ATOM     16  C   UNL     1       5.521  -6.157  26.110  0.00  0.00    -0.003 C 
ATOM     17  C   UNL     1       4.804  -6.406  24.791  0.00  0.00    +0.004 C 
ENDBRANCH  15  16
ENDBRANCH  14  15
ENDBRANCH  13  14
ENDBRANCH  12  13
ENDBRANCH  11  12
ENDBRANCH   1  11
TORSDOF 11
ENDMDL
