MODEL 1
REMARK VINA RESULT:      -5.9      0.000      0.000
REMARK  Name = 
REMARK  3 active torsions:
REMARK  status: ('A' for Active; 'I' for Inactive)
REMARK    1  A    between atoms: C_2  and  C_4
REMARK    2  A    between atoms: C_5  and  N_6
REMARK    3  A    between atoms: C_7  and  C_9
REMARK                            x       y       z     vdW  Elec       q    Type
REMARK                         _______ _______ _______ _____ _____    ______ ____
ROOT
ATOM      1  C   UNL     1       7.366  -4.302  23.920  0.00  0.00    +0.068 A 
ATOM      2  C   UNL     1       6.077  -4.910  24.219  0.00  0.00    -0.023 A 
ATOM      3  C   UNL     1       5.761  -5.883  25.328  0.00  0.00    +0.037 C 
ATOM      4  C   UNL     1       4.366  -6.518  25.177  0.00  0.00    +0.005 C 
ATOM      5  C   UNL     1       3.302  -5.491  24.772  0.00  0.00    +0.005 C 
ATOM      6  C   UNL     1       3.640  -4.842  23.425  0.00  0.00    +0.043 C 
ATOM      7  C   UNL     1       5.078  -4.425  23.395  0.00  0.00    -0.004 A 
ATOM      8  S   UNL     1       5.639  -3.272  22.290  0.00  0.00    -0.077 S 
ATOM      9  C   UNL     1       7.229  -3.367  22.903  0.00  0.00    +0.084 A 
ENDROOT
BRANCH   1  13
ATOM     10  N   UNL     1       8.906  -3.717  25.665  0.00  0.00    -0.325 N 
ATOM     11  H   UNL     1       8.154  -3.188  26.087  0.00  0.00    +0.145 HD
ATOM     12  H   UNL     1       9.638  -4.044  26.283  0.00  0.00    +0.145 HD
ATOM     13  C   UNL     1       8.608  -4.581  24.646  0.00  0.00    +0.244 C 
ATOM     14  O   UNL     1       9.326  -5.548  24.426  0.00  0.00    -0.270 OA
ENDBRANCH   1  13
BRANCH   9  15
ATOM     15  N   UNL     1       8.175  -2.583  22.248  0.00  0.00    -0.279 N 
ATOM     16  H   UNL     1       8.831  -3.048  21.633  0.00  0.00    +0.155 HD
ATOM     17  C   UNL     1       8.612  -1.416  22.861  0.00  0.00    +0.221 C 
ATOM     18  O   UNL     1       8.298  -1.057  23.990  0.00  0.00    -0.275 OA
BRANCH  17  19
ATOM     19  C   UNL     1       9.605  -0.578  22.134  0.00  0.00    +0.075 C 
ATOM     20  C   UNL     1      10.086   0.783  22.556  0.00  0.00    +0.013 C 
ATOM     21  C   UNL     1       9.205   0.647  21.347  0.00  0.00    +0.013 C 
ENDBRANCH  17  19
ENDBRANCH   9  15
TORSDOF 3
ENDMDL
MODEL 2
REMARK VINA RESULT:      -5.9      2.244      6.092
REMARK  Name = 
REMARK  3 active torsions:
REMARK  status: ('A' for Active; 'I' for Inactive)
REMARK    1  A    between atoms: C_2  and  C_4
REMARK    2  A    between atoms: C_5  and  N_6
REMARK    3  A    between atoms: C_7  and  C_9
REMARK                            x       y       z     vdW  Elec       q    Type
REMARK                         _______ _______ _______ _____ _____    ______ ____
ROOT
ATOM      1  C   UNL     1       7.452  -1.130  23.830  0.00  0.00    +0.068 A 
ATOM      2  C   UNL     1       8.286   0.061  23.900  0.00  0.00    -0.023 A 
ATOM      3  C   UNL     1       8.273   1.124  24.971  0.00  0.00    +0.037 C 
ATOM      4  C   UNL     1       9.096   2.366  24.580  0.00  0.00    +0.005 C 
ATOM      5  C   UNL     1      10.432   1.994  23.927  0.00  0.00    +0.005 C 
ATOM      6  C   UNL     1      10.218   1.185  22.644  0.00  0.00    +0.043 C 
ATOM      7  C   UNL     1       9.214   0.099  22.875  0.00  0.00    -0.004 A 
ATOM      8  S   UNL     1       9.112  -1.243  21.848  0.00  0.00    -0.077 S 
ATOM      9  C   UNL     1       7.845  -1.927  22.763  0.00  0.00    +0.084 A 
ENDROOT
BRANCH   1  13
ATOM     10  N   UNL     1       6.757  -2.392  25.750  0.00  0.00    -0.325 N 
ATOM     11  H   UNL     1       7.737  -2.515  25.966  0.00  0.00    +0.145 HD
ATOM     12  H   UNL     1       6.107  -2.453  26.524  0.00  0.00    +0.145 HD
ATOM     13  C   UNL     1       6.406  -1.474  24.797  0.00  0.00    +0.244 C 
ATOM     14  O   UNL     1       5.299  -0.950  24.822  0.00  0.00    -0.270 OA
ENDBRANCH   1  13
BRANCH   9  15
ATOM     15  N   UNL     1       7.320  -3.119  22.270  0.00  0.00    -0.279 N 
ATOM     16  H   UNL     1       6.401  -3.091  21.846  0.00  0.00    +0.155 HD
ATOM     17  C   UNL     1       7.695  -4.311  22.873  0.00  0.00    +0.221 C 
ATOM     18  O   UNL     1       8.390  -4.401  23.877  0.00  0.00    -0.275 OA
BRANCH  17  19
ATOM     19  C   UNL     1       7.143  -5.577  22.315  0.00  0.00    +0.075 C 
ATOM     20  C   UNL     1       6.280  -5.697  21.089  0.00  0.00    +0.013 C 
ATOM     21  C   UNL     1       5.684  -5.947  22.445  0.00  0.00    +0.013 C 
ENDBRANCH  17  19
ENDBRANCH   9  15
TORSDOF 3
ENDMDL
MODEL 3
REMARK VINA RESULT:      -5.5      3.713      6.802
REMARK  Name = 
REMARK  3 active torsions:
REMARK  status: ('A' for Active; 'I' for Inactive)
REMARK    1  A    between atoms: C_2  and  C_4
REMARK    2  A    between atoms: C_5  and  N_6
REMARK    3  A    between atoms: C_7  and  C_9
REMARK                            x       y       z     vdW  Elec       q    Type
REMARK                         _______ _______ _______ _____ _____    ______ ____
ROOT
ATOM      1  C   UNL     1       5.698  -5.323  23.734  0.00  0.00    +0.068 A 
ATOM      2  C   UNL     1       6.894  -5.170  24.551  0.00  0.00    -0.023 A 
ATOM      3  C   UNL     1       8.278  -4.794  24.083  0.00  0.00    +0.037 C 
ATOM      4  C   UNL     1       9.344  -4.988  25.177  0.00  0.00    +0.005 C 
ATOM      5  C   UNL     1       8.868  -4.488  26.546  0.00  0.00    +0.005 C 
ATOM      6  C   UNL     1       7.617  -5.242  27.009  0.00  0.00    +0.043 C 
ATOM      7  C   UNL     1       6.618  -5.327  25.897  0.00  0.00    -0.004 A 
ATOM      8  S   UNL     1       4.985  -5.646  26.201  0.00  0.00    -0.077 S 
ATOM      9  C   UNL     1       4.593  -5.552  24.543  0.00  0.00    +0.084 A 
ENDROOT
BRANCH   1  13
ATOM     10  N   UNL     1       5.748  -6.337  21.559  0.00  0.00    -0.325 N 
ATOM     11  H   UNL     1       5.491  -7.206  22.009  0.00  0.00    +0.145 HD
ATOM     12  H   UNL     1       5.504  -6.239  20.581  0.00  0.00    +0.145 HD
ATOM     13  C   UNL     1       5.659  -5.175  22.277  0.00  0.00    +0.244 C 
ATOM     14  O   UNL     1       5.493  -4.106  21.702  0.00  0.00    -0.270 OA
ENDBRANCH   1  13
BRANCH   9  15
ATOM     15  N   UNL     1       3.263  -5.812  24.221  0.00  0.00    -0.279 N 
ATOM     16  H   UNL     1       2.569  -5.125  24.486  0.00  0.00    +0.155 HD
ATOM     17  C   UNL     1       2.840  -7.133  24.153  0.00  0.00    +0.221 C 
ATOM     18  O   UNL     1       3.527  -8.104  24.445  0.00  0.00    -0.275 OA
BRANCH  17  19
ATOM     19  C   UNL     1       1.421  -7.391  23.783  0.00  0.00    +0.075 C 
ATOM     20  C   UNL     1       0.824  -8.733  23.462  0.00  0.00    +0.013 C 
ATOM     21  C   UNL     1       1.003  -7.719  22.369  0.00  0.00    +0.013 C 
ENDBRANCH  17  19
ENDBRANCH   9  15
TORSDOF 3
ENDMDL
MODEL 4
REMARK VINA RESULT:      -5.5      1.655      1.839
REMARK  Name = 
REMARK  3 active torsions:
REMARK  status: ('A' for Active; 'I' for Inactive)
REMARK    1  A    between atoms: C_2  and  C_4
REMARK    2  A    between atoms: C_5  and  N_6
REMARK    3  A    between atoms: C_7  and  C_9
REMARK                            x       y       z     vdW  Elec       q    Type
REMARK                         _______ _______ _______ _____ _____    ______ ____
ROOT
ATOM      1  C   UNL     1       7.009  -5.031  25.347  0.00  0.00    +0.068 A 
ATOM      2  C   UNL     1       5.718  -5.680  25.174  0.00  0.00    -0.023 A 
ATOM      3  C   UNL     1       4.838  -6.264  26.251  0.00  0.00    +0.037 C 
ATOM      4  C   UNL     1       3.680  -7.103  25.677  0.00  0.00    +0.005 C 
ATOM      5  C   UNL     1       3.018  -6.428  24.470  0.00  0.00    +0.005 C 
ATOM      6  C   UNL     1       4.020  -6.220  23.330  0.00  0.00    +0.043 C 
ATOM      7  C   UNL     1       5.296  -5.639  23.857  0.00  0.00    -0.004 A 
ATOM      8  S   UNL     1       6.393  -4.851  22.840  0.00  0.00    -0.077 S 
ATOM      9  C   UNL     1       7.450  -4.513  24.136  0.00  0.00    +0.084 A 
ENDROOT
BRANCH   1  13
ATOM     10  N   UNL     1       7.955  -6.036  27.310  0.00  0.00    -0.325 N 
ATOM     11  H   UNL     1       7.991  -6.904  26.792  0.00  0.00    +0.145 HD
ATOM     12  H   UNL     1       8.613  -5.933  28.073  0.00  0.00    +0.145 HD
ATOM     13  C   UNL     1       7.700  -4.876  26.630  0.00  0.00    +0.244 C 
ATOM     14  O   UNL     1       8.097  -3.803  27.069  0.00  0.00    -0.270 OA
ENDBRANCH   1  13
BRANCH   9  15
ATOM     15  N   UNL     1       8.635  -3.865  23.796  0.00  0.00    -0.279 N 
ATOM     16  H   UNL     1       9.505  -4.357  23.954  0.00  0.00    +0.155 HD
ATOM     17  C   UNL     1       8.679  -2.479  23.863  0.00  0.00    +0.221 C 
ATOM     18  O   UNL     1       7.776  -1.769  24.289  0.00  0.00    -0.275 OA
BRANCH  17  19
ATOM     19  C   UNL     1       9.946  -1.803  23.471  0.00  0.00    +0.075 C 
ATOM     20  C   UNL     1      10.166  -0.318  23.394  0.00  0.00    +0.013 C 
ATOM     21  C   UNL     1      10.120  -1.129  22.131  0.00  0.00    +0.013 C 
ENDBRANCH  17  19
ENDBRANCH   9  15
TORSDOF 3
ENDMDL
MODEL 5
REMARK VINA RESULT:      -5.5      1.958      2.642
REMARK  Name = 
REMARK  3 active torsions:
REMARK  status: ('A' for Active; 'I' for Inactive)
REMARK    1  A    between atoms: C_2  and  C_4
REMARK    2  A    between atoms: C_5  and  N_6
REMARK    3  A    between atoms: C_7  and  C_9
REMARK                            x       y       z     vdW  Elec       q    Type
REMARK                         _______ _______ _______ _____ _____    ______ ____
ROOT
ATOM      1  C   UNL     1       6.718  -4.650  23.290  0.00  0.00    +0.068 A 
ATOM      2  C   UNL     1       5.923  -5.286  24.331  0.00  0.00    -0.023 A 
ATOM      3  C   UNL     1       4.703  -6.155  24.146  0.00  0.00    +0.037 C 
ATOM      4  C   UNL     1       3.969  -6.430  25.472  0.00  0.00    +0.005 C 
ATOM      5  C   UNL     1       4.938  -6.754  26.615  0.00  0.00    +0.005 C 
ATOM      6  C   UNL     1       5.899  -5.589  26.876  0.00  0.00    +0.043 C 
ATOM      7  C   UNL     1       6.466  -5.083  25.587  0.00  0.00    -0.004 A 
ATOM      8  S   UNL     1       7.886  -4.164  25.548  0.00  0.00    -0.077 S 
ATOM      9  C   UNL     1       7.833  -4.038  23.847  0.00  0.00    +0.084 A 
ENDROOT
BRANCH   1  13
ATOM     10  N   UNL     1       6.899  -5.827  21.206  0.00  0.00    -0.325 N 
ATOM     11  H   UNL     1       7.095  -6.659  21.746  0.00  0.00    +0.145 HD
ATOM     12  H   UNL     1       6.508  -5.963  20.282  0.00  0.00    +0.145 HD
ATOM     13  C   UNL     1       6.424  -4.720  21.856  0.00  0.00    +0.244 C 
ATOM     14  O   UNL     1       5.747  -3.894  21.255  0.00  0.00    -0.270 OA
ENDBRANCH   1  13
BRANCH   9  15
ATOM     15  N   UNL     1       8.839  -3.269  23.267  0.00  0.00    -0.279 N 
ATOM     16  H   UNL     1       9.799  -3.500  23.491  0.00  0.00    +0.155 HD
ATOM     17  C   UNL     1       8.570  -1.942  22.960  0.00  0.00    +0.221 C 
ATOM     18  O   UNL     1       7.534  -1.354  23.243  0.00  0.00    -0.275 OA
BRANCH  17  19
ATOM     19  C   UNL     1       9.650  -1.144  22.317  0.00  0.00    +0.075 C 
ATOM     20  C   UNL     1      10.019   0.274  22.656  0.00  0.00    +0.013 C 
ATOM     21  C   UNL     1       9.358  -0.028  21.342  0.00  0.00    +0.013 C 
ENDBRANCH  17  19
ENDBRANCH   9  15
TORSDOF 3
ENDMDL
MODEL 6
REMARK VINA RESULT:      -5.5      2.721      6.738
REMARK  Name = 
REMARK  3 active torsions:
REMARK  status: ('A' for Active; 'I' for Inactive)
REMARK    1  A    between atoms: C_2  and  C_4
REMARK    2  A    between atoms: C_5  and  N_6
REMARK    3  A    between atoms: C_7  and  C_9
REMARK                            x       y       z     vdW  Elec       q    Type
REMARK                         _______ _______ _______ _____ _____    ______ ____
ROOT
ATOM      1  C   UNL     1       9.070  -0.259  23.327  0.00  0.00    +0.068 A 
ATOM      2  C   UNL     1       9.400   1.145  23.528  0.00  0.00    -0.023 A 
ATOM      3  C   UNL     1      10.458   1.946  22.810  0.00  0.00    +0.037 C 
ATOM      4  C   UNL     1      10.705   3.319  23.465  0.00  0.00    +0.005 C 
ATOM      5  C   UNL     1       9.398   4.014  23.865  0.00  0.00    +0.005 C 
ATOM      6  C   UNL     1       8.609   3.177  24.877  0.00  0.00    +0.043 C 
ATOM      7  C   UNL     1       8.547   1.748  24.435  0.00  0.00    -0.004 A 
ATOM      8  S   UNL     1       7.376   0.687  25.040  0.00  0.00    -0.077 S 
ATOM      9  C   UNL     1       7.956  -0.601  24.083  0.00  0.00    +0.084 A 
ENDROOT
BRANCH   1  13
ATOM     10  N   UNL     1       9.504  -0.950  21.070  0.00  0.00    -0.325 N 
ATOM     11  H   UNL     1       9.167  -0.043  20.776  0.00  0.00    +0.145 HD
ATOM     12  H   UNL     1      10.146  -1.423  20.446  0.00  0.00    +0.145 HD
ATOM     13  C   UNL     1       9.764  -1.154  22.398  0.00  0.00    +0.244 C 
ATOM     14  O   UNL     1      10.580  -2.001  22.745  0.00  0.00    -0.270 OA
ENDBRANCH   1  13
BRANCH   9  15
ATOM     15  N   UNL     1       7.311  -1.822  24.259  0.00  0.00    -0.279 N 
ATOM     16  H   UNL     1       6.320  -1.866  24.062  0.00  0.00    +0.155 HD
ATOM     17  C   UNL     1       7.798  -2.699  25.220  0.00  0.00    +0.221 C 
ATOM     18  O   UNL     1       8.707  -2.448  26.002  0.00  0.00    -0.275 OA
BRANCH  17  19
ATOM     19  C   UNL     1       7.110  -4.010  25.376  0.00  0.00    +0.075 C 
ATOM     20  C   UNL     1       7.706  -5.251  25.982  0.00  0.00    +0.013 C 
ATOM     21  C   UNL     1       7.436  -5.201  24.506  0.00  0.00    +0.013 C 
ENDBRANCH  17  19
ENDBRANCH   9  15
TORSDOF 3
ENDMDL
MODEL 7
REMARK VINA RESULT:      -5.4      2.639      5.780
REMARK  Name = 
REMARK  3 active torsions:
REMARK  status: ('A' for Active; 'I' for Inactive)
REMARK    1  A    between atoms: C_2  and  C_4
REMARK    2  A    between atoms: C_5  and  N_6
REMARK    3  A    between atoms: C_7  and  C_9
REMARK                            x       y       z     vdW  Elec       q    Type
REMARK                         _______ _______ _______ _____ _____    ______ ____
ROOT
ATOM      1  C   UNL     1       8.378  -1.305  23.367  0.00  0.00    +0.068 A 
ATOM      2  C   UNL     1       8.194   0.012  23.961  0.00  0.00    -0.023 A 
ATOM      3  C   UNL     1       9.081   1.220  23.794  0.00  0.00    +0.037 C 
ATOM      4  C   UNL     1       8.727   2.353  24.777  0.00  0.00    +0.005 C 
ATOM      5  C   UNL     1       7.213   2.561  24.900  0.00  0.00    +0.005 C 
ATOM      6  C   UNL     1       6.517   1.296  25.414  0.00  0.00    +0.043 C 
ATOM      7  C   UNL     1       7.011   0.093  24.673  0.00  0.00    -0.004 A 
ATOM      8  S   UNL     1       6.127  -1.350  24.644  0.00  0.00    -0.077 S 
ATOM      9  C   UNL     1       7.286  -2.115  23.653  0.00  0.00    +0.084 A 
ENDROOT
BRANCH   1  13
ATOM     10  N   UNL     1       9.519  -1.158  21.261  0.00  0.00    -0.325 N 
ATOM     11  H   UNL     1       8.996  -0.309  21.089  0.00  0.00    +0.145 HD
ATOM     12  H   UNL     1      10.403  -1.255  20.777  0.00  0.00    +0.145 HD
ATOM     13  C   UNL     1       9.512  -1.689  22.523  0.00  0.00    +0.244 C 
ATOM     14  O   UNL     1      10.445  -2.385  22.905  0.00  0.00    -0.270 OA
ENDBRANCH   1  13
BRANCH   9  15
ATOM     15  N   UNL     1       7.036  -3.451  23.352  0.00  0.00    -0.279 N 
ATOM     16  H   UNL     1       7.796  -4.111  23.462  0.00  0.00    +0.155 HD
ATOM     17  C   UNL     1       6.083  -3.749  22.388  0.00  0.00    +0.221 C 
ATOM     18  O   UNL     1       5.497  -2.921  21.702  0.00  0.00    -0.275 OA
BRANCH  17  19
ATOM     19  C   UNL     1       5.811  -5.184  22.099  0.00  0.00    +0.075 C 
ATOM     20  C   UNL     1       6.832  -6.289  22.081  0.00  0.00    +0.013 C 
ATOM     21  C   UNL     1       6.206  -5.834  20.794  0.00  0.00    +0.013 C 
ENDBRANCH  17  19
ENDBRANCH   9  15
TORSDOF 3
ENDMDL
MODEL 8
REMARK VINA RESULT:      -5.4      2.375      3.336
REMARK  Name = 
REMARK  3 active torsions:
REMARK  status: ('A' for Active; 'I' for Inactive)
REMARK    1  A    between atoms: C_2  and  C_4
REMARK    2  A    between atoms: C_5  and  N_6
REMARK    3  A    between atoms: C_7  and  C_9
REMARK                            x       y       z     vdW  Elec       q    Type
REMARK                         _______ _______ _______ _____ _____    ______ ____
ROOT
ATOM      1  C   UNL     1       8.261  -1.840  23.210  0.00  0.00    +0.068 A 
ATOM      2  C   UNL     1       7.214  -2.838  23.041  0.00  0.00    -0.023 A 
ATOM      3  C   UNL     1       7.285  -4.107  22.228  0.00  0.00    +0.037 C 
ATOM      4  C   UNL     1       5.908  -4.780  22.062  0.00  0.00    +0.005 C 
ATOM      5  C   UNL     1       5.104  -4.784  23.368  0.00  0.00    +0.005 C 
ATOM      6  C   UNL     1       4.843  -3.359  23.865  0.00  0.00    +0.043 C 
ATOM      7  C   UNL     1       6.100  -2.548  23.808  0.00  0.00    -0.004 A 
ATOM      8  S   UNL     1       6.278  -1.131  24.715  0.00  0.00    -0.077 S 
ATOM      9  C   UNL     1       7.862  -0.881  24.132  0.00  0.00    +0.084 A 
ENDROOT
BRANCH   1  13
ATOM     10  N   UNL     1       9.704  -1.139  21.426  0.00  0.00    -0.325 N 
ATOM     11  H   UNL     1       9.075  -0.359  21.286  0.00  0.00    +0.145 HD
ATOM     12  H   UNL     1      10.661  -1.014  21.119  0.00  0.00    +0.145 HD
ATOM     13  C   UNL     1       9.574  -1.891  22.562  0.00  0.00    +0.244 C 
ATOM     14  O   UNL     1      10.535  -2.502  23.011  0.00  0.00    -0.270 OA
ENDBRANCH   1  13
BRANCH   9  15
ATOM     15  N   UNL     1       8.491   0.281  24.572  0.00  0.00    -0.279 N 
ATOM     16  H   UNL     1       8.612   0.404  25.569  0.00  0.00    +0.155 HD
ATOM     17  C   UNL     1       8.368   1.434  23.810  0.00  0.00    +0.221 C 
ATOM     18  O   UNL     1       7.666   1.543  22.812  0.00  0.00    -0.275 OA
BRANCH  17  19
ATOM     19  C   UNL     1       9.069   2.659  24.284  0.00  0.00    +0.075 C 
ATOM     20  C   UNL     1       9.074   3.995  23.592  0.00  0.00    +0.013 C 
ATOM     21  C   UNL     1      10.330   3.172  23.629  0.00  0.00    +0.013 C 
ENDBRANCH  17  19
ENDBRANCH   9  15
TORSDOF 3
ENDMDL
MODEL 9
REMARK VINA RESULT:      -5.4      2.247      6.432
REMARK  Name = 
REMARK  3 active torsions:
REMARK  status: ('A' for Active; 'I' for Inactive)
REMARK    1  A    between atoms: C_2  and  C_4
REMARK    2  A    between atoms: C_5  and  N_6
REMARK    3  A    between atoms: C_7  and  C_9
REMARK                            x       y       z     vdW  Elec       q    Type
REMARK                         _______ _______ _______ _____ _____    ______ ____
ROOT
ATOM      1  C   UNL     1       8.140  -0.565  25.042  0.00  0.00    +0.068 A 
ATOM      2  C   UNL     1       8.670   0.394  24.083  0.00  0.00    -0.023 A 
ATOM      3  C   UNL     1       9.197   1.778  24.372  0.00  0.00    +0.037 C 
ATOM      4  C   UNL     1       9.423   2.603  23.091  0.00  0.00    +0.005 C 
ATOM      5  C   UNL     1      10.085   1.780  21.980  0.00  0.00    +0.005 C 
ATOM      6  C   UNL     1       9.217   0.579  21.586  0.00  0.00    +0.043 C 
ATOM      7  C   UNL     1       8.732  -0.137  22.808  0.00  0.00    -0.004 A 
ATOM      8  S   UNL     1       8.182  -1.735  22.734  0.00  0.00    -0.077 S 
ATOM      9  C   UNL     1       7.874  -1.773  24.412  0.00  0.00    +0.084 A 
ENDROOT
BRANCH   1  13
ATOM     10  N   UNL     1       9.099  -0.560  27.242  0.00  0.00    -0.325 N 
ATOM     11  H   UNL     1      10.006  -0.552  26.797  0.00  0.00    +0.145 HD
ATOM     12  H   UNL     1       9.046  -0.181  28.180  0.00  0.00    +0.145 HD
ATOM     13  C   UNL     1       7.990  -0.313  26.478  0.00  0.00    +0.244 C 
ATOM     14  O   UNL     1       6.977   0.147  26.990  0.00  0.00    -0.270 OA
ENDBRANCH   1  13
BRANCH   9  15
ATOM     15  N   UNL     1       7.314  -2.953  24.896  0.00  0.00    -0.279 N 
ATOM     16  H   UNL     1       6.421  -2.893  25.369  0.00  0.00    +0.155 HD
ATOM     17  C   UNL     1       8.162  -3.980  25.286  0.00  0.00    +0.221 C 
ATOM     18  O   UNL     1       9.384  -3.904  25.327  0.00  0.00    -0.275 OA
BRANCH  17  19
ATOM     19  C   UNL     1       7.544  -5.243  25.777  0.00  0.00    +0.075 C 
ATOM     20  C   UNL     1       6.084  -5.456  26.066  0.00  0.00    +0.013 C 
ATOM     21  C   UNL     1       7.067  -5.408  27.200  0.00  0.00    +0.013 C 
ENDBRANCH  17  19
ENDBRANCH   9  15
TORSDOF 3
ENDMDL
