MODEL 1
REMARK VINA RESULT:      -4.9      0.000      0.000
REMARK  Name = 
REMARK  5 active torsions:
REMARK  status: ('A' for Active; 'I' for Inactive)
REMARK    1  A    between atoms: N_1  and  CA_2
REMARK    2  A    between atoms: CA_2  and  C_4
REMARK    3  A    between atoms: CA_2  and  C_11
REMARK    4  A    between atoms: C_4  and  C_5
REMARK    5  A    between atoms: C_11  and  O_12
REMARK                            x       y       z     vdW  Elec       q    Type
REMARK                         _______ _______ _______ _____ _____    ______ ____
ROOT
ATOM      1  CA  UNL     1       8.169  -5.499  25.375  0.00  0.00    +0.165 C 
ENDROOT
BRANCH   1   2
ATOM      2  N   UNL     1       7.986  -5.664  26.853  0.00  0.00    -0.318 NA
ATOM      3  H1  UNL     1       8.326  -6.601  27.117  0.00  0.00    +0.119 HD
ATOM      4  H2  UNL     1       8.657  -5.045  27.320  0.00  0.00    +0.119 HD
ENDBRANCH   1   2
BRANCH   1   5
ATOM      5  C   UNL     1       9.545  -4.855  25.132  0.00  0.00    +0.322 C 
ATOM      6  OXT UNL     1       9.749  -3.875  24.433  0.00  0.00    -0.249 OA
BRANCH   5   7
ATOM      7  O   UNL     1      10.527  -5.529  25.784  0.00  0.00    -0.480 OA
ATOM      8  H   UNL     1      10.170  -6.444  25.924  0.00  0.00    +0.295 HD
ENDBRANCH   5   7
ENDBRANCH   1   5
BRANCH   1   9
ATOM      9  C   UNL     1       7.088  -4.636  24.709  0.00  0.00    +0.073 C 
BRANCH   9  10
ATOM     10  C   UNL     1       6.687  -5.130  23.371  0.00  0.00    +0.059 A 
ATOM     11  C   UNL     1       5.613  -6.095  23.138  0.00  0.00    +0.283 A 
ATOM     12  O   UNL     1       4.920  -6.589  24.009  0.00  0.00    -0.265 OA
ATOM     13  N   UNL     1       5.561  -6.322  21.789  0.00  0.00    -0.185 N 
ATOM     14  H   UNL     1       4.763  -6.717  21.310  0.00  0.00    +0.211 HD
ATOM     15  O   UNL     1       6.438  -5.448  21.107  0.00  0.00    -0.385 OA
ATOM     16  C   UNL     1       7.077  -4.808  22.142  0.00  0.00    +0.235 A 
ENDBRANCH   9  10
ENDBRANCH   1   9
TORSDOF 5
ENDMDL
MODEL 2
REMARK VINA RESULT:      -4.8      2.443      4.192
REMARK  Name = 
REMARK  5 active torsions:
REMARK  status: ('A' for Active; 'I' for Inactive)
REMARK    1  A    between atoms: N_1  and  CA_2
REMARK    2  A    between atoms: CA_2  and  C_4
REMARK    3  A    between atoms: CA_2  and  C_11
REMARK    4  A    between atoms: C_4  and  C_5
REMARK    5  A    between atoms: C_11  and  O_12
REMARK                            x       y       z     vdW  Elec       q    Type
REMARK                         _______ _______ _______ _____ _____    ______ ____
ROOT
ATOM      1  CA  UNL     1       7.798  -2.708  23.378  0.00  0.00    +0.165 C 
ENDROOT
BRANCH   1   2
ATOM      2  N   UNL     1       6.635  -2.031  22.721  0.00  0.00    -0.318 NA
ATOM      3  H1  UNL     1       6.618  -2.311  21.728  0.00  0.00    +0.119 HD
ATOM      4  H2  UNL     1       5.779  -2.460  23.087  0.00  0.00    +0.119 HD
ENDBRANCH   1   2
BRANCH   1   5
ATOM      5  C   UNL     1       9.088  -2.202  22.712  0.00  0.00    +0.322 C 
ATOM      6  OXT UNL     1       9.137  -1.533  21.691  0.00  0.00    -0.249 OA
BRANCH   5   7
ATOM      7  O   UNL     1      10.189  -2.607  23.395  0.00  0.00    -0.480 OA
ATOM      8  H   UNL     1       9.854  -3.240  24.082  0.00  0.00    +0.295 HD
ENDBRANCH   5   7
ENDBRANCH   1   5
BRANCH   1   9
ATOM      9  C   UNL     1       7.755  -4.241  23.287  0.00  0.00    +0.073 C 
BRANCH   9  10
ATOM     10  C   UNL     1       7.740  -4.906  24.611  0.00  0.00    +0.059 A 
ATOM     11  C   UNL     1       8.939  -5.216  25.389  0.00  0.00    +0.283 A 
ATOM     12  O   UNL     1      10.077  -4.953  25.048  0.00  0.00    -0.265 OA
ATOM     13  N   UNL     1       8.524  -5.848  26.530  0.00  0.00    -0.185 N 
ATOM     14  H   UNL     1       9.085  -5.932  27.368  0.00  0.00    +0.211 HD
ATOM     15  O   UNL     1       7.114  -5.836  26.618  0.00  0.00    -0.385 OA
ATOM     16  C   UNL     1       6.751  -5.281  25.415  0.00  0.00    +0.235 A 
ENDBRANCH   9  10
ENDBRANCH   1   9
TORSDOF 5
ENDMDL
MODEL 3
REMARK VINA RESULT:      -4.8      3.186      4.888
REMARK  Name = 
REMARK  5 active torsions:
REMARK  status: ('A' for Active; 'I' for Inactive)
REMARK    1  A    between atoms: N_1  and  CA_2
REMARK    2  A    between atoms: CA_2  and  C_4
REMARK    3  A    between atoms: CA_2  and  C_11
REMARK    4  A    between atoms: C_4  and  C_5
REMARK    5  A    between atoms: C_11  and  O_12
REMARK                            x       y       z     vdW  Elec       q    Type
REMARK                         _______ _______ _______ _____ _____    ______ ____
ROOT
ATOM      1  CA  UNL     1       9.151  -4.591  25.646  0.00  0.00    +0.165 C 
ENDROOT
BRANCH   1   2
ATOM      2  N   UNL     1      10.210  -5.622  25.406  0.00  0.00    -0.318 NA
ATOM      3  H1  UNL     1       9.746  -6.514  25.176  0.00  0.00    +0.119 HD
ATOM      4  H2  UNL     1      10.681  -5.385  24.527  0.00  0.00    +0.119 HD
ENDBRANCH   1   2
BRANCH   1   5
ATOM      5  C   UNL     1       7.886  -5.309  26.145  0.00  0.00    +0.322 C 
ATOM      6  OXT UNL     1       6.847  -5.424  25.514  0.00  0.00    -0.249 OA
BRANCH   5   7
ATOM      7  O   UNL     1       8.057  -5.794  27.402  0.00  0.00    -0.480 OA
ATOM      8  H   UNL     1       7.360  -5.352  27.952  0.00  0.00    +0.295 HD
ENDBRANCH   5   7
ENDBRANCH   1   5
BRANCH   1   9
ATOM      9  C   UNL     1       8.799  -3.763  24.401  0.00  0.00    +0.073 C 
BRANCH   9  10
ATOM     10  C   UNL     1       9.210  -2.344  24.507  0.00  0.00    +0.059 A 
ATOM     11  C   UNL     1      10.094  -1.671  23.555  0.00  0.00    +0.283 A 
ATOM     12  O   UNL     1      10.577  -2.191  22.567  0.00  0.00    -0.265 OA
ATOM     13  N   UNL     1      10.260  -0.387  24.000  0.00  0.00    -0.185 N 
ATOM     14  H   UNL     1      10.583   0.377  23.421  0.00  0.00    +0.211 HD
ATOM     15  O   UNL     1       9.418  -0.134  25.106  0.00  0.00    -0.385 OA
ATOM     16  C   UNL     1       8.864  -1.369  25.340  0.00  0.00    +0.235 A 
ENDBRANCH   9  10
ENDBRANCH   1   9
TORSDOF 5
ENDMDL
MODEL 4
REMARK VINA RESULT:      -4.8      5.747      6.832
REMARK  Name = 
REMARK  5 active torsions:
REMARK  status: ('A' for Active; 'I' for Inactive)
REMARK    1  A    between atoms: N_1  and  CA_2
REMARK    2  A    between atoms: CA_2  and  C_4
REMARK    3  A    between atoms: CA_2  and  C_11
REMARK    4  A    between atoms: C_4  and  C_5
REMARK    5  A    between atoms: C_11  and  O_12
REMARK                            x       y       z     vdW  Elec       q    Type
REMARK                         _______ _______ _______ _____ _____    ______ ____
ROOT
ATOM      1  CA  UNL     1       9.391  -1.044  24.336  0.00  0.00    +0.165 C 
ENDROOT
BRANCH   1   2
ATOM      2  N   UNL     1       8.946  -1.391  25.723  0.00  0.00    -0.318 NA
ATOM      3  H1  UNL     1       8.326  -2.213  25.666  0.00  0.00    +0.119 HD
ATOM      4  H2  UNL     1       9.760  -1.762  26.226  0.00  0.00    +0.119 HD
ENDBRANCH   1   2
BRANCH   1   5
ATOM      5  C   UNL     1       9.991  -2.306  23.694  0.00  0.00    +0.322 C 
ATOM      6  OXT UNL     1       9.948  -3.427  24.174  0.00  0.00    -0.249 OA
BRANCH   5   7
ATOM      7  O   UNL     1      10.601  -2.018  22.515  0.00  0.00    -0.480 OA
ATOM      8  H   UNL     1      11.497  -2.440  22.573  0.00  0.00    +0.295 HD
ENDBRANCH   5   7
ENDBRANCH   1   5
BRANCH   1   9
ATOM      9  C   UNL     1      10.429   0.087  24.283  0.00  0.00    +0.073 C 
BRANCH   9  10
ATOM     10  C   UNL     1       9.935   1.305  23.599  0.00  0.00    +0.059 A 
ATOM     11  C   UNL     1       9.631   1.380  22.171  0.00  0.00    +0.283 A 
ATOM     12  O   UNL     1       9.736   0.454  21.388  0.00  0.00    -0.265 OA
ATOM     13  N   UNL     1       9.230   2.663  21.912  0.00  0.00    -0.185 N 
ATOM     14  H   UNL     1       8.705   2.939  21.093  0.00  0.00    +0.211 HD
ATOM     15  O   UNL     1       9.108   3.395  23.115  0.00  0.00    -0.385 OA
ATOM     16  C   UNL     1       9.579   2.504  24.048  0.00  0.00    +0.235 A 
ENDBRANCH   9  10
ENDBRANCH   1   9
TORSDOF 5
ENDMDL
MODEL 5
REMARK VINA RESULT:      -4.7      1.162      1.840
REMARK  Name = 
REMARK  5 active torsions:
REMARK  status: ('A' for Active; 'I' for Inactive)
REMARK    1  A    between atoms: N_1  and  CA_2
REMARK    2  A    between atoms: CA_2  and  C_4
REMARK    3  A    between atoms: CA_2  and  C_11
REMARK    4  A    between atoms: C_4  and  C_5
REMARK    5  A    between atoms: C_11  and  O_12
REMARK                            x       y       z     vdW  Elec       q    Type
REMARK                         _______ _______ _______ _____ _____    ______ ____
ROOT
ATOM      1  CA  UNL     1       8.130  -5.335  25.396  0.00  0.00    +0.165 C 
ENDROOT
BRANCH   1   2
ATOM      2  N   UNL     1       7.998  -5.651  26.854  0.00  0.00    -0.318 NA
ATOM      3  H1  UNL     1       8.898  -6.031  27.184  0.00  0.00    +0.119 HD
ATOM      4  H2  UNL     1       7.935  -4.761  27.360  0.00  0.00    +0.119 HD
ENDBRANCH   1   2
BRANCH   1   5
ATOM      5  C   UNL     1       9.568  -4.858  25.136  0.00  0.00    +0.322 C 
ATOM      6  OXT UNL     1       9.875  -3.869  24.489  0.00  0.00    -0.249 OA
BRANCH   5   7
ATOM      7  O   UNL     1      10.476  -5.692  25.707  0.00  0.00    -0.480 OA
ATOM      8  H   UNL     1      10.848  -5.189  26.476  0.00  0.00    +0.295 HD
ENDBRANCH   5   7
ENDBRANCH   1   5
BRANCH   1   9
ATOM      9  C   UNL     1       7.149  -4.260  24.904  0.00  0.00    +0.073 C 
BRANCH   9  10
ATOM     10  C   UNL     1       6.540  -4.580  23.592  0.00  0.00    +0.059 A 
ATOM     11  C   UNL     1       6.907  -3.929  22.335  0.00  0.00    +0.283 A 
ATOM     12  O   UNL     1       7.758  -3.066  22.220  0.00  0.00    -0.265 OA
ATOM     13  N   UNL     1       6.115  -4.468  21.357  0.00  0.00    -0.185 N 
ATOM     14  H   UNL     1       6.322  -4.420  20.369  0.00  0.00    +0.211 HD
ATOM     15  O   UNL     1       5.355  -5.542  21.873  0.00  0.00    -0.385 OA
ATOM     16  C   UNL     1       5.661  -5.501  23.211  0.00  0.00    +0.235 A 
ENDBRANCH   9  10
ENDBRANCH   1   9
TORSDOF 5
ENDMDL
MODEL 6
REMARK VINA RESULT:      -4.5      1.320      2.103
REMARK  Name = 
REMARK  5 active torsions:
REMARK  status: ('A' for Active; 'I' for Inactive)
REMARK    1  A    between atoms: N_1  and  CA_2
REMARK    2  A    between atoms: CA_2  and  C_4
REMARK    3  A    between atoms: CA_2  and  C_11
REMARK    4  A    between atoms: C_4  and  C_5
REMARK    5  A    between atoms: C_11  and  O_12
REMARK                            x       y       z     vdW  Elec       q    Type
REMARK                         _______ _______ _______ _____ _____    ______ ____
ROOT
ATOM      1  CA  UNL     1       7.843  -5.601  25.474  0.00  0.00    +0.165 C 
ENDROOT
BRANCH   1   2
ATOM      2  N   UNL     1       7.931  -5.611  26.969  0.00  0.00    -0.318 NA
ATOM      3  H1  UNL     1       8.062  -4.641  27.291  0.00  0.00    +0.119 HD
ATOM      4  H2  UNL     1       7.000  -5.841  27.333  0.00  0.00    +0.119 HD
ENDBRANCH   1   2
BRANCH   1   5
ATOM      5  C   UNL     1       9.130  -4.966  24.922  0.00  0.00    +0.322 C 
ATOM      6  OXT UNL     1       9.173  -4.012  24.161  0.00  0.00    -0.249 OA
BRANCH   5   7
ATOM      7  O   UNL     1      10.234  -5.615  25.374  0.00  0.00    -0.480 OA
ATOM      8  H   UNL     1      10.448  -6.287  24.676  0.00  0.00    +0.295 HD
ENDBRANCH   5   7
ENDBRANCH   1   5
BRANCH   1   9
ATOM      9  C   UNL     1       6.630  -4.832  24.930  0.00  0.00    +0.073 C 
BRANCH   9  10
ATOM     10  C   UNL     1       5.523  -5.715  24.495  0.00  0.00    +0.059 A 
ATOM     11  C   UNL     1       4.884  -5.647  23.181  0.00  0.00    +0.283 A 
ATOM     12  O   UNL     1       5.196  -4.872  22.295  0.00  0.00    -0.265 OA
ATOM     13  N   UNL     1       3.896  -6.594  23.165  0.00  0.00    -0.185 N 
ATOM     14  H   UNL     1       3.478  -6.964  22.322  0.00  0.00    +0.211 HD
ATOM     15  O   UNL     1       3.948  -7.383  24.337  0.00  0.00    -0.385 OA
ATOM     16  C   UNL     1       4.928  -6.756  25.068  0.00  0.00    +0.235 A 
ENDBRANCH   9  10
ENDBRANCH   1   9
TORSDOF 5
ENDMDL
MODEL 7
REMARK VINA RESULT:      -4.4      6.098      7.374
REMARK  Name = 
REMARK  5 active torsions:
REMARK  status: ('A' for Active; 'I' for Inactive)
REMARK    1  A    between atoms: N_1  and  CA_2
REMARK    2  A    between atoms: CA_2  and  C_4
REMARK    3  A    between atoms: CA_2  and  C_11
REMARK    4  A    between atoms: C_4  and  C_5
REMARK    5  A    between atoms: C_11  and  O_12
REMARK                            x       y       z     vdW  Elec       q    Type
REMARK                         _______ _______ _______ _____ _____    ______ ____
ROOT
ATOM      1  CA  UNL     1       9.295  -0.695  23.737  0.00  0.00    +0.165 C 
ENDROOT
BRANCH   1   2
ATOM      2  N   UNL     1       8.211  -1.187  24.646  0.00  0.00    -0.318 NA
ATOM      3  H1  UNL     1       7.309  -1.088  24.156  0.00  0.00    +0.119 HD
ATOM      4  H2  UNL     1       8.310  -2.204  24.725  0.00  0.00    +0.119 HD
ENDBRANCH   1   2
BRANCH   1   5
ATOM      5  C   UNL     1      10.043  -1.917  23.178  0.00  0.00    +0.322 C 
ATOM      6  OXT UNL     1      10.251  -2.954  23.788  0.00  0.00    -0.249 OA
BRANCH   5   7
ATOM      7  O   UNL     1      10.468  -1.697  21.907  0.00  0.00    -0.480 OA
ATOM      8  H   UNL     1      11.350  -2.148  21.843  0.00  0.00    +0.295 HD
ENDBRANCH   5   7
ENDBRANCH   1   5
BRANCH   1   9
ATOM      9  C   UNL     1      10.303   0.239  24.422  0.00  0.00    +0.073 C 
BRANCH   9  10
ATOM     10  C   UNL     1      10.015   1.675  24.199  0.00  0.00    +0.059 A 
ATOM     11  C   UNL     1       8.877   2.386  24.781  0.00  0.00    +0.283 A 
ATOM     12  O   UNL     1       8.049   1.886  25.521  0.00  0.00    -0.265 OA
ATOM     13  N   UNL     1       8.934   3.676  24.327  0.00  0.00    -0.185 N 
ATOM     14  H   UNL     1       8.456   4.453  24.763  0.00  0.00    +0.211 HD
ATOM     15  O   UNL     1      10.128   3.893  23.602  0.00  0.00    -0.385 OA
ATOM     16  C   UNL     1      10.678   2.634  23.562  0.00  0.00    +0.235 A 
ENDBRANCH   9  10
ENDBRANCH   1   9
TORSDOF 5
ENDMDL
MODEL 8
REMARK VINA RESULT:      -4.4      2.967      4.904
REMARK  Name = 
REMARK  5 active torsions:
REMARK  status: ('A' for Active; 'I' for Inactive)
REMARK    1  A    between atoms: N_1  and  CA_2
REMARK    2  A    between atoms: CA_2  and  C_4
REMARK    3  A    between atoms: CA_2  and  C_11
REMARK    4  A    between atoms: C_4  and  C_5
REMARK    5  A    between atoms: C_11  and  O_12
REMARK                            x       y       z     vdW  Elec       q    Type
REMARK                         _______ _______ _______ _____ _____    ______ ____
ROOT
ATOM      1  CA  UNL     1       7.035  -3.974  22.163  0.00  0.00    +0.165 C 
ENDROOT
BRANCH   1   2
ATOM      2  N   UNL     1       5.695  -3.854  21.506  0.00  0.00    -0.318 NA
ATOM      3  H1  UNL     1       5.833  -3.886  20.484  0.00  0.00    +0.119 HD
ATOM      4  H2  UNL     1       5.181  -4.723  21.687  0.00  0.00    +0.119 HD
ENDBRANCH   1   2
BRANCH   1   5
ATOM      5  C   UNL     1       7.310  -5.465  22.424  0.00  0.00    +0.322 C 
ATOM      6  OXT UNL     1       6.705  -6.392  21.908  0.00  0.00    -0.249 OA
BRANCH   5   7
ATOM      7  O   UNL     1       8.310  -5.632  23.326  0.00  0.00    -0.480 OA
ATOM      8  H   UNL     1       8.703  -4.730  23.454  0.00  0.00    +0.295 HD
ENDBRANCH   5   7
ENDBRANCH   1   5
BRANCH   1   9
ATOM      9  C   UNL     1       7.147  -3.205  23.487  0.00  0.00    +0.073 C 
BRANCH   9  10
ATOM     10  C   UNL     1       8.168  -2.132  23.457  0.00  0.00    +0.059 A 
ATOM     11  C   UNL     1       9.579  -2.329  23.787  0.00  0.00    +0.283 A 
ATOM     12  O   UNL     1      10.076  -3.392  24.110  0.00  0.00    -0.265 OA
ATOM     13  N   UNL     1      10.193  -1.111  23.671  0.00  0.00    -0.185 N 
ATOM     14  H   UNL     1      11.191  -0.986  23.568  0.00  0.00    +0.211 HD
ATOM     15  O   UNL     1       9.299  -0.156  23.136  0.00  0.00    -0.385 OA
ATOM     16  C   UNL     1       8.120  -0.859  23.076  0.00  0.00    +0.235 A 
ENDBRANCH   9  10
ENDBRANCH   1   9
TORSDOF 5
ENDMDL
MODEL 9
REMARK VINA RESULT:      -4.4      5.676      6.900
REMARK  Name = 
REMARK  5 active torsions:
REMARK  status: ('A' for Active; 'I' for Inactive)
REMARK    1  A    between atoms: N_1  and  CA_2
REMARK    2  A    between atoms: CA_2  and  C_4
REMARK    3  A    between atoms: CA_2  and  C_11
REMARK    4  A    between atoms: C_4  and  C_5
REMARK    5  A    between atoms: C_11  and  O_12
REMARK                            x       y       z     vdW  Elec       q    Type
REMARK                         _______ _______ _______ _____ _____    ______ ____
ROOT
ATOM      1  CA  UNL     1       9.960   2.178  24.028  0.00  0.00    +0.165 C 
ENDROOT
BRANCH   1   2
ATOM      2  N   UNL     1       8.850   2.233  25.032  0.00  0.00    -0.318 NA
ATOM      3  H1  UNL     1       9.265   2.179  25.975  0.00  0.00    +0.119 HD
ATOM      4  H2  UNL     1       8.464   3.183  25.015  0.00  0.00    +0.119 HD
ENDBRANCH   1   2
BRANCH   1   5
ATOM      5  C   UNL     1       9.335   2.089  22.626  0.00  0.00    +0.322 C 
ATOM      6  OXT UNL     1       8.159   1.860  22.394  0.00  0.00    -0.249 OA
BRANCH   5   7
ATOM      7  O   UNL     1      10.267   2.283  21.657  0.00  0.00    -0.480 OA
ATOM      8  H   UNL     1       9.756   2.339  20.809  0.00  0.00    +0.295 HD
ENDBRANCH   5   7
ENDBRANCH   1   5
BRANCH   1   9
ATOM      9  C   UNL     1      10.917   0.993  24.227  0.00  0.00    +0.073 C 
BRANCH   9  10
ATOM     10  C   UNL     1      10.275  -0.322  23.999  0.00  0.00    +0.059 A 
ATOM     11  C   UNL     1       9.432  -1.006  24.979  0.00  0.00    +0.283 A 
ATOM     12  O   UNL     1       9.151  -0.571  26.080  0.00  0.00    -0.265 OA
ATOM     13  N   UNL     1       9.050  -2.196  24.419  0.00  0.00    -0.185 N 
ATOM     14  H   UNL     1       8.262  -2.744  24.735  0.00  0.00    +0.211 HD
ATOM     15  O   UNL     1       9.469  -2.266  23.071  0.00  0.00    -0.385 OA
ATOM     16  C   UNL     1      10.212  -1.118  22.936  0.00  0.00    +0.235 A 
ENDBRANCH   9  10
ENDBRANCH   1   9
TORSDOF 5
ENDMDL
