MODEL 1
REMARK VINA RESULT:      -7.6      0.000      0.000
REMARK  Name = 
REMARK  15 active torsions:
REMARK  status: ('A' for Active; 'I' for Inactive)
REMARK    1  A    between atoms: C_2  and  C_3
REMARK    2  A    between atoms: C_2  and  C_16
REMARK    3  A    between atoms: C_2  and  N_25
REMARK    4  A    between atoms: C_3  and  C_4
REMARK    5  A    between atoms: C_7  and  C_10
REMARK    6  A    between atoms: C_16  and  C_17
REMARK    7  A    between atoms: C_17  and  C_19
REMARK    8  A    between atoms: C_17  and  C_20
REMARK    9  A    between atoms: C_20  and  O_22
REMARK   10  A    between atoms: O_22  and  C_23
REMARK   11  A    between atoms: C_23  and  C_24
REMARK   12  A    between atoms: C_26  and  C_28
REMARK   13  A    between atoms: C_28  and  C_29
REMARK   14  A    between atoms: C_29  and  C_30
REMARK   15  A    between atoms: C_30  and  O_31
REMARK                            x       y       z     vdW  Elec       q    Type
REMARK                         _______ _______ _______ _____ _____    ______ ____
ROOT
ATOM      1  C   UNL     1       7.892  -2.465  22.804  0.00  0.00    +0.078 C 
ENDROOT
BRANCH   1   2
ATOM      2  N   UNL     1       7.545  -3.781  22.256  0.00  0.00    -0.312 N 
ATOM      3  H   UNL     1       8.206  -4.540  22.378  0.00  0.00    +0.149 HD
ATOM      4  C   UNL     1       6.366  -4.029  21.609  0.00  0.00    +0.214 C 
ATOM      5  O   UNL     1       5.456  -3.214  21.469  0.00  0.00    -0.276 OA
BRANCH   4   6
ATOM      6  C   UNL     1       6.158  -5.450  21.165  0.00  0.00    +0.107 C 
BRANCH   6   7
ATOM      7  C   UNL     1       6.369  -6.381  22.344  0.00  0.00    +0.129 C 
BRANCH   7   8
ATOM      8  C   UNL     1       5.373  -6.337  23.486  0.00  0.00    +0.305 C 
ATOM      9  O   UNL     1       5.307  -5.354  24.217  0.00  0.00    -0.251 OA
BRANCH   8  10
ATOM     10  O   UNL     1       4.565  -7.390  23.681  0.00  0.00    -0.481 OA
ATOM     11  H   UNL     1       4.572  -8.125  23.026  0.00  0.00    +0.295 HD
ENDBRANCH   8  10
ENDBRANCH   7   8
ENDBRANCH   6   7
ENDBRANCH   4   6
ENDBRANCH   1   2
BRANCH   1  12
ATOM     12  C   UNL     1       7.533  -2.430  24.305  0.00  0.00    +0.037 C 
BRANCH  12  13
ATOM     13  C   UNL     1       8.651  -2.779  25.301  0.00  0.00    +0.096 C 
ATOM     14  C   UNL     1       8.526  -1.937  26.570  0.00  0.00    +0.019 C 
BRANCH  13  15
ATOM     15  C   UNL     1       8.527  -4.256  25.657  0.00  0.00    +0.310 C 
ATOM     16  O   UNL     1       8.584  -5.175  24.850  0.00  0.00    -0.251 OA
BRANCH  15  17
ATOM     17  O   UNL     1       8.273  -4.405  26.986  0.00  0.00    -0.465 OA
BRANCH  17  18
ATOM     18  C   UNL     1       7.190  -5.297  27.285  0.00  0.00    +0.229 C 
ATOM     19  C   UNL     1       5.963  -4.453  27.593  0.00  0.00    +0.048 C 
ENDBRANCH  17  18
ENDBRANCH  15  17
ENDBRANCH  13  15
ENDBRANCH  12  13
ENDBRANCH   1  12
BRANCH   1  20
ATOM     20  C   UNL     1       9.350  -2.051  22.473  0.00  0.00    +0.057 C 
BRANCH  20  21
ATOM     21  C   UNL     1       9.795  -0.629  22.735  0.00  0.00    -0.046 A 
ATOM     22  C   UNL     1       9.539   0.337  21.755  0.00  0.00    +0.004 A 
ATOM     23  C   UNL     1       9.841   1.686  21.980  0.00  0.00    +0.009 A 
ATOM     24  C   UNL     1      10.374   2.128  23.200  0.00  0.00    -0.018 A 
ATOM     25  C   UNL     1      10.681   1.142  24.148  0.00  0.00    +0.009 A 
ATOM     26  C   UNL     1      10.434  -0.209  23.902  0.00  0.00    +0.004 A 
BRANCH  24  27
ATOM     27  C   UNL     1      10.583   3.563  23.500  0.00  0.00    -0.018 A 
ATOM     28  C   UNL     1       9.556   4.347  24.056  0.00  0.00    +0.008 A 
ATOM     29  C   UNL     1       9.760   5.696  24.376  0.00  0.00    +0.001 A 
ATOM     30  C   UNL     1      10.997   6.285  24.156  0.00  0.00    +0.000 A 
ATOM     31  C   UNL     1      12.036   5.535  23.618  0.00  0.00    +0.001 A 
ATOM     32  C   UNL     1      11.825   4.193  23.285  0.00  0.00    +0.008 A 
ENDBRANCH  24  27
ENDBRANCH  20  21
ENDBRANCH   1  20
TORSDOF 13
ENDMDL
MODEL 2
REMARK VINA RESULT:      -7.4      1.105      1.611
REMARK  Name = 
REMARK  15 active torsions:
REMARK  status: ('A' for Active; 'I' for Inactive)
REMARK    1  A    between atoms: C_2  and  C_3
REMARK    2  A    between atoms: C_2  and  C_16
REMARK    3  A    between atoms: C_2  and  N_25
REMARK    4  A    between atoms: C_3  and  C_4
REMARK    5  A    between atoms: C_7  and  C_10
REMARK    6  A    between atoms: C_16  and  C_17
REMARK    7  A    between atoms: C_17  and  C_19
REMARK    8  A    between atoms: C_17  and  C_20
REMARK    9  A    between atoms: C_20  and  O_22
REMARK   10  A    between atoms: O_22  and  C_23
REMARK   11  A    between atoms: C_23  and  C_24
REMARK   12  A    between atoms: C_26  and  C_28
REMARK   13  A    between atoms: C_28  and  C_29
REMARK   14  A    between atoms: C_29  and  C_30
REMARK   15  A    between atoms: C_30  and  O_31
REMARK                            x       y       z     vdW  Elec       q    Type
REMARK                         _______ _______ _______ _____ _____    ______ ____
ROOT
ATOM      1  C   UNL     1       8.786  -3.145  23.908  0.00  0.00    +0.078 C 
ENDROOT
BRANCH   1   2
ATOM      2  N   UNL     1       7.914  -3.846  22.959  0.00  0.00    -0.312 N 
ATOM      3  H   UNL     1       8.170  -4.786  22.678  0.00  0.00    +0.149 HD
ATOM      4  C   UNL     1       6.768  -3.295  22.457  0.00  0.00    +0.214 C 
ATOM      5  O   UNL     1       6.314  -2.200  22.782  0.00  0.00    -0.276 OA
BRANCH   4   6
ATOM      6  C   UNL     1       5.971  -4.181  21.541  0.00  0.00    +0.107 C 
BRANCH   6   7
ATOM      7  C   UNL     1       5.938  -5.589  22.107  0.00  0.00    +0.129 C 
BRANCH   7   8
ATOM      8  C   UNL     1       4.684  -6.050  22.821  0.00  0.00    +0.305 C 
ATOM      9  O   UNL     1       3.645  -5.402  22.737  0.00  0.00    -0.251 OA
BRANCH   8  10
ATOM     10  O   UNL     1       4.728  -7.179  23.544  0.00  0.00    -0.481 OA
ATOM     11  H   UNL     1       3.982  -7.819  23.476  0.00  0.00    +0.295 HD
ENDBRANCH   8  10
ENDBRANCH   7   8
ENDBRANCH   6   7
ENDBRANCH   4   6
ENDBRANCH   1   2
BRANCH   1  12
ATOM     12  C   UNL     1       9.252  -4.135  24.996  0.00  0.00    +0.037 C 
BRANCH  12  13
ATOM     13  C   UNL     1       8.717  -3.916  26.420  0.00  0.00    +0.096 C 
ATOM     14  C   UNL     1       8.126  -2.514  26.566  0.00  0.00    +0.019 C 
BRANCH  13  15
ATOM     15  C   UNL     1       7.634  -4.954  26.687  0.00  0.00    +0.310 C 
ATOM     16  O   UNL     1       7.645  -5.751  27.616  0.00  0.00    -0.251 OA
BRANCH  15  17
ATOM     17  O   UNL     1       6.689  -4.918  25.708  0.00  0.00    -0.465 OA
BRANCH  17  18
ATOM     18  C   UNL     1       5.339  -4.865  26.190  0.00  0.00    +0.229 C 
ATOM     19  C   UNL     1       4.687  -3.618  25.615  0.00  0.00    +0.048 C 
ENDBRANCH  17  18
ENDBRANCH  15  17
ENDBRANCH  13  15
ENDBRANCH  12  13
ENDBRANCH   1  12
BRANCH   1  20
ATOM     20  C   UNL     1       9.929  -2.369  23.202  0.00  0.00    +0.057 C 
BRANCH  20  21
ATOM     21  C   UNL     1       9.947  -0.857  23.262  0.00  0.00    -0.046 A 
ATOM     22  C   UNL     1      10.111  -0.245  24.509  0.00  0.00    +0.004 A 
ATOM     23  C   UNL     1      10.231   1.147  24.617  0.00  0.00    +0.009 A 
ATOM     24  C   UNL     1      10.230   1.976  23.484  0.00  0.00    -0.018 A 
ATOM     25  C   UNL     1      10.004   1.354  22.249  0.00  0.00    +0.009 A 
ATOM     26  C   UNL     1       9.826  -0.026  22.148  0.00  0.00    +0.004 A 
BRANCH  24  27
ATOM     27  C   UNL     1      10.479   3.433  23.568  0.00  0.00    -0.018 A 
ATOM     28  C   UNL     1       9.454   4.327  23.925  0.00  0.00    +0.008 A 
ATOM     29  C   UNL     1       9.694   5.702  24.042  0.00  0.00    +0.001 A 
ATOM     30  C   UNL     1      10.965   6.210  23.814  0.00  0.00    +0.000 A 
ATOM     31  C   UNL     1      12.003   5.351  23.470  0.00  0.00    +0.001 A 
ATOM     32  C   UNL     1      11.756   3.981  23.339  0.00  0.00    +0.008 A 
ENDBRANCH  24  27
ENDBRANCH  20  21
ENDBRANCH   1  20
TORSDOF 13
ENDMDL
MODEL 3
REMARK VINA RESULT:      -7.4      1.601      2.915
REMARK  Name = 
REMARK  15 active torsions:
REMARK  status: ('A' for Active; 'I' for Inactive)
REMARK    1  A    between atoms: C_2  and  C_3
REMARK    2  A    between atoms: C_2  and  C_16
REMARK    3  A    between atoms: C_2  and  N_25
REMARK    4  A    between atoms: C_3  and  C_4
REMARK    5  A    between atoms: C_7  and  C_10
REMARK    6  A    between atoms: C_16  and  C_17
REMARK    7  A    between atoms: C_17  and  C_19
REMARK    8  A    between atoms: C_17  and  C_20
REMARK    9  A    between atoms: C_20  and  O_22
REMARK   10  A    between atoms: O_22  and  C_23
REMARK   11  A    between atoms: C_23  and  C_24
REMARK   12  A    between atoms: C_26  and  C_28
REMARK   13  A    between atoms: C_28  and  C_29
REMARK   14  A    between atoms: C_29  and  C_30
REMARK   15  A    between atoms: C_30  and  O_31
REMARK                            x       y       z     vdW  Elec       q    Type
REMARK                         _______ _______ _______ _____ _____    ______ ____
ROOT
ATOM      1  C   UNL     1       8.275  -2.589  22.877  0.00  0.00    +0.078 C 
ENDROOT
BRANCH   1   2
ATOM      2  N   UNL     1       8.767  -3.261  24.084  0.00  0.00    -0.312 N 
ATOM      3  H   UNL     1       9.158  -2.689  24.825  0.00  0.00    +0.149 HD
ATOM      4  C   UNL     1       8.701  -4.615  24.261  0.00  0.00    +0.214 C 
ATOM      5  O   UNL     1       8.179  -5.402  23.474  0.00  0.00    -0.276 OA
BRANCH   4   6
ATOM      6  C   UNL     1       9.201  -5.120  25.585  0.00  0.00    +0.107 C 
BRANCH   6   7
ATOM      7  C   UNL     1       8.344  -4.548  26.698  0.00  0.00    +0.129 C 
BRANCH   7   8
ATOM      8  C   UNL     1       7.107  -5.313  27.123  0.00  0.00    +0.305 C 
ATOM      9  O   UNL     1       6.726  -5.284  28.289  0.00  0.00    -0.251 OA
BRANCH   8  10
ATOM     10  O   UNL     1       6.435  -6.021  26.202  0.00  0.00    -0.481 OA
ATOM     11  H   UNL     1       6.489  -5.748  25.257  0.00  0.00    +0.295 HD
ENDBRANCH   8  10
ENDBRANCH   7   8
ENDBRANCH   6   7
ENDBRANCH   4   6
ENDBRANCH   1   2
BRANCH   1  12
ATOM     12  C   UNL     1       7.094  -1.669  23.253  0.00  0.00    +0.037 C 
BRANCH  12  13
ATOM     13  C   UNL     1       6.813  -1.465  24.750  0.00  0.00    +0.096 C 
ATOM     14  C   UNL     1       6.790   0.023  25.098  0.00  0.00    +0.019 C 
BRANCH  13  15
ATOM     15  C   UNL     1       5.457  -2.082  25.069  0.00  0.00    +0.310 C 
ATOM     16  O   UNL     1       4.513  -1.476  25.561  0.00  0.00    -0.251 OA
BRANCH  15  17
ATOM     17  O   UNL     1       5.465  -3.415  24.797  0.00  0.00    -0.465 OA
BRANCH  17  18
ATOM     18  C   UNL     1       4.263  -3.901  24.183  0.00  0.00    +0.229 C 
ATOM     19  C   UNL     1       4.657  -4.943  23.149  0.00  0.00    +0.048 C 
ENDBRANCH  17  18
ENDBRANCH  15  17
ENDBRANCH  13  15
ENDBRANCH  12  13
ENDBRANCH   1  12
BRANCH   1  20
ATOM     20  C   UNL     1       9.410  -1.897  22.079  0.00  0.00    +0.057 C 
BRANCH  20  21
ATOM     21  C   UNL     1       9.821  -0.486  22.443  0.00  0.00    -0.046 A 
ATOM     22  C   UNL     1       9.521   0.544  21.544  0.00  0.00    +0.004 A 
ATOM     23  C   UNL     1       9.790   1.880  21.867  0.00  0.00    +0.009 A 
ATOM     24  C   UNL     1      10.332   2.243  23.110  0.00  0.00    -0.018 A 
ATOM     25  C   UNL     1      10.682   1.196  23.974  0.00  0.00    +0.009 A 
ATOM     26  C   UNL     1      10.468  -0.139  23.628  0.00  0.00    +0.004 A 
BRANCH  24  27
ATOM     27  C   UNL     1      10.507   3.655  23.517  0.00  0.00    -0.018 A 
ATOM     28  C   UNL     1       9.452   4.380  24.102  0.00  0.00    +0.008 A 
ATOM     29  C   UNL     1       9.622   5.705  24.522  0.00  0.00    +0.001 A 
ATOM     30  C   UNL     1      10.853   6.331  24.375  0.00  0.00    +0.000 A 
ATOM     31  C   UNL     1      11.918   5.639  23.810  0.00  0.00    +0.001 A 
ATOM     32  C   UNL     1      11.740   4.320  23.377  0.00  0.00    +0.008 A 
ENDBRANCH  24  27
ENDBRANCH  20  21
ENDBRANCH   1  20
TORSDOF 13
ENDMDL
MODEL 4
REMARK VINA RESULT:      -7.1      2.208      3.951
REMARK  Name = 
REMARK  15 active torsions:
REMARK  status: ('A' for Active; 'I' for Inactive)
REMARK    1  A    between atoms: C_2  and  C_3
REMARK    2  A    between atoms: C_2  and  C_16
REMARK    3  A    between atoms: C_2  and  N_25
REMARK    4  A    between atoms: C_3  and  C_4
REMARK    5  A    between atoms: C_7  and  C_10
REMARK    6  A    between atoms: C_16  and  C_17
REMARK    7  A    between atoms: C_17  and  C_19
REMARK    8  A    between atoms: C_17  and  C_20
REMARK    9  A    between atoms: C_20  and  O_22
REMARK   10  A    between atoms: O_22  and  C_23
REMARK   11  A    between atoms: C_23  and  C_24
REMARK   12  A    between atoms: C_26  and  C_28
REMARK   13  A    between atoms: C_28  and  C_29
REMARK   14  A    between atoms: C_29  and  C_30
REMARK   15  A    between atoms: C_30  and  O_31
REMARK                            x       y       z     vdW  Elec       q    Type
REMARK                         _______ _______ _______ _____ _____    ______ ____
ROOT
ATOM      1  C   UNL     1       8.183  -2.570  23.165  0.00  0.00    +0.078 C 
ENDROOT
BRANCH   1   2
ATOM      2  N   UNL     1       7.270  -1.488  23.551  0.00  0.00    -0.312 N 
ATOM      3  H   UNL     1       6.743  -1.023  22.821  0.00  0.00    +0.149 HD
ATOM      4  C   UNL     1       7.087  -1.098  24.849  0.00  0.00    +0.214 C 
ATOM      5  O   UNL     1       7.608  -1.635  25.824  0.00  0.00    -0.276 OA
BRANCH   4   6
ATOM      6  C   UNL     1       6.070  -0.012  25.060  0.00  0.00    +0.107 C 
BRANCH   6   7
ATOM      7  C   UNL     1       6.704   1.335  24.770  0.00  0.00    +0.129 C 
BRANCH   7   8
ATOM      8  C   UNL     1       6.413   1.998  23.439  0.00  0.00    +0.305 C 
ATOM      9  O   UNL     1       6.305   3.218  23.361  0.00  0.00    -0.251 OA
BRANCH   8  10
ATOM     10  O   UNL     1       6.278   1.229  22.348  0.00  0.00    -0.481 OA
ATOM     11  H   UNL     1       6.405   0.255  22.432  0.00  0.00    +0.295 HD
ENDBRANCH   8  10
ENDBRANCH   7   8
ENDBRANCH   6   7
ENDBRANCH   4   6
ENDBRANCH   1   2
BRANCH   1  12
ATOM     12  C   UNL     1       7.426  -3.583  22.281  0.00  0.00    +0.037 C 
BRANCH  12  13
ATOM     13  C   UNL     1       6.968  -4.890  22.948  0.00  0.00    +0.096 C 
ATOM     14  C   UNL     1       7.113  -6.068  21.984  0.00  0.00    +0.019 C 
BRANCH  13  15
ATOM     15  C   UNL     1       7.838  -5.129  24.176  0.00  0.00    +0.310 C 
ATOM     16  O   UNL     1       9.002  -5.508  24.143  0.00  0.00    -0.251 OA
BRANCH  15  17
ATOM     17  O   UNL     1       7.119  -4.930  25.314  0.00  0.00    -0.465 OA
BRANCH  17  18
ATOM     18  C   UNL     1       5.699  -5.021  25.141  0.00  0.00    +0.229 C 
ATOM     19  C   UNL     1       5.209  -6.220  25.936  0.00  0.00    +0.048 C 
ENDBRANCH  17  18
ENDBRANCH  15  17
ENDBRANCH  13  15
ENDBRANCH  12  13
ENDBRANCH   1  12
BRANCH   1  20
ATOM     20  C   UNL     1       9.508  -2.039  22.557  0.00  0.00    +0.057 C 
BRANCH  20  21
ATOM     21  C   UNL     1       9.914  -0.602  22.802  0.00  0.00    -0.046 A 
ATOM     22  C   UNL     1       9.630   0.345  21.812  0.00  0.00    +0.004 A 
ATOM     23  C   UNL     1       9.895   1.705  22.021  0.00  0.00    +0.009 A 
ATOM     24  C   UNL     1      10.418   2.175  23.236  0.00  0.00    -0.018 A 
ATOM     25  C   UNL     1      10.753   1.209  24.194  0.00  0.00    +0.009 A 
ATOM     26  C   UNL     1      10.543  -0.151  23.963  0.00  0.00    +0.004 A 
BRANCH  24  27
ATOM     27  C   UNL     1      10.588   3.618  23.519  0.00  0.00    -0.018 A 
ATOM     28  C   UNL     1       9.515   4.399  23.988  0.00  0.00    +0.008 A 
ATOM     29  C   UNL     1       9.680   5.756  24.292  0.00  0.00    +0.001 A 
ATOM     30  C   UNL     1      10.921   6.359  24.144  0.00  0.00    +0.000 A 
ATOM     31  C   UNL     1      12.004   5.612  23.694  0.00  0.00    +0.001 A 
ATOM     32  C   UNL     1      11.832   4.261  23.375  0.00  0.00    +0.008 A 
ENDBRANCH  24  27
ENDBRANCH  20  21
ENDBRANCH   1  20
TORSDOF 13
ENDMDL
MODEL 5
REMARK VINA RESULT:      -7.0      1.888      3.190
REMARK  Name = 
REMARK  15 active torsions:
REMARK  status: ('A' for Active; 'I' for Inactive)
REMARK    1  A    between atoms: C_2  and  C_3
REMARK    2  A    between atoms: C_2  and  C_16
REMARK    3  A    between atoms: C_2  and  N_25
REMARK    4  A    between atoms: C_3  and  C_4
REMARK    5  A    between atoms: C_7  and  C_10
REMARK    6  A    between atoms: C_16  and  C_17
REMARK    7  A    between atoms: C_17  and  C_19
REMARK    8  A    between atoms: C_17  and  C_20
REMARK    9  A    between atoms: C_20  and  O_22
REMARK   10  A    between atoms: O_22  and  C_23
REMARK   11  A    between atoms: C_23  and  C_24
REMARK   12  A    between atoms: C_26  and  C_28
REMARK   13  A    between atoms: C_28  and  C_29
REMARK   14  A    between atoms: C_29  and  C_30
REMARK   15  A    between atoms: C_30  and  O_31
REMARK                            x       y       z     vdW  Elec       q    Type
REMARK                         _______ _______ _______ _____ _____    ______ ____
ROOT
ATOM      1  C   UNL     1       7.812  -2.371  22.553  0.00  0.00    +0.078 C 
ENDROOT
BRANCH   1   2
ATOM      2  N   UNL     1       7.544  -3.774  22.222  0.00  0.00    -0.312 N 
ATOM      3  H   UNL     1       8.236  -4.468  22.483  0.00  0.00    +0.149 HD
ATOM      4  C   UNL     1       6.399  -4.185  21.598  0.00  0.00    +0.214 C 
ATOM      5  O   UNL     1       5.457  -3.453  21.305  0.00  0.00    -0.276 OA
BRANCH   4   6
ATOM      6  C   UNL     1       6.272  -5.669  21.391  0.00  0.00    +0.107 C 
BRANCH   6   7
ATOM      7  C   UNL     1       5.973  -6.339  22.719  0.00  0.00    +0.129 C 
BRANCH   7   8
ATOM      8  C   UNL     1       4.693  -5.971  23.441  0.00  0.00    +0.305 C 
ATOM      9  O   UNL     1       4.630  -6.024  24.665  0.00  0.00    -0.251 OA
BRANCH   8  10
ATOM     10  O   UNL     1       3.630  -5.584  22.719  0.00  0.00    -0.481 OA
ATOM     11  H   UNL     1       3.484  -4.622  22.562  0.00  0.00    +0.295 HD
ENDBRANCH   8  10
ENDBRANCH   7   8
ENDBRANCH   6   7
ENDBRANCH   4   6
ENDBRANCH   1   2
BRANCH   1  12
ATOM     12  C   UNL     1       7.340  -2.090  23.995  0.00  0.00    +0.037 C 
BRANCH  12  13
ATOM     13  C   UNL     1       5.978  -1.397  24.165  0.00  0.00    +0.096 C 
ATOM     14  C   UNL     1       5.087  -2.184  25.125  0.00  0.00    +0.019 C 
BRANCH  13  15
ATOM     15  C   UNL     1       6.221  -0.002  24.728  0.00  0.00    +0.310 C 
ATOM     16  O   UNL     1       5.909   0.360  25.855  0.00  0.00    -0.251 OA
BRANCH  15  17
ATOM     17  O   UNL     1       6.768   0.806  23.778  0.00  0.00    -0.465 OA
BRANCH  17  18
ATOM     18  C   UNL     1       6.301   2.161  23.813  0.00  0.00    +0.229 C 
ATOM     19  C   UNL     1       6.443   2.739  22.414  0.00  0.00    +0.048 C 
ENDBRANCH  17  18
ENDBRANCH  15  17
ENDBRANCH  13  15
ENDBRANCH  12  13
ENDBRANCH   1  12
BRANCH   1  20
ATOM     20  C   UNL     1       9.278  -1.961  22.257  0.00  0.00    +0.057 C 
BRANCH  20  21
ATOM     21  C   UNL     1       9.741  -0.560  22.595  0.00  0.00    -0.046 A 
ATOM     22  C   UNL     1       9.576   0.443  21.633  0.00  0.00    +0.004 A 
ATOM     23  C   UNL     1       9.896   1.775  21.922  0.00  0.00    +0.009 A 
ATOM     24  C   UNL     1      10.356   2.164  23.189  0.00  0.00    -0.018 A 
ATOM     25  C   UNL     1      10.573   1.141  24.122  0.00  0.00    +0.009 A 
ATOM     26  C   UNL     1      10.309  -0.195  23.815  0.00  0.00    +0.004 A 
BRANCH  24  27
ATOM     27  C   UNL     1      10.581   3.582  23.550  0.00  0.00    -0.018 A 
ATOM     28  C   UNL     1      11.836   4.190  23.366  0.00  0.00    +0.008 A 
ATOM     29  C   UNL     1      12.044   5.541  23.671  0.00  0.00    +0.001 A 
ATOM     30  C   UNL     1      11.000   6.315  24.158  0.00  0.00    +0.000 A 
ATOM     31  C   UNL     1       9.744   5.747  24.342  0.00  0.00    +0.001 A 
ATOM     32  C   UNL     1       9.544   4.393  24.051  0.00  0.00    +0.008 A 
ENDBRANCH  24  27
ENDBRANCH  20  21
ENDBRANCH   1  20
TORSDOF 13
ENDMDL
MODEL 6
REMARK VINA RESULT:      -6.6      1.939      4.226
REMARK  Name = 
REMARK  15 active torsions:
REMARK  status: ('A' for Active; 'I' for Inactive)
REMARK    1  A    between atoms: C_2  and  C_3
REMARK    2  A    between atoms: C_2  and  C_16
REMARK    3  A    between atoms: C_2  and  N_25
REMARK    4  A    between atoms: C_3  and  C_4
REMARK    5  A    between atoms: C_7  and  C_10
REMARK    6  A    between atoms: C_16  and  C_17
REMARK    7  A    between atoms: C_17  and  C_19
REMARK    8  A    between atoms: C_17  and  C_20
REMARK    9  A    between atoms: C_20  and  O_22
REMARK   10  A    between atoms: O_22  and  C_23
REMARK   11  A    between atoms: C_23  and  C_24
REMARK   12  A    between atoms: C_26  and  C_28
REMARK   13  A    between atoms: C_28  and  C_29
REMARK   14  A    between atoms: C_29  and  C_30
REMARK   15  A    between atoms: C_30  and  O_31
REMARK                            x       y       z     vdW  Elec       q    Type
REMARK                         _______ _______ _______ _____ _____    ______ ____
ROOT
ATOM      1  C   UNL     1       8.083  -4.951  24.734  0.00  0.00    +0.078 C 
ENDROOT
BRANCH   1   2
ATOM      2  N   UNL     1       7.029  -4.483  25.642  0.00  0.00    -0.312 N 
ATOM      3  H   UNL     1       6.323  -3.857  25.272  0.00  0.00    +0.149 HD
ATOM      4  C   UNL     1       6.949  -4.872  26.950  0.00  0.00    +0.214 C 
ATOM      5  O   UNL     1       7.697  -5.685  27.489  0.00  0.00    -0.276 OA
BRANCH   4   6
ATOM      6  C   UNL     1       5.769  -4.337  27.713  0.00  0.00    +0.107 C 
BRANCH   6   7
ATOM      7  C   UNL     1       5.298  -5.382  28.707  0.00  0.00    +0.129 C 
BRANCH   7   8
ATOM      8  C   UNL     1       4.787  -6.705  28.174  0.00  0.00    +0.305 C 
ATOM      9  O   UNL     1       3.701  -6.772  27.608  0.00  0.00    -0.251 OA
BRANCH   8  10
ATOM     10  O   UNL     1       5.544  -7.802  28.332  0.00  0.00    -0.481 OA
ATOM     11  H   UNL     1       6.328  -7.929  27.749  0.00  0.00    +0.295 HD
ENDBRANCH   8  10
ENDBRANCH   7   8
ENDBRANCH   6   7
ENDBRANCH   4   6
ENDBRANCH   1   2
BRANCH   1  12
ATOM     12  C   UNL     1       7.519  -5.033  23.300  0.00  0.00    +0.037 C 
BRANCH  12  13
ATOM     13  C   UNL     1       6.165  -4.353  23.039  0.00  0.00    +0.096 C 
ATOM     14  C   UNL     1       6.362  -3.007  22.343  0.00  0.00    +0.019 C 
BRANCH  13  15
ATOM     15  C   UNL     1       5.336  -5.270  22.147  0.00  0.00    +0.310 C 
ATOM     16  O   UNL     1       5.733  -5.771  21.102  0.00  0.00    -0.251 OA
BRANCH  15  17
ATOM     17  O   UNL     1       4.073  -5.394  22.636  0.00  0.00    -0.465 OA
BRANCH  17  18
ATOM     18  C   UNL     1       4.003  -5.572  24.057  0.00  0.00    +0.229 C 
ATOM     19  C   UNL     1       2.917  -4.651  24.589  0.00  0.00    +0.048 C 
ENDBRANCH  17  18
ENDBRANCH  15  17
ENDBRANCH  13  15
ENDBRANCH  12  13
ENDBRANCH   1  12
BRANCH   1  20
ATOM     20  C   UNL     1       9.392  -4.129  24.872  0.00  0.00    +0.057 C 
BRANCH  20  21
ATOM     21  C   UNL     1       9.364  -2.639  24.614  0.00  0.00    -0.046 A 
ATOM     22  C   UNL     1       8.948  -1.794  25.649  0.00  0.00    +0.004 A 
ATOM     23  C   UNL     1       8.992  -0.402  25.502  0.00  0.00    +0.009 A 
ATOM     24  C   UNL     1       9.485   0.200  24.334  0.00  0.00    -0.018 A 
ATOM     25  C   UNL     1       9.841  -0.658  23.285  0.00  0.00    +0.009 A 
ATOM     26  C   UNL     1       9.743  -2.044  23.410  0.00  0.00    +0.004 A 
BRANCH  24  27
ATOM     27  C   UNL     1       9.655   1.666  24.209  0.00  0.00    -0.018 A 
ATOM     28  C   UNL     1      10.793   2.217  23.593  0.00  0.00    +0.008 A 
ATOM     29  C   UNL     1      10.941   3.601  23.439  0.00  0.00    +0.001 A 
ATOM     30  C   UNL     1       9.951   4.463  23.890  0.00  0.00    +0.000 A 
ATOM     31  C   UNL     1       8.809   3.949  24.494  0.00  0.00    +0.001 A 
ATOM     32  C   UNL     1       8.671   2.567  24.660  0.00  0.00    +0.008 A 
ENDBRANCH  24  27
ENDBRANCH  20  21
ENDBRANCH   1  20
TORSDOF 13
ENDMDL
MODEL 7
REMARK VINA RESULT:      -6.6      1.789      3.778
REMARK  Name = 
REMARK  15 active torsions:
REMARK  status: ('A' for Active; 'I' for Inactive)
REMARK    1  A    between atoms: C_2  and  C_3
REMARK    2  A    between atoms: C_2  and  C_16
REMARK    3  A    between atoms: C_2  and  N_25
REMARK    4  A    between atoms: C_3  and  C_4
REMARK    5  A    between atoms: C_7  and  C_10
REMARK    6  A    between atoms: C_16  and  C_17
REMARK    7  A    between atoms: C_17  and  C_19
REMARK    8  A    between atoms: C_17  and  C_20
REMARK    9  A    between atoms: C_20  and  O_22
REMARK   10  A    between atoms: O_22  and  C_23
REMARK   11  A    between atoms: C_23  and  C_24
REMARK   12  A    between atoms: C_26  and  C_28
REMARK   13  A    between atoms: C_28  and  C_29
REMARK   14  A    between atoms: C_29  and  C_30
REMARK   15  A    between atoms: C_30  and  O_31
REMARK                            x       y       z     vdW  Elec       q    Type
REMARK                         _______ _______ _______ _____ _____    ______ ____
ROOT
ATOM      1  C   UNL     1       6.646  -2.100  23.720  0.00  0.00    +0.078 C 
ENDROOT
BRANCH   1   2
ATOM      2  N   UNL     1       7.342  -2.967  24.677  0.00  0.00    -0.312 N 
ATOM      3  H   UNL     1       6.845  -3.255  25.512  0.00  0.00    +0.149 HD
ATOM      4  C   UNL     1       8.618  -3.418  24.479  0.00  0.00    +0.214 C 
ATOM      5  O   UNL     1       9.291  -3.204  23.473  0.00  0.00    -0.276 OA
BRANCH   4   6
ATOM      6  C   UNL     1       9.149  -4.344  25.537  0.00  0.00    +0.107 C 
BRANCH   6   7
ATOM      7  C   UNL     1       8.204  -4.344  26.725  0.00  0.00    +0.129 C 
BRANCH   7   8
ATOM      8  C   UNL     1       7.346  -5.569  26.964  0.00  0.00    +0.305 C 
ATOM      9  O   UNL     1       6.558  -5.955  26.106  0.00  0.00    -0.251 OA
BRANCH   8  10
ATOM     10  O   UNL     1       7.463  -6.225  28.129  0.00  0.00    -0.481 OA
ATOM     11  H   UNL     1       6.797  -6.063  28.837  0.00  0.00    +0.295 HD
ENDBRANCH   8  10
ENDBRANCH   7   8
ENDBRANCH   6   7
ENDBRANCH   4   6
ENDBRANCH   1   2
BRANCH   1  12
ATOM     12  C   UNL     1       5.387  -2.825  23.201  0.00  0.00    +0.037 C 
BRANCH  12  13
ATOM     13  C   UNL     1       4.891  -4.037  24.008  0.00  0.00    +0.096 C 
ATOM     14  C   UNL     1       3.612  -3.692  24.770  0.00  0.00    +0.019 C 
BRANCH  13  15
ATOM     15  C   UNL     1       4.611  -5.175  23.034  0.00  0.00    +0.310 C 
ATOM     16  O   UNL     1       4.032  -6.214  23.324  0.00  0.00    -0.251 OA
BRANCH  15  17
ATOM     17  O   UNL     1       5.158  -4.906  21.817  0.00  0.00    -0.465 OA
BRANCH  17  18
ATOM     18  C   UNL     1       5.987  -5.954  21.296  0.00  0.00    +0.229 C 
ATOM     19  C   UNL     1       7.312  -5.912  22.039  0.00  0.00    +0.048 C 
ENDBRANCH  17  18
ENDBRANCH  15  17
ENDBRANCH  13  15
ENDBRANCH  12  13
ENDBRANCH   1  12
BRANCH   1  20
ATOM     20  C   UNL     1       6.391  -0.678  24.286  0.00  0.00    +0.057 C 
BRANCH  20  21
ATOM     21  C   UNL     1       7.433   0.400  24.082  0.00  0.00    -0.046 A 
ATOM     22  C   UNL     1       7.071   1.544  23.362  0.00  0.00    +0.004 A 
ATOM     23  C   UNL     1       7.960   2.616  23.221  0.00  0.00    +0.009 A 
ATOM     24  C   UNL     1       9.228   2.605  23.824  0.00  0.00    -0.018 A 
ATOM     25  C   UNL     1       9.599   1.429  24.490  0.00  0.00    +0.009 A 
ATOM     26  C   UNL     1       8.734   0.337  24.580  0.00  0.00    +0.004 A 
BRANCH  24  27
ATOM     27  C   UNL     1      10.132   3.777  23.791  0.00  0.00    -0.018 A 
ATOM     28  C   UNL     1      11.467   3.655  23.364  0.00  0.00    +0.008 A 
ATOM     29  C   UNL     1      12.315   4.768  23.297  0.00  0.00    +0.001 A 
ATOM     30  C   UNL     1      11.844   6.026  23.644  0.00  0.00    +0.000 A 
ATOM     31  C   UNL     1      10.527   6.182  24.059  0.00  0.00    +0.001 A 
ATOM     32  C   UNL     1       9.687   5.067  24.141  0.00  0.00    +0.008 A 
ENDBRANCH  24  27
ENDBRANCH  20  21
ENDBRANCH   1  20
TORSDOF 13
ENDMDL
MODEL 8
REMARK VINA RESULT:      -6.5      2.457      5.406
REMARK  Name = 
REMARK  15 active torsions:
REMARK  status: ('A' for Active; 'I' for Inactive)
REMARK    1  A    between atoms: C_2  and  C_3
REMARK    2  A    between atoms: C_2  and  C_16
REMARK    3  A    between atoms: C_2  and  N_25
REMARK    4  A    between atoms: C_3  and  C_4
REMARK    5  A    between atoms: C_7  and  C_10
REMARK    6  A    between atoms: C_16  and  C_17
REMARK    7  A    between atoms: C_17  and  C_19
REMARK    8  A    between atoms: C_17  and  C_20
REMARK    9  A    between atoms: C_20  and  O_22
REMARK   10  A    between atoms: O_22  and  C_23
REMARK   11  A    between atoms: C_23  and  C_24
REMARK   12  A    between atoms: C_26  and  C_28
REMARK   13  A    between atoms: C_28  and  C_29
REMARK   14  A    between atoms: C_29  and  C_30
REMARK   15  A    between atoms: C_30  and  O_31
REMARK                            x       y       z     vdW  Elec       q    Type
REMARK                         _______ _______ _______ _____ _____    ______ ____
ROOT
ATOM      1  C   UNL     1       6.680  -5.524  26.522  0.00  0.00    +0.078 C 
ENDROOT
BRANCH   1   2
ATOM      2  N   UNL     1       6.251  -5.239  27.896  0.00  0.00    -0.312 N 
ATOM      3  H   UNL     1       6.237  -4.272  28.202  0.00  0.00    +0.149 HD
ATOM      4  C   UNL     1       5.852  -6.214  28.767  0.00  0.00    +0.214 C 
ATOM      5  O   UNL     1       5.751  -7.407  28.488  0.00  0.00    -0.276 OA
BRANCH   4   6
ATOM      6  C   UNL     1       5.391  -5.730  30.113  0.00  0.00    +0.107 C 
BRANCH   6   7
ATOM      7  C   UNL     1       4.429  -4.572  29.929  0.00  0.00    +0.129 C 
BRANCH   7   8
ATOM      8  C   UNL     1       3.179  -4.796  29.103  0.00  0.00    +0.305 C 
ATOM      9  O   UNL     1       3.115  -4.392  27.947  0.00  0.00    -0.251 OA
BRANCH   8  10
ATOM     10  O   UNL     1       2.144  -5.446  29.658  0.00  0.00    -0.481 OA
ATOM     11  H   UNL     1       2.323  -6.233  30.224  0.00  0.00    +0.295 HD
ENDBRANCH   8  10
ENDBRANCH   7   8
ENDBRANCH   6   7
ENDBRANCH   4   6
ENDBRANCH   1   2
BRANCH   1  12
ATOM     12  C   UNL     1       5.767  -4.766  25.537  0.00  0.00    +0.037 C 
BRANCH  12  13
ATOM     13  C   UNL     1       5.100  -5.589  24.423  0.00  0.00    +0.096 C 
ATOM     14  C   UNL     1       3.626  -5.210  24.279  0.00  0.00    +0.019 C 
BRANCH  13  15
ATOM     15  C   UNL     1       5.828  -5.301  23.116  0.00  0.00    +0.310 C 
ATOM     16  O   UNL     1       6.923  -5.758  22.813  0.00  0.00    -0.251 OA
BRANCH  15  17
ATOM     17  O   UNL     1       5.125  -4.410  22.365  0.00  0.00    -0.465 OA
BRANCH  17  18
ATOM     18  C   UNL     1       5.918  -3.358  21.798  0.00  0.00    +0.229 C 
ATOM     19  C   UNL     1       6.143  -2.311  22.877  0.00  0.00    +0.048 C 
ENDBRANCH  17  18
ENDBRANCH  15  17
ENDBRANCH  13  15
ENDBRANCH  12  13
ENDBRANCH   1  12
BRANCH   1  20
ATOM     20  C   UNL     1       8.199  -5.287  26.315  0.00  0.00    +0.057 C 
BRANCH  20  21
ATOM     21  C   UNL     1       8.676  -3.961  25.763  0.00  0.00    -0.046 A 
ATOM     22  C   UNL     1       9.406  -3.964  24.570  0.00  0.00    +0.004 A 
ATOM     23  C   UNL     1       9.792  -2.763  23.961  0.00  0.00    +0.009 A 
ATOM     24  C   UNL     1       9.433  -1.516  24.498  0.00  0.00    -0.018 A 
ATOM     25  C   UNL     1       8.755  -1.530  25.724  0.00  0.00    +0.009 A 
ATOM     26  C   UNL     1       8.421  -2.726  26.360  0.00  0.00    +0.004 A 
BRANCH  24  27
ATOM     27  C   UNL     1       9.724  -0.241  23.804  0.00  0.00    -0.018 A 
ATOM     28  C   UNL     1       9.364  -0.047  22.458  0.00  0.00    +0.008 A 
ATOM     29  C   UNL     1       9.604   1.170  21.808  0.00  0.00    +0.001 A 
ATOM     30  C   UNL     1      10.200   2.221  22.491  0.00  0.00    +0.000 A 
ATOM     31  C   UNL     1      10.559   2.064  23.825  0.00  0.00    +0.001 A 
ATOM     32  C   UNL     1      10.332   0.842  24.467  0.00  0.00    +0.008 A 
ENDBRANCH  24  27
ENDBRANCH  20  21
ENDBRANCH   1  20
TORSDOF 13
ENDMDL
MODEL 9
REMARK VINA RESULT:      -6.4      2.830      8.711
REMARK  Name = 
REMARK  15 active torsions:
REMARK  status: ('A' for Active; 'I' for Inactive)
REMARK    1  A    between atoms: C_2  and  C_3
REMARK    2  A    between atoms: C_2  and  C_16
REMARK    3  A    between atoms: C_2  and  N_25
REMARK    4  A    between atoms: C_3  and  C_4
REMARK    5  A    between atoms: C_7  and  C_10
REMARK    6  A    between atoms: C_16  and  C_17
REMARK    7  A    between atoms: C_17  and  C_19
REMARK    8  A    between atoms: C_17  and  C_20
REMARK    9  A    between atoms: C_20  and  O_22
REMARK   10  A    between atoms: O_22  and  C_23
REMARK   11  A    between atoms: C_23  and  C_24
REMARK   12  A    between atoms: C_26  and  C_28
REMARK   13  A    between atoms: C_28  and  C_29
REMARK   14  A    between atoms: C_29  and  C_30
REMARK   15  A    between atoms: C_30  and  O_31
REMARK                            x       y       z     vdW  Elec       q    Type
REMARK                         _______ _______ _______ _____ _____    ______ ____
ROOT
ATOM      1  C   UNL     1       8.543  -2.961  23.486  0.00  0.00    +0.078 C 
ENDROOT
BRANCH   1   2
ATOM      2  N   UNL     1       8.984  -1.568  23.616  0.00  0.00    -0.312 N 
ATOM      3  H   UNL     1       8.463  -0.957  24.235  0.00  0.00    +0.149 HD
ATOM      4  C   UNL     1      10.074  -1.068  22.958  0.00  0.00    +0.214 C 
ATOM      5  O   UNL     1      10.828  -1.728  22.245  0.00  0.00    -0.276 OA
BRANCH   4   6
ATOM      6  C   UNL     1      10.409   0.366  23.257  0.00  0.00    +0.107 C 
BRANCH   6   7
ATOM      7  C   UNL     1       9.971   1.238  22.096  0.00  0.00    +0.129 C 
BRANCH   7   8
ATOM      8  C   UNL     1       8.565   1.802  22.108  0.00  0.00    +0.305 C 
ATOM      9  O   UNL     1       7.596   1.057  22.214  0.00  0.00    -0.251 OA
BRANCH   8  10
ATOM     10  O   UNL     1       8.398   3.129  22.001  0.00  0.00    -0.481 OA
ATOM     11  H   UNL     1       7.969   3.493  21.192  0.00  0.00    +0.295 HD
ENDBRANCH   8  10
ENDBRANCH   7   8
ENDBRANCH   6   7
ENDBRANCH   4   6
ENDBRANCH   1   2
BRANCH   1  12
ATOM     12  C   UNL     1       8.022  -3.458  24.850  0.00  0.00    +0.037 C 
BRANCH  12  13
ATOM     13  C   UNL     1       8.327  -4.917  25.227  0.00  0.00    +0.096 C 
ATOM     14  C   UNL     1       9.787  -5.073  25.651  0.00  0.00    +0.019 C 
BRANCH  13  15
ATOM     15  C   UNL     1       7.417  -5.309  26.386  0.00  0.00    +0.310 C 
ATOM     16  O   UNL     1       7.773  -5.393  27.554  0.00  0.00    -0.251 OA
BRANCH  15  17
ATOM     17  O   UNL     1       6.174  -5.622  25.930  0.00  0.00    -0.465 OA
BRANCH  17  18
ATOM     18  C   UNL     1       5.306  -6.189  26.920  0.00  0.00    +0.229 C 
ATOM     19  C   UNL     1       4.035  -5.356  26.958  0.00  0.00    +0.048 C 
ENDBRANCH  17  18
ENDBRANCH  15  17
ENDBRANCH  13  15
ENDBRANCH  12  13
ENDBRANCH   1  12
BRANCH   1  20
ATOM     20  C   UNL     1       7.563  -3.164  22.301  0.00  0.00    +0.057 C 
BRANCH  20  21
ATOM     21  C   UNL     1       6.286  -3.946  22.520  0.00  0.00    -0.046 A 
ATOM     22  C   UNL     1       6.270  -5.300  22.167  0.00  0.00    +0.004 A 
ATOM     23  C   UNL     1       5.150  -6.099  22.433  0.00  0.00    +0.009 A 
ATOM     24  C   UNL     1       4.022  -5.588  23.093  0.00  0.00    -0.018 A 
ATOM     25  C   UNL     1       4.029  -4.218  23.386  0.00  0.00    +0.009 A 
ATOM     26  C   UNL     1       5.121  -3.410  23.069  0.00  0.00    +0.004 A 
BRANCH  24  27
ATOM     27  C   UNL     1       2.883  -6.445  23.493  0.00  0.00    -0.018 A 
ATOM     28  C   UNL     1       3.078  -7.593  24.284  0.00  0.00    +0.008 A 
ATOM     29  C   UNL     1       2.000  -8.386  24.696  0.00  0.00    +0.001 A 
ATOM     30  C   UNL     1       0.704  -8.045  24.334  0.00  0.00    +0.000 A 
ATOM     31  C   UNL     1       0.477  -6.912  23.562  0.00  0.00    +0.001 A 
ATOM     32  C   UNL     1       1.557  -6.130  23.139  0.00  0.00    +0.008 A 
ENDBRANCH  24  27
ENDBRANCH  20  21
ENDBRANCH   1  20
TORSDOF 13
ENDMDL
