MODEL 1
REMARK VINA RESULT:      -7.2      0.000      0.000
REMARK  Name = 
REMARK  8 active torsions:
REMARK  status: ('A' for Active; 'I' for Inactive)
REMARK    1  A    between atoms: C_1  and  C_2
REMARK    2  A    between atoms: C_2  and  C_3
REMARK    3  A    between atoms: C_4  and  O_5
REMARK    4  A    between atoms: C_7  and  O_8
REMARK    5  A    between atoms: C_9  and  C_11
REMARK    6  A    between atoms: C_14  and  C_15
REMARK    7  A    between atoms: C_15  and  O_16
REMARK    8  A    between atoms: C_18  and  C_19
REMARK                            x       y       z     vdW  Elec       q    Type
REMARK                         _______ _______ _______ _____ _____    ______ ____
ROOT
ATOM      1  C   UNL     1       5.082  -5.387  23.503  0.00  0.00    +0.104 A 
ATOM      2  C   UNL     1       4.461  -5.858  24.724  0.00  0.00    +0.042 A 
ATOM      3  C   UNL     1       3.399  -6.655  24.295  0.00  0.00    +0.151 A 
ATOM      4  N   UNL     1       3.411  -6.553  22.930  0.00  0.00    -0.270 N 
ATOM      5  H   UNL     1       2.757  -6.995  22.289  0.00  0.00    +0.189 HD
ATOM      6  N   UNL     1       4.437  -5.869  22.428  0.00  0.00    -0.172 NA
ENDROOT
BRANCH   2   7
ATOM      7  C   UNL     1       4.829  -5.606  26.121  0.00  0.00    -0.010 A 
ATOM      8  C   UNL     1       5.295  -6.656  26.934  0.00  0.00    +0.058 A 
ATOM      9  C   UNL     1       5.615  -6.379  28.248  0.00  0.00    +0.167 A 
ATOM     10  C   UNL     1       5.461  -5.125  28.786  0.00  0.00    +0.166 A 
ATOM     11  O   UNL     1       5.798  -5.080  30.102  0.00  0.00    -0.453 OA
ATOM     12  C   UNL     1       6.084  -6.473  30.353  0.00  0.00    +0.466 C 
ATOM     13  C   UNL     1       5.004  -4.070  28.030  0.00  0.00    +0.050 A 
ATOM     14  O   UNL     1       6.090  -7.275  29.153  0.00  0.00    -0.453 OA
ATOM     15  C   UNL     1       4.706  -4.315  26.682  0.00  0.00    +0.012 A 
ENDBRANCH   2   7
BRANCH   1  18
ATOM     16  C   UNL     1       8.547  -4.026  24.139  0.00  0.00    -0.005 A 
ATOM     17  C   UNL     1       7.410  -4.852  24.128  0.00  0.00    +0.021 A 
ATOM     18  C   UNL     1       6.306  -4.594  23.293  0.00  0.00    +0.045 A 
ATOM     19  C   UNL     1       6.415  -3.560  22.359  0.00  0.00    +0.130 A 
ATOM     20  C   UNL     1       7.539  -2.731  22.347  0.00  0.00    +0.091 A 
ATOM     21  C   UNL     1       8.572  -2.941  23.260  0.00  0.00    +0.124 A 
BRANCH  16  23
ATOM     22  C   UNL     1       9.050  -4.610  26.512  0.00  0.00    +0.009 C 
ATOM     23  C   UNL     1       9.638  -4.320  25.138  0.00  0.00    +0.035 C 
ENDBRANCH  16  23
BRANCH  19  24
ATOM     24  O   UNL     1       5.412  -3.334  21.456  0.00  0.00    -0.506 OA
ATOM     25  H   UNL     1       4.825  -2.640  21.801  0.00  0.00    +0.292 HD
ENDBRANCH  19  24
BRANCH  21  26
ATOM     26  O   UNL     1       9.574  -2.015  23.250  0.00  0.00    -0.506 OA
ATOM     27  H   UNL     1       9.252  -1.199  23.667  0.00  0.00    +0.292 HD
ENDBRANCH  21  26
ENDBRANCH   1  18
BRANCH   3  28
ATOM     28  C   UNL     1       2.374  -7.466  24.894  0.00  0.00    +0.355 C 
ATOM     29  O   UNL     1       1.228  -7.084  25.075  0.00  0.00    -0.243 OA
BRANCH  28  30
ATOM     30  O   UNL     1       2.755  -8.734  25.158  0.00  0.00    -0.476 OA
ATOM     31  H   UNL     1       3.199  -8.843  26.017  0.00  0.00    +0.295 HD
ENDBRANCH  28  30
ENDBRANCH   3  28
TORSDOF 7
ENDMDL
MODEL 2
REMARK VINA RESULT:      -7.0      4.189      5.835
REMARK  Name = 
REMARK  8 active torsions:
REMARK  status: ('A' for Active; 'I' for Inactive)
REMARK    1  A    between atoms: C_1  and  C_2
REMARK    2  A    between atoms: C_2  and  C_3
REMARK    3  A    between atoms: C_4  and  O_5
REMARK    4  A    between atoms: C_7  and  O_8
REMARK    5  A    between atoms: C_9  and  C_11
REMARK    6  A    between atoms: C_14  and  C_15
REMARK    7  A    between atoms: C_15  and  O_16
REMARK    8  A    between atoms: C_18  and  C_19
REMARK                            x       y       z     vdW  Elec       q    Type
REMARK                         _______ _______ _______ _____ _____    ______ ____
ROOT
ATOM      1  C   UNL     1       9.081  -2.258  24.387  0.00  0.00    +0.104 A 
ATOM      2  C   UNL     1       8.182  -2.486  25.499  0.00  0.00    +0.042 A 
ATOM      3  C   UNL     1       8.383  -3.821  25.847  0.00  0.00    +0.151 A 
ATOM      4  N   UNL     1       9.281  -4.294  24.928  0.00  0.00    -0.270 N 
ATOM      5  H   UNL     1       9.639  -5.243  24.872  0.00  0.00    +0.189 HD
ATOM      6  N   UNL     1       9.767  -3.375  24.096  0.00  0.00    -0.172 NA
ENDROOT
BRANCH   2   7
ATOM      7  C   UNL     1       7.260  -1.559  26.166  0.00  0.00    -0.010 A 
ATOM      8  C   UNL     1       5.889  -1.567  25.846  0.00  0.00    +0.058 A 
ATOM      9  C   UNL     1       5.060  -0.667  26.484  0.00  0.00    +0.167 A 
ATOM     10  C   UNL     1       5.538   0.248  27.389  0.00  0.00    +0.166 A 
ATOM     11  O   UNL     1       4.561   1.062  27.869  0.00  0.00    -0.453 OA
ATOM     12  C   UNL     1       3.433   0.618  27.085  0.00  0.00    +0.466 C 
ATOM     13  C   UNL     1       6.871   0.297  27.728  0.00  0.00    +0.050 A 
ATOM     14  O   UNL     1       3.717  -0.559  26.300  0.00  0.00    -0.453 OA
ATOM     15  C   UNL     1       7.731  -0.631  27.121  0.00  0.00    +0.012 A 
ENDBRANCH   2   7
BRANCH   1  18
ATOM     16  C   UNL     1       9.507   1.437  23.727  0.00  0.00    -0.005 A 
ATOM     17  C   UNL     1       9.405   0.190  24.369  0.00  0.00    +0.021 A 
ATOM     18  C   UNL     1       9.403  -1.022  23.652  0.00  0.00    +0.045 A 
ATOM     19  C   UNL     1       9.645  -0.974  22.276  0.00  0.00    +0.130 A 
ATOM     20  C   UNL     1       9.758   0.254  21.619  0.00  0.00    +0.091 A 
ATOM     21  C   UNL     1       9.645   1.444  22.337  0.00  0.00    +0.124 A 
BRANCH  16  23
ATOM     22  C   UNL     1       8.035   2.768  25.239  0.00  0.00    +0.009 C 
ATOM     23  C   UNL     1       9.398   2.687  24.564  0.00  0.00    +0.035 C 
ENDBRANCH  16  23
BRANCH  19  24
ATOM     24  O   UNL     1       9.757  -2.129  21.552  0.00  0.00    -0.506 OA
ATOM     25  H   UNL     1       9.563  -1.938  20.618  0.00  0.00    +0.292 HD
ENDBRANCH  19  24
BRANCH  21  26
ATOM     26  O   UNL     1       9.653   2.590  21.597  0.00  0.00    -0.506 OA
ATOM     27  H   UNL     1       9.122   3.264  22.055  0.00  0.00    +0.292 HD
ENDBRANCH  21  26
ENDBRANCH   1  18
BRANCH   3  28
ATOM     28  C   UNL     1       7.899  -4.742  26.840  0.00  0.00    +0.355 C 
ATOM     29  O   UNL     1       7.050  -4.456  27.672  0.00  0.00    -0.243 OA
BRANCH  28  30
ATOM     30  O   UNL     1       8.389  -5.994  26.721  0.00  0.00    -0.476 OA
ATOM     31  H   UNL     1       7.927  -6.654  27.268  0.00  0.00    +0.295 HD
ENDBRANCH  28  30
ENDBRANCH   3  28
TORSDOF 7
ENDMDL
MODEL 3
REMARK VINA RESULT:      -6.9      3.638      6.272
REMARK  Name = 
REMARK  8 active torsions:
REMARK  status: ('A' for Active; 'I' for Inactive)
REMARK    1  A    between atoms: C_1  and  C_2
REMARK    2  A    between atoms: C_2  and  C_3
REMARK    3  A    between atoms: C_4  and  O_5
REMARK    4  A    between atoms: C_7  and  O_8
REMARK    5  A    between atoms: C_9  and  C_11
REMARK    6  A    between atoms: C_14  and  C_15
REMARK    7  A    between atoms: C_15  and  O_16
REMARK    8  A    between atoms: C_18  and  C_19
REMARK                            x       y       z     vdW  Elec       q    Type
REMARK                         _______ _______ _______ _____ _____    ______ ____
ROOT
ATOM      1  C   UNL     1       8.882  -1.733  25.288  0.00  0.00    +0.104 A 
ATOM      2  C   UNL     1       8.005  -2.874  25.122  0.00  0.00    +0.042 A 
ATOM      3  C   UNL     1       7.876  -3.408  26.404  0.00  0.00    +0.151 A 
ATOM      4  N   UNL     1       8.694  -2.643  27.190  0.00  0.00    -0.270 N 
ATOM      5  H   UNL     1       8.858  -2.767  28.185  0.00  0.00    +0.189 HD
ATOM      6  N   UNL     1       9.247  -1.601  26.574  0.00  0.00    -0.172 NA
ENDROOT
BRANCH   2   7
ATOM      7  C   UNL     1       7.353  -3.387  23.912  0.00  0.00    -0.010 A 
ATOM      8  C   UNL     1       7.575  -4.712  23.493  0.00  0.00    +0.058 A 
ATOM      9  C   UNL     1       6.955  -5.149  22.339  0.00  0.00    +0.167 A 
ATOM     10  C   UNL     1       6.162  -4.323  21.582  0.00  0.00    +0.166 A 
ATOM     11  O   UNL     1       5.682  -4.942  20.470  0.00  0.00    -0.453 OA
ATOM     12  C   UNL     1       6.348  -6.220  20.566  0.00  0.00    +0.466 C 
ATOM     13  C   UNL     1       5.921  -3.020  21.951  0.00  0.00    +0.050 A 
ATOM     14  O   UNL     1       7.054  -6.398  21.811  0.00  0.00    -0.453 OA
ATOM     15  C   UNL     1       6.509  -2.560  23.138  0.00  0.00    +0.012 A 
ENDBRANCH   2   7
BRANCH   1  18
ATOM     16  C   UNL     1       9.178   1.660  23.656  0.00  0.00    -0.005 A 
ATOM     17  C   UNL     1       8.986   0.635  24.600  0.00  0.00    +0.021 A 
ATOM     18  C   UNL     1       9.313  -0.706  24.324  0.00  0.00    +0.045 A 
ATOM     19  C   UNL     1       9.971  -0.990  23.124  0.00  0.00    +0.130 A 
ATOM     20  C   UNL     1      10.180   0.015  22.175  0.00  0.00    +0.091 A 
ATOM     21  C   UNL     1       9.746   1.315  22.427  0.00  0.00    +0.124 A 
BRANCH  16  23
ATOM     22  C   UNL     1       8.068   3.079  25.382  0.00  0.00    +0.009 C 
ATOM     23  C   UNL     1       8.704   3.050  23.999  0.00  0.00    +0.035 C 
ENDBRANCH  16  23
BRANCH  19  24
ATOM     24  O   UNL     1      10.403  -2.260  22.854  0.00  0.00    -0.506 OA
ATOM     25  H   UNL     1       9.697  -2.743  22.393  0.00  0.00    +0.292 HD
ENDBRANCH  19  24
BRANCH  21  26
ATOM     26  O   UNL     1       9.889   2.202  21.400  0.00  0.00    -0.506 OA
ATOM     27  H   UNL     1      10.832   2.411  21.294  0.00  0.00    +0.292 HD
ENDBRANCH  21  26
ENDBRANCH   1  18
BRANCH   3  28
ATOM     28  C   UNL     1       7.167  -4.490  27.034  0.00  0.00    +0.355 C 
ATOM     29  O   UNL     1       5.987  -4.434  27.347  0.00  0.00    -0.243 OA
BRANCH  28  30
ATOM     30  O   UNL     1       7.890  -5.621  27.169  0.00  0.00    -0.476 OA
ATOM     31  H   UNL     1       8.532  -5.769  26.452  0.00  0.00    +0.295 HD
ENDBRANCH  28  30
ENDBRANCH   3  28
TORSDOF 7
ENDMDL
MODEL 4
REMARK VINA RESULT:      -6.8      4.186      7.353
REMARK  Name = 
REMARK  8 active torsions:
REMARK  status: ('A' for Active; 'I' for Inactive)
REMARK    1  A    between atoms: C_1  and  C_2
REMARK    2  A    between atoms: C_2  and  C_3
REMARK    3  A    between atoms: C_4  and  O_5
REMARK    4  A    between atoms: C_7  and  O_8
REMARK    5  A    between atoms: C_9  and  C_11
REMARK    6  A    between atoms: C_14  and  C_15
REMARK    7  A    between atoms: C_15  and  O_16
REMARK    8  A    between atoms: C_18  and  C_19
REMARK                            x       y       z     vdW  Elec       q    Type
REMARK                         _______ _______ _______ _____ _____    ______ ____
ROOT
ATOM      1  C   UNL     1       8.509  -1.845  22.992  0.00  0.00    +0.104 A 
ATOM      2  C   UNL     1       8.221  -0.444  23.218  0.00  0.00    +0.042 A 
ATOM      3  C   UNL     1       8.832   0.218  22.153  0.00  0.00    +0.151 A 
ATOM      4  N   UNL     1       9.470  -0.765  21.446  0.00  0.00    -0.270 N 
ATOM      5  H   UNL     1      10.035  -0.633  20.612  0.00  0.00    +0.189 HD
ATOM      6  N   UNL     1       9.238  -2.003  21.875  0.00  0.00    -0.172 NA
ENDROOT
BRANCH   2   7
ATOM      7  C   UNL     1       7.450   0.194  24.291  0.00  0.00    -0.010 A 
ATOM      8  C   UNL     1       6.145   0.662  24.046  0.00  0.00    +0.058 A 
ATOM      9  C   UNL     1       5.461   1.271  25.079  0.00  0.00    +0.167 A 
ATOM     10  C   UNL     1       6.026   1.459  26.316  0.00  0.00    +0.166 A 
ATOM     11  O   UNL     1       5.196   2.110  27.173  0.00  0.00    -0.453 OA
ATOM     12  C   UNL     1       4.083   2.399  26.299  0.00  0.00    +0.466 C 
ATOM     13  C   UNL     1       7.300   1.022  26.598  0.00  0.00    +0.050 A 
ATOM     14  O   UNL     1       4.194   1.761  25.011  0.00  0.00    -0.453 OA
ATOM     15  C   UNL     1       8.005   0.367  25.578  0.00  0.00    +0.012 A 
ENDBRANCH   2   7
BRANCH   1  18
ATOM     16  C   UNL     1       6.121  -4.298  24.587  0.00  0.00    -0.005 A 
ATOM     17  C   UNL     1       6.668  -3.295  23.767  0.00  0.00    +0.021 A 
ATOM     18  C   UNL     1       8.052  -3.047  23.711  0.00  0.00    +0.045 A 
ATOM     19  C   UNL     1       8.906  -3.920  24.393  0.00  0.00    +0.130 A 
ATOM     20  C   UNL     1       8.384  -4.929  25.206  0.00  0.00    +0.091 A 
ATOM     21  C   UNL     1       7.005  -5.083  25.332  0.00  0.00    +0.124 A 
BRANCH  16  23
ATOM     22  C   UNL     1       4.046  -4.857  23.320  0.00  0.00    +0.009 C 
ATOM     23  C   UNL     1       4.620  -4.425  24.662  0.00  0.00    +0.035 C 
ENDBRANCH  16  23
BRANCH  19  24
ATOM     24  O   UNL     1      10.263  -3.785  24.287  0.00  0.00    -0.506 OA
ATOM     25  H   UNL     1      10.537  -4.037  23.389  0.00  0.00    +0.292 HD
ENDBRANCH  19  24
BRANCH  21  26
ATOM     26  O   UNL     1       6.588  -6.017  26.234  0.00  0.00    -0.506 OA
ATOM     27  H   UNL     1       5.623  -5.953  26.331  0.00  0.00    +0.292 HD
ENDBRANCH  21  26
ENDBRANCH   1  18
BRANCH   3  28
ATOM     28  C   UNL     1       8.959   1.570  21.678  0.00  0.00    +0.355 C 
ATOM     29  O   UNL     1       8.005   2.304  21.463  0.00  0.00    -0.243 OA
BRANCH  28  30
ATOM     30  O   UNL     1      10.232   2.005  21.578  0.00  0.00    -0.476 OA
ATOM     31  H   UNL     1      10.332   2.817  21.050  0.00  0.00    +0.295 HD
ENDBRANCH  28  30
ENDBRANCH   3  28
TORSDOF 7
ENDMDL
MODEL 5
REMARK VINA RESULT:      -6.6      1.946      2.990
REMARK  Name = 
REMARK  8 active torsions:
REMARK  status: ('A' for Active; 'I' for Inactive)
REMARK    1  A    between atoms: C_1  and  C_2
REMARK    2  A    between atoms: C_2  and  C_3
REMARK    3  A    between atoms: C_4  and  O_5
REMARK    4  A    between atoms: C_7  and  O_8
REMARK    5  A    between atoms: C_9  and  C_11
REMARK    6  A    between atoms: C_14  and  C_15
REMARK    7  A    between atoms: C_15  and  O_16
REMARK    8  A    between atoms: C_18  and  C_19
REMARK                            x       y       z     vdW  Elec       q    Type
REMARK                         _______ _______ _______ _____ _____    ______ ____
ROOT
ATOM      1  C   UNL     1       6.571  -3.676  23.190  0.00  0.00    +0.104 A 
ATOM      2  C   UNL     1       5.766  -4.501  24.067  0.00  0.00    +0.042 A 
ATOM      3  C   UNL     1       4.994  -5.281  23.205  0.00  0.00    +0.151 A 
ATOM      4  N   UNL     1       5.316  -4.842  21.949  0.00  0.00    -0.270 N 
ATOM      5  H   UNL     1       4.922  -5.181  21.076  0.00  0.00    +0.189 HD
ATOM      6  N   UNL     1       6.298  -3.945  21.904  0.00  0.00    -0.172 NA
ENDROOT
BRANCH   2   7
ATOM      7  C   UNL     1       5.739  -4.565  25.532  0.00  0.00    -0.010 A 
ATOM      8  C   UNL     1       6.249  -5.692  26.204  0.00  0.00    +0.058 A 
ATOM      9  C   UNL     1       6.188  -5.718  27.583  0.00  0.00    +0.167 A 
ATOM     10  C   UNL     1       5.619  -4.699  28.306  0.00  0.00    +0.166 A 
ATOM     11  O   UNL     1       5.630  -4.943  29.644  0.00  0.00    -0.453 OA
ATOM     12  C   UNL     1       6.179  -6.278  29.668  0.00  0.00    +0.466 C 
ATOM     13  C   UNL     1       5.104  -3.581  27.691  0.00  0.00    +0.050 A 
ATOM     14  O   UNL     1       6.648  -6.721  28.377  0.00  0.00    -0.453 OA
ATOM     15  C   UNL     1       5.186  -3.511  26.293  0.00  0.00    +0.012 A 
ENDBRANCH   2   7
BRANCH   1  18
ATOM     16  C   UNL     1       8.429  -0.391  23.353  0.00  0.00    -0.005 A 
ATOM     17  C   UNL     1       7.407  -1.354  23.278  0.00  0.00    +0.021 A 
ATOM     18  C   UNL     1       7.653  -2.723  23.497  0.00  0.00    +0.045 A 
ATOM     19  C   UNL     1       8.927  -3.102  23.931  0.00  0.00    +0.130 A 
ATOM     20  C   UNL     1       9.955  -2.160  24.020  0.00  0.00    +0.091 A 
ATOM     21  C   UNL     1       9.712  -0.827  23.691  0.00  0.00    +0.124 A 
BRANCH  16  23
ATOM     22  C   UNL     1       8.516   1.358  21.576  0.00  0.00    +0.009 C 
ATOM     23  C   UNL     1       8.095   1.038  23.003  0.00  0.00    +0.035 C 
ENDBRANCH  16  23
BRANCH  19  24
ATOM     24  O   UNL     1       9.188  -4.405  24.257  0.00  0.00    -0.506 OA
ATOM     25  H   UNL     1       8.358  -4.910  24.234  0.00  0.00    +0.292 HD
ENDBRANCH  19  24
BRANCH  21  26
ATOM     26  O   UNL     1      10.799  -0.004  23.697  0.00  0.00    -0.506 OA
ATOM     27  H   UNL     1      10.498   0.916  23.607  0.00  0.00    +0.292 HD
ENDBRANCH  21  26
ENDBRANCH   1  18
BRANCH   3  28
ATOM     28  C   UNL     1       4.012  -6.325  23.315  0.00  0.00    +0.355 C 
ATOM     29  O   UNL     1       2.865  -6.222  22.904  0.00  0.00    -0.243 OA
BRANCH  28  30
ATOM     30  O   UNL     1       4.486  -7.479  23.828  0.00  0.00    -0.476 OA
ATOM     31  H   UNL     1       5.455  -7.501  23.926  0.00  0.00    +0.295 HD
ENDBRANCH  28  30
ENDBRANCH   3  28
TORSDOF 7
ENDMDL
MODEL 6
REMARK VINA RESULT:      -6.6      3.978      7.110
REMARK  Name = 
REMARK  8 active torsions:
REMARK  status: ('A' for Active; 'I' for Inactive)
REMARK    1  A    between atoms: C_1  and  C_2
REMARK    2  A    between atoms: C_2  and  C_3
REMARK    3  A    between atoms: C_4  and  O_5
REMARK    4  A    between atoms: C_7  and  O_8
REMARK    5  A    between atoms: C_9  and  C_11
REMARK    6  A    between atoms: C_14  and  C_15
REMARK    7  A    between atoms: C_15  and  O_16
REMARK    8  A    between atoms: C_18  and  C_19
REMARK                            x       y       z     vdW  Elec       q    Type
REMARK                         _______ _______ _______ _____ _____    ______ ____
ROOT
ATOM      1  C   UNL     1       8.574  -2.090  23.026  0.00  0.00    +0.104 A 
ATOM      2  C   UNL     1       8.359  -0.674  23.246  0.00  0.00    +0.042 A 
ATOM      3  C   UNL     1       9.079  -0.046  22.230  0.00  0.00    +0.151 A 
ATOM      4  N   UNL     1       9.700  -1.063  21.556  0.00  0.00    -0.270 N 
ATOM      5  H   UNL     1      10.326  -0.963  20.763  0.00  0.00    +0.189 HD
ATOM      6  N   UNL     1       9.365  -2.287  21.958  0.00  0.00    -0.172 NA
ENDROOT
BRANCH   2   7
ATOM      7  C   UNL     1       7.559   0.004  24.272  0.00  0.00    -0.010 A 
ATOM      8  C   UNL     1       7.941  -0.056  25.625  0.00  0.00    +0.058 A 
ATOM      9  C   UNL     1       7.151   0.582  26.560  0.00  0.00    +0.167 A 
ATOM     10  C   UNL     1       5.997   1.240  26.211  0.00  0.00    +0.166 A 
ATOM     11  O   UNL     1       5.353   1.764  27.287  0.00  0.00    -0.453 OA
ATOM     12  C   UNL     1       6.183   1.273  28.362  0.00  0.00    +0.466 C 
ATOM     13  C   UNL     1       5.583   1.320  24.901  0.00  0.00    +0.050 A 
ATOM     14  O   UNL     1       7.389   0.631  27.898  0.00  0.00    -0.453 OA
ATOM     15  C   UNL     1       6.386   0.711  23.926  0.00  0.00    +0.012 A 
ENDBRANCH   2   7
BRANCH   1  18
ATOM     16  C   UNL     1       5.937  -4.426  24.388  0.00  0.00    -0.005 A 
ATOM     17  C   UNL     1       6.605  -3.453  23.622  0.00  0.00    +0.021 A 
ATOM     18  C   UNL     1       7.997  -3.265  23.703  0.00  0.00    +0.045 A 
ATOM     19  C   UNL     1       8.741  -4.166  24.470  0.00  0.00    +0.130 A 
ATOM     20  C   UNL     1       8.099  -5.144  25.233  0.00  0.00    +0.091 A 
ATOM     21  C   UNL     1       6.708  -5.239  25.221  0.00  0.00    +0.124 A 
BRANCH  16  23
ATOM     22  C   UNL     1       3.983  -5.548  23.317  0.00  0.00    +0.009 C 
ATOM     23  C   UNL     1       4.432  -4.489  24.314  0.00  0.00    +0.035 C 
ENDBRANCH  16  23
BRANCH  19  24
ATOM     24  O   UNL     1      10.106  -4.089  24.499  0.00  0.00    -0.506 OA
ATOM     25  H   UNL     1      10.391  -3.836  25.393  0.00  0.00    +0.292 HD
ENDBRANCH  19  24
BRANCH  21  26
ATOM     26  O   UNL     1       6.164  -6.147  26.083  0.00  0.00    -0.506 OA
ATOM     27  H   UNL     1       5.197  -6.135  25.983  0.00  0.00    +0.292 HD
ENDBRANCH  21  26
ENDBRANCH   1  18
BRANCH   3  28
ATOM     28  C   UNL     1       9.320   1.297  21.777  0.00  0.00    +0.355 C 
ATOM     29  O   UNL     1      10.341   1.922  22.025  0.00  0.00    -0.243 OA
BRANCH  28  30
ATOM     30  O   UNL     1       8.361   1.789  20.966  0.00  0.00    -0.476 OA
ATOM     31  H   UNL     1       8.595   2.635  20.543  0.00  0.00    +0.295 HD
ENDBRANCH  28  30
ENDBRANCH   3  28
TORSDOF 7
ENDMDL
MODEL 7
REMARK VINA RESULT:      -6.6      3.690      5.701
REMARK  Name = 
REMARK  8 active torsions:
REMARK  status: ('A' for Active; 'I' for Inactive)
REMARK    1  A    between atoms: C_1  and  C_2
REMARK    2  A    between atoms: C_2  and  C_3
REMARK    3  A    between atoms: C_4  and  O_5
REMARK    4  A    between atoms: C_7  and  O_8
REMARK    5  A    between atoms: C_9  and  C_11
REMARK    6  A    between atoms: C_14  and  C_15
REMARK    7  A    between atoms: C_15  and  O_16
REMARK    8  A    between atoms: C_18  and  C_19
REMARK                            x       y       z     vdW  Elec       q    Type
REMARK                         _______ _______ _______ _____ _____    ______ ____
ROOT
ATOM      1  C   UNL     1       5.731  -0.478  24.826  0.00  0.00    +0.104 A 
ATOM      2  C   UNL     1       5.449  -1.890  24.983  0.00  0.00    +0.042 A 
ATOM      3  C   UNL     1       4.551  -1.953  26.048  0.00  0.00    +0.151 A 
ATOM      4  N   UNL     1       4.422  -0.660  26.479  0.00  0.00    -0.270 N 
ATOM      5  H   UNL     1       3.854  -0.341  27.259  0.00  0.00    +0.189 HD
ATOM      6  N   UNL     1       5.051   0.244  25.731  0.00  0.00    -0.172 NA
ENDROOT
BRANCH   2   7
ATOM      7  C   UNL     1       5.946  -3.037  24.216  0.00  0.00    -0.010 A 
ATOM      8  C   UNL     1       5.513  -3.248  22.893  0.00  0.00    +0.058 A 
ATOM      9  C   UNL     1       5.993  -4.350  22.212  0.00  0.00    +0.167 A 
ATOM     10  C   UNL     1       6.847  -5.252  22.797  0.00  0.00    +0.166 A 
ATOM     11  O   UNL     1       7.166  -6.279  21.966  0.00  0.00    -0.453 OA
ATOM     12  C   UNL     1       6.332  -5.970  20.827  0.00  0.00    +0.466 C 
ATOM     13  C   UNL     1       7.292  -5.088  24.089  0.00  0.00    +0.050 A 
ATOM     14  O   UNL     1       5.686  -4.685  20.931  0.00  0.00    -0.453 OA
ATOM     15  C   UNL     1       6.849  -3.958  24.792  0.00  0.00    +0.012 A 
ENDBRANCH   2   7
BRANCH   1  18
ATOM     16  C   UNL     1       8.652   0.337  22.574  0.00  0.00    -0.005 A 
ATOM     17  C   UNL     1       7.734  -0.350  23.388  0.00  0.00    +0.021 A 
ATOM     18  C   UNL     1       6.525   0.234  23.809  0.00  0.00    +0.045 A 
ATOM     19  C   UNL     1       6.179   1.483  23.283  0.00  0.00    +0.130 A 
ATOM     20  C   UNL     1       7.072   2.179  22.466  0.00  0.00    +0.091 A 
ATOM     21  C   UNL     1       8.313   1.625  22.154  0.00  0.00    +0.124 A 
BRANCH  16  23
ATOM     22  C   UNL     1      10.086  -1.665  22.976  0.00  0.00    +0.009 C 
ATOM     23  C   UNL     1       9.968  -0.328  22.257  0.00  0.00    +0.035 C 
ENDBRANCH  16  23
BRANCH  19  24
ATOM     24  O   UNL     1       4.968   2.047  23.578  0.00  0.00    -0.506 OA
ATOM     25  H   UNL     1       4.997   2.993  23.358  0.00  0.00    +0.292 HD
ENDBRANCH  19  24
BRANCH  21  26
ATOM     26  O   UNL     1       9.163   2.423  21.447  0.00  0.00    -0.506 OA
ATOM     27  H   UNL     1       8.667   2.853  20.729  0.00  0.00    +0.292 HD
ENDBRANCH  21  26
ENDBRANCH   1  18
BRANCH   3  28
ATOM     28  C   UNL     1       3.812  -2.967  26.753  0.00  0.00    +0.355 C 
ATOM     29  O   UNL     1       4.143  -3.410  27.843  0.00  0.00    -0.243 OA
BRANCH  28  30
ATOM     30  O   UNL     1       2.658  -3.328  26.154  0.00  0.00    -0.476 OA
ATOM     31  H   UNL     1       1.860  -3.093  26.660  0.00  0.00    +0.295 HD
ENDBRANCH  28  30
ENDBRANCH   3  28
TORSDOF 7
ENDMDL
MODEL 8
REMARK VINA RESULT:      -6.5      4.220      5.881
REMARK  Name = 
REMARK  8 active torsions:
REMARK  status: ('A' for Active; 'I' for Inactive)
REMARK    1  A    between atoms: C_1  and  C_2
REMARK    2  A    between atoms: C_2  and  C_3
REMARK    3  A    between atoms: C_4  and  O_5
REMARK    4  A    between atoms: C_7  and  O_8
REMARK    5  A    between atoms: C_9  and  C_11
REMARK    6  A    between atoms: C_14  and  C_15
REMARK    7  A    between atoms: C_15  and  O_16
REMARK    8  A    between atoms: C_18  and  C_19
REMARK                            x       y       z     vdW  Elec       q    Type
REMARK                         _______ _______ _______ _____ _____    ______ ____
ROOT
ATOM      1  C   UNL     1       9.230  -1.830  24.069  0.00  0.00    +0.104 A 
ATOM      2  C   UNL     1       8.361  -2.448  25.049  0.00  0.00    +0.042 A 
ATOM      3  C   UNL     1       8.953  -3.683  25.317  0.00  0.00    +0.151 A 
ATOM      4  N   UNL     1      10.030  -3.747  24.474  0.00  0.00    -0.270 N 
ATOM      5  H   UNL     1      10.680  -4.524  24.389  0.00  0.00    +0.189 HD
ATOM      6  N   UNL     1      10.262  -2.638  23.776  0.00  0.00    -0.172 NA
ENDROOT
BRANCH   2   7
ATOM      7  C   UNL     1       7.136  -1.935  25.672  0.00  0.00    -0.010 A 
ATOM      8  C   UNL     1       7.211  -1.073  26.782  0.00  0.00    +0.058 A 
ATOM      9  C   UNL     1       6.033  -0.627  27.349  0.00  0.00    +0.167 A 
ATOM     10  C   UNL     1       4.805  -1.025  26.883  0.00  0.00    +0.166 A 
ATOM     11  O   UNL     1       3.780  -0.500  27.606  0.00  0.00    -0.453 OA
ATOM     12  C   UNL     1       4.511   0.192  28.642  0.00  0.00    +0.466 C 
ATOM     13  C   UNL     1       4.684  -1.871  25.805  0.00  0.00    +0.050 A 
ATOM     14  O   UNL     1       5.935   0.218  28.410  0.00  0.00    -0.453 OA
ATOM     15  C   UNL     1       5.864  -2.311  25.187  0.00  0.00    +0.012 A 
ENDBRANCH   2   7
BRANCH   1  18
ATOM     16  C   UNL     1       8.780   1.914  23.848  0.00  0.00    -0.005 A 
ATOM     17  C   UNL     1       9.018   0.616  24.333  0.00  0.00    +0.021 A 
ATOM     18  C   UNL     1       9.197  -0.483  23.471  0.00  0.00    +0.045 A 
ATOM     19  C   UNL     1       9.269  -0.238  22.097  0.00  0.00    +0.130 A 
ATOM     20  C   UNL     1       9.043   1.045  21.594  0.00  0.00    +0.091 A 
ATOM     21  C   UNL     1       8.758   2.097  22.463  0.00  0.00    +0.124 A 
BRANCH  16  23
ATOM     22  C   UNL     1       7.563   2.521  25.939  0.00  0.00    +0.009 C 
ATOM     23  C   UNL     1       8.498   3.012  24.843  0.00  0.00    +0.035 C 
ENDBRANCH  16  23
BRANCH  19  24
ATOM     24  O   UNL     1       9.545  -1.256  21.226  0.00  0.00    -0.506 OA
ATOM     25  H   UNL     1      10.007  -1.966  21.703  0.00  0.00    +0.292 HD
ENDBRANCH  19  24
BRANCH  21  26
ATOM     26  O   UNL     1       8.439   3.287  21.876  0.00  0.00    -0.506 OA
ATOM     27  H   UNL     1       7.525   3.241  21.549  0.00  0.00    +0.292 HD
ENDBRANCH  21  26
ENDBRANCH   1  18
BRANCH   3  28
ATOM     28  C   UNL     1       8.709  -4.811  26.174  0.00  0.00    +0.355 C 
ATOM     29  O   UNL     1       7.933  -4.789  27.118  0.00  0.00    -0.243 OA
BRANCH  28  30
ATOM     30  O   UNL     1       9.339  -5.942  25.794  0.00  0.00    -0.476 OA
ATOM     31  H   UNL     1       9.325  -6.100  24.833  0.00  0.00    +0.295 HD
ENDBRANCH  28  30
ENDBRANCH   3  28
TORSDOF 7
ENDMDL
MODEL 9
REMARK VINA RESULT:      -6.5      3.568      6.609
REMARK  Name = 
REMARK  8 active torsions:
REMARK  status: ('A' for Active; 'I' for Inactive)
REMARK    1  A    between atoms: C_1  and  C_2
REMARK    2  A    between atoms: C_2  and  C_3
REMARK    3  A    between atoms: C_4  and  O_5
REMARK    4  A    between atoms: C_7  and  O_8
REMARK    5  A    between atoms: C_9  and  C_11
REMARK    6  A    between atoms: C_14  and  C_15
REMARK    7  A    between atoms: C_15  and  O_16
REMARK    8  A    between atoms: C_18  and  C_19
REMARK                            x       y       z     vdW  Elec       q    Type
REMARK                         _______ _______ _______ _____ _____    ______ ____
ROOT
ATOM      1  C   UNL     1       8.007  -3.385  24.272  0.00  0.00    +0.104 A 
ATOM      2  C   UNL     1       8.040  -2.017  24.748  0.00  0.00    +0.042 A 
ATOM      3  C   UNL     1       9.331  -1.575  24.458  0.00  0.00    +0.151 A 
ATOM      4  N   UNL     1       9.968  -2.665  23.929  0.00  0.00    -0.270 N 
ATOM      5  H   UNL     1      10.936  -2.705  23.623  0.00  0.00    +0.189 HD
ATOM      6  N   UNL     1       9.191  -3.729  23.739  0.00  0.00    -0.172 NA
ENDROOT
BRANCH   2   7
ATOM      7  C   UNL     1       6.984  -1.218  25.379  0.00  0.00    -0.010 A 
ATOM      8  C   UNL     1       6.365  -0.172  24.669  0.00  0.00    +0.058 A 
ATOM      9  C   UNL     1       5.388   0.566  25.306  0.00  0.00    +0.167 A 
ATOM     10  C   UNL     1       5.032   0.330  26.611  0.00  0.00    +0.166 A 
ATOM     11  O   UNL     1       4.079   1.193  27.054  0.00  0.00    -0.453 OA
ATOM     12  C   UNL     1       3.952   2.062  25.907  0.00  0.00    +0.466 C 
ATOM     13  C   UNL     1       5.615  -0.678  27.345  0.00  0.00    +0.050 A 
ATOM     14  O   UNL     1       4.686   1.593  24.757  0.00  0.00    -0.453 OA
ATOM     15  C   UNL     1       6.585  -1.467  26.710  0.00  0.00    +0.012 A 
ENDBRANCH   2   7
BRANCH   1  18
ATOM     16  C   UNL     1       5.480  -5.939  25.437  0.00  0.00    -0.005 A 
ATOM     17  C   UNL     1       6.400  -4.876  25.407  0.00  0.00    +0.021 A 
ATOM     18  C   UNL     1       6.895  -4.349  24.199  0.00  0.00    +0.045 A 
ATOM     19  C   UNL     1       6.345  -4.817  23.002  0.00  0.00    +0.130 A 
ATOM     20  C   UNL     1       5.423  -5.867  23.009  0.00  0.00    +0.091 A 
ATOM     21  C   UNL     1       5.032  -6.446  24.215  0.00  0.00    +0.124 A 
BRANCH  16  23
ATOM     22  C   UNL     1       5.899  -5.876  27.896  0.00  0.00    +0.009 C 
ATOM     23  C   UNL     1       5.083  -6.507  26.776  0.00  0.00    +0.035 C 
ENDBRANCH  16  23
BRANCH  19  24
ATOM     24  O   UNL     1       6.716  -4.264  21.807  0.00  0.00    -0.506 OA
ATOM     25  H   UNL     1       7.013  -4.971  21.210  0.00  0.00    +0.292 HD
ENDBRANCH  19  24
BRANCH  21  26
ATOM     26  O   UNL     1       4.219  -7.538  24.117  0.00  0.00    -0.506 OA
ATOM     27  H   UNL     1       4.706  -8.254  23.676  0.00  0.00    +0.292 HD
ENDBRANCH  21  26
ENDBRANCH   1  18
BRANCH   3  28
ATOM     28  C   UNL     1      10.090  -0.361  24.593  0.00  0.00    +0.355 C 
ATOM     29  O   UNL     1      10.681   0.174  23.667  0.00  0.00    -0.243 OA
BRANCH  28  30
ATOM     30  O   UNL     1      10.021   0.203  25.817  0.00  0.00    -0.476 OA
ATOM     31  H   UNL     1      10.516   1.038  25.897  0.00  0.00    +0.295 HD
ENDBRANCH  28  30
ENDBRANCH   3  28
TORSDOF 7
ENDMDL
