MODEL 1
REMARK VINA RESULT:      -6.0      0.000      0.000
REMARK  Name = 
REMARK  2 active torsions:
REMARK  status: ('A' for Active; 'I' for Inactive)
REMARK    1  A    between atoms: N_2  and  C_4
REMARK    2  A    between atoms: C_7  and  C_10
REMARK                            x       y       z     vdW  Elec       q    Type
REMARK                         _______ _______ _______ _____ _____    ______ ____
ROOT
ATOM      1  C   UNL     1       9.898  -0.635  23.111  0.00  0.00    +0.273 A 
ATOM      2  C   UNL     1       9.770   0.195  21.990  0.00  0.00    +0.085 A 
ATOM      3  C   UNL     1      10.033   1.566  22.111  0.00  0.00    +0.017 A 
ATOM      4  C   UNL     1      10.419   2.121  23.341  0.00  0.00    +0.003 A 
ATOM      5  C   UNL     1      10.572   1.262  24.445  0.00  0.00    +0.017 A 
ATOM      6  C   UNL     1      10.312  -0.108  24.338  0.00  0.00    +0.085 A 
ENDROOT
BRANCH   4   7
ATOM      7  C   UNL     1      10.620   3.569  23.492  0.00  0.00    +0.092 A 
ATOM      8  C   UNL     1       9.675   4.557  23.890  0.00  0.00    +0.049 A 
ATOM      9  C   UNL     1      10.368   5.742  23.935  0.00  0.00    +0.105 A 
ATOM     10  N   UNL     1      11.640   5.437  23.565  0.00  0.00    -0.284 N 
ATOM     11  H   UNL     1      12.438   6.059  23.488  0.00  0.00    +0.188 HD
ATOM     12  N   UNL     1      11.820   4.138  23.286  0.00  0.00    -0.174 NA
ENDBRANCH   4   7
BRANCH   1  14
ATOM     13  O   UNL     1      10.243  -2.861  23.666  0.00  0.00    -0.576 OA
ATOM     14  N   UNL     1       9.573  -2.062  22.999  0.00  0.00    +0.080 N 
ATOM     15  O   UNL     1       8.639  -2.383  22.248  0.00  0.00    +0.041 OA
ENDBRANCH   1  14
TORSDOF 2
ENDMDL
MODEL 2
REMARK VINA RESULT:      -5.6      2.459      3.483
REMARK  Name = 
REMARK  2 active torsions:
REMARK  status: ('A' for Active; 'I' for Inactive)
REMARK    1  A    between atoms: N_2  and  C_4
REMARK    2  A    between atoms: C_7  and  C_10
REMARK                            x       y       z     vdW  Elec       q    Type
REMARK                         _______ _______ _______ _____ _____    ______ ____
ROOT
ATOM      1  C   UNL     1       8.496  -3.349  23.793  0.00  0.00    +0.273 A 
ATOM      2  C   UNL     1       9.092  -2.589  24.806  0.00  0.00    +0.085 A 
ATOM      3  C   UNL     1       9.458  -1.261  24.551  0.00  0.00    +0.017 A 
ATOM      4  C   UNL     1       9.239  -0.681  23.290  0.00  0.00    +0.003 A 
ATOM      5  C   UNL     1       8.609  -1.455  22.298  0.00  0.00    +0.017 A 
ATOM      6  C   UNL     1       8.239  -2.782  22.540  0.00  0.00    +0.085 A 
ENDROOT
BRANCH   4   7
ATOM      7  C   UNL     1       9.693   0.684  22.993  0.00  0.00    +0.092 A 
ATOM      8  C   UNL     1      10.161   1.678  23.898  0.00  0.00    +0.049 A 
ATOM      9  C   UNL     1      10.518   2.754  23.121  0.00  0.00    +0.105 A 
ATOM     10  N   UNL     1      10.249   2.386  21.841  0.00  0.00    -0.284 N 
ATOM     11  H   UNL     1      10.390   2.922  20.991  0.00  0.00    +0.188 HD
ATOM     12  N   UNL     1       9.745   1.149  21.732  0.00  0.00    -0.174 NA
ENDBRANCH   4   7
BRANCH   1  14
ATOM     13  O   UNL     1       9.087  -5.541  24.273  0.00  0.00    -0.576 OA
ATOM     14  N   UNL     1       8.158  -4.756  24.043  0.00  0.00    +0.080 N 
ATOM     15  O   UNL     1       6.959  -5.073  24.019  0.00  0.00    +0.041 OA
ENDBRANCH   1  14
TORSDOF 2
ENDMDL
MODEL 3
REMARK VINA RESULT:      -5.5      3.666      6.535
REMARK  Name = 
REMARK  2 active torsions:
REMARK  status: ('A' for Active; 'I' for Inactive)
REMARK    1  A    between atoms: N_2  and  C_4
REMARK    2  A    between atoms: C_7  and  C_10
REMARK                            x       y       z     vdW  Elec       q    Type
REMARK                         _______ _______ _______ _____ _____    ______ ____
ROOT
ATOM      1  C   UNL     1       9.264   0.013  22.750  0.00  0.00    +0.273 A 
ATOM      2  C   UNL     1       8.297  -0.143  23.750  0.00  0.00    +0.085 A 
ATOM      3  C   UNL     1       8.268  -1.321  24.507  0.00  0.00    +0.017 A 
ATOM      4  C   UNL     1       9.194  -2.351  24.275  0.00  0.00    +0.003 A 
ATOM      5  C   UNL     1      10.177  -2.158  23.287  0.00  0.00    +0.017 A 
ATOM      6  C   UNL     1      10.216  -0.987  22.523  0.00  0.00    +0.085 A 
ENDROOT
BRANCH   4   7
ATOM      7  C   UNL     1       9.119  -3.620  25.012  0.00  0.00    +0.092 A 
ATOM      8  C   UNL     1       8.183  -4.010  26.012  0.00  0.00    +0.049 A 
ATOM      9  C   UNL     1       8.502  -5.305  26.340  0.00  0.00    +0.105 A 
ATOM     10  N   UNL     1       9.576  -5.624  25.570  0.00  0.00    -0.284 N 
ATOM     11  H   UNL     1      10.084  -6.501  25.534  0.00  0.00    +0.188 HD
ATOM     12  N   UNL     1       9.975  -4.628  24.766  0.00  0.00    -0.174 NA
ENDBRANCH   4   7
BRANCH   1  14
ATOM     13  O   UNL     1      10.293   1.915  21.907  0.00  0.00    -0.576 OA
ATOM     14  N   UNL     1       9.265   1.225  21.921  0.00  0.00    +0.080 N 
ATOM     15  O   UNL     1       8.237   1.481  21.275  0.00  0.00    +0.041 OA
ENDBRANCH   1  14
TORSDOF 2
ENDMDL
MODEL 4
REMARK VINA RESULT:      -5.2      4.195      5.840
REMARK  Name = 
REMARK  2 active torsions:
REMARK  status: ('A' for Active; 'I' for Inactive)
REMARK    1  A    between atoms: N_2  and  C_4
REMARK    2  A    between atoms: C_7  and  C_10
REMARK                            x       y       z     vdW  Elec       q    Type
REMARK                         _______ _______ _______ _____ _____    ______ ____
ROOT
ATOM      1  C   UNL     1       7.458  -4.770  25.748  0.00  0.00    +0.273 A 
ATOM      2  C   UNL     1       6.582  -3.933  25.046  0.00  0.00    +0.085 A 
ATOM      3  C   UNL     1       7.098  -2.982  24.157  0.00  0.00    +0.017 A 
ATOM      4  C   UNL     1       8.483  -2.850  23.964  0.00  0.00    +0.003 A 
ATOM      5  C   UNL     1       9.341  -3.724  24.657  0.00  0.00    +0.017 A 
ATOM      6  C   UNL     1       8.839  -4.678  25.547  0.00  0.00    +0.085 A 
ENDROOT
BRANCH   4   7
ATOM      7  C   UNL     1       9.033  -1.801  23.094  0.00  0.00    +0.092 A 
ATOM      8  C   UNL     1       9.707  -0.605  23.468  0.00  0.00    +0.049 A 
ATOM      9  C   UNL     1      10.074   0.002  22.292  0.00  0.00    +0.105 A 
ATOM     10  N   UNL     1       9.615  -0.809  21.302  0.00  0.00    -0.284 N 
ATOM     11  H   UNL     1       9.705  -0.689  20.299  0.00  0.00    +0.188 HD
ATOM     12  N   UNL     1       8.978  -1.899  21.754  0.00  0.00    -0.174 NA
ENDBRANCH   4   7
BRANCH   1  14
ATOM     13  O   UNL     1       7.483  -5.820  27.817  0.00  0.00    -0.576 OA
ATOM     14  N   UNL     1       6.921  -5.734  26.718  0.00  0.00    +0.080 N 
ATOM     15  O   UNL     1       5.929  -6.398  26.380  0.00  0.00    +0.041 OA
ENDBRANCH   1  14
TORSDOF 2
ENDMDL
MODEL 5
REMARK VINA RESULT:      -5.2      3.511      5.040
REMARK  Name = 
REMARK  2 active torsions:
REMARK  status: ('A' for Active; 'I' for Inactive)
REMARK    1  A    between atoms: N_2  and  C_4
REMARK    2  A    between atoms: C_7  and  C_10
REMARK                            x       y       z     vdW  Elec       q    Type
REMARK                         _______ _______ _______ _____ _____    ______ ____
ROOT
ATOM      1  C   UNL     1       6.815  -4.045  22.655  0.00  0.00    +0.273 A 
ATOM      2  C   UNL     1       7.890  -4.391  23.483  0.00  0.00    +0.085 A 
ATOM      3  C   UNL     1       8.707  -3.384  24.011  0.00  0.00    +0.017 A 
ATOM      4  C   UNL     1       8.467  -2.031  23.719  0.00  0.00    +0.003 A 
ATOM      5  C   UNL     1       7.362  -1.707  22.911  0.00  0.00    +0.017 A 
ATOM      6  C   UNL     1       6.538  -2.703  22.377  0.00  0.00    +0.085 A 
ENDROOT
BRANCH   4   7
ATOM      7  C   UNL     1       9.368  -0.977  24.206  0.00  0.00    +0.092 A 
ATOM      8  C   UNL     1      10.346  -0.243  23.478  0.00  0.00    +0.049 A 
ATOM      9  C   UNL     1      10.874   0.662  24.367  0.00  0.00    +0.105 A 
ATOM     10  N   UNL     1      10.231   0.437  25.543  0.00  0.00    -0.284 N 
ATOM     11  H   UNL     1      10.353   0.920  26.427  0.00  0.00    +0.188 HD
ATOM     12  N   UNL     1       9.324  -0.548  25.480  0.00  0.00    -0.174 NA
ENDBRANCH   4   7
BRANCH   1  14
ATOM     13  O   UNL     1       6.560  -5.990  21.414  0.00  0.00    -0.576 OA
ATOM     14  N   UNL     1       5.987  -5.102  22.059  0.00  0.00    +0.080 N 
ATOM     15  O   UNL     1       4.762  -5.048  22.246  0.00  0.00    +0.041 OA
ENDBRANCH   1  14
TORSDOF 2
ENDMDL
MODEL 6
REMARK VINA RESULT:      -5.1      5.102      8.324
REMARK  Name = 
REMARK  2 active torsions:
REMARK  status: ('A' for Active; 'I' for Inactive)
REMARK    1  A    between atoms: N_2  and  C_4
REMARK    2  A    between atoms: C_7  and  C_10
REMARK                            x       y       z     vdW  Elec       q    Type
REMARK                         _______ _______ _______ _____ _____    ______ ____
ROOT
ATOM      1  C   UNL     1       8.752  -2.647  23.385  0.00  0.00    +0.273 A 
ATOM      2  C   UNL     1       7.719  -2.521  22.449  0.00  0.00    +0.085 A 
ATOM      3  C   UNL     1       6.620  -3.387  22.511  0.00  0.00    +0.017 A 
ATOM      4  C   UNL     1       6.541  -4.383  23.497  0.00  0.00    +0.003 A 
ATOM      5  C   UNL     1       7.576  -4.469  24.446  0.00  0.00    +0.017 A 
ATOM      6  C   UNL     1       8.679  -3.611  24.395  0.00  0.00    +0.085 A 
ENDROOT
BRANCH   4   7
ATOM      7  C   UNL     1       5.430  -5.344  23.519  0.00  0.00    +0.092 A 
ATOM      8  C   UNL     1       5.056  -6.243  24.558  0.00  0.00    +0.049 A 
ATOM      9  C   UNL     1       3.920  -6.877  24.116  0.00  0.00    +0.105 A 
ATOM     10  N   UNL     1       3.675  -6.368  22.879  0.00  0.00    -0.284 N 
ATOM     11  H   UNL     1       2.914  -6.594  22.247  0.00  0.00    +0.188 HD
ATOM     12  N   UNL     1       4.570  -5.449  22.490  0.00  0.00    -0.174 NA
ENDBRANCH   4   7
BRANCH   1  14
ATOM     13  O   UNL     1      10.144  -0.991  24.226  0.00  0.00    -0.576 OA
ATOM     14  N   UNL     1       9.929  -1.773  23.291  0.00  0.00    +0.080 N 
ATOM     15  O   UNL     1      10.645  -1.879  22.283  0.00  0.00    +0.041 OA
ENDBRANCH   1  14
TORSDOF 2
ENDMDL
MODEL 7
REMARK VINA RESULT:      -5.1      5.249      7.193
REMARK  Name = 
REMARK  2 active torsions:
REMARK  status: ('A' for Active; 'I' for Inactive)
REMARK    1  A    between atoms: N_2  and  C_4
REMARK    2  A    between atoms: C_7  and  C_10
REMARK                            x       y       z     vdW  Elec       q    Type
REMARK                         _______ _______ _______ _____ _____    ______ ____
ROOT
ATOM      1  C   UNL     1       5.697  -6.015  24.818  0.00  0.00    +0.273 A 
ATOM      2  C   UNL     1       5.792  -5.774  23.442  0.00  0.00    +0.085 A 
ATOM      3  C   UNL     1       6.746  -4.868  22.963  0.00  0.00    +0.017 A 
ATOM      4  C   UNL     1       7.606  -4.192  23.844  0.00  0.00    +0.003 A 
ATOM      5  C   UNL     1       7.513  -4.475  25.219  0.00  0.00    +0.017 A 
ATOM      6  C   UNL     1       6.565  -5.378  25.710  0.00  0.00    +0.085 A 
ENDROOT
BRANCH   4   7
ATOM      7  C   UNL     1       8.554  -3.181  23.355  0.00  0.00    +0.092 A 
ATOM      8  C   UNL     1       8.363  -2.209  22.333  0.00  0.00    +0.049 A 
ATOM      9  C   UNL     1       9.520  -1.469  22.297  0.00  0.00    +0.105 A 
ATOM     10  N   UNL     1      10.329  -2.009  23.246  0.00  0.00    -0.284 N 
ATOM     11  H   UNL     1      11.264  -1.721  23.513  0.00  0.00    +0.188 HD
ATOM     12  N   UNL     1       9.778  -3.046  23.894  0.00  0.00    -0.174 NA
ENDBRANCH   4   7
BRANCH   1  14
ATOM     13  O   UNL     1       4.480  -6.967  26.550  0.00  0.00    -0.576 OA
ATOM     14  N   UNL     1       4.664  -6.927  25.326  0.00  0.00    +0.080 N 
ATOM     15  O   UNL     1       4.029  -7.597  24.497  0.00  0.00    +0.041 OA
ENDBRANCH   1  14
TORSDOF 2
ENDMDL
MODEL 8
REMARK VINA RESULT:      -5.0      4.179      7.078
REMARK  Name = 
REMARK  2 active torsions:
REMARK  status: ('A' for Active; 'I' for Inactive)
REMARK    1  A    between atoms: N_2  and  C_4
REMARK    2  A    between atoms: C_7  and  C_10
REMARK                            x       y       z     vdW  Elec       q    Type
REMARK                         _______ _______ _______ _____ _____    ______ ____
ROOT
ATOM      1  C   UNL     1       9.543  -0.487  24.407  0.00  0.00    +0.273 A 
ATOM      2  C   UNL     1       9.326  -1.678  23.705  0.00  0.00    +0.085 A 
ATOM      3  C   UNL     1       8.776  -2.783  24.369  0.00  0.00    +0.017 A 
ATOM      4  C   UNL     1       8.444  -2.714  25.731  0.00  0.00    +0.003 A 
ATOM      5  C   UNL     1       8.641  -1.496  26.408  0.00  0.00    +0.017 A 
ATOM      6  C   UNL     1       9.189  -0.386  25.757  0.00  0.00    +0.085 A 
ENDROOT
BRANCH   4   7
ATOM      7  C   UNL     1       7.941  -3.892  26.451  0.00  0.00    +0.092 A 
ATOM      8  C   UNL     1       6.687  -4.064  27.102  0.00  0.00    +0.049 A 
ATOM      9  C   UNL     1       6.679  -5.356  27.567  0.00  0.00    +0.105 A 
ATOM     10  N   UNL     1       7.879  -5.882  27.206  0.00  0.00    -0.284 N 
ATOM     11  H   UNL     1       8.230  -6.820  27.373  0.00  0.00    +0.188 HD
ATOM     12  N   UNL     1       8.663  -5.023  26.540  0.00  0.00    -0.174 NA
ENDBRANCH   4   7
BRANCH   1  14
ATOM     13  O   UNL     1      10.514   1.621  24.419  0.00  0.00    -0.576 OA
ATOM     14  N   UNL     1      10.165   0.655  23.727  0.00  0.00    +0.080 N 
ATOM     15  O   UNL     1      10.314   0.581  22.497  0.00  0.00    +0.041 OA
ENDBRANCH   1  14
TORSDOF 2
ENDMDL
MODEL 9
REMARK VINA RESULT:      -5.0      2.039      2.758
REMARK  Name = 
REMARK  2 active torsions:
REMARK  status: ('A' for Active; 'I' for Inactive)
REMARK    1  A    between atoms: N_2  and  C_4
REMARK    2  A    between atoms: C_7  and  C_10
REMARK                            x       y       z     vdW  Elec       q    Type
REMARK                         _______ _______ _______ _____ _____    ______ ____
ROOT
ATOM      1  C   UNL     1       8.777  -2.733  23.804  0.00  0.00    +0.273 A 
ATOM      2  C   UNL     1       7.705  -1.841  23.933  0.00  0.00    +0.085 A 
ATOM      3  C   UNL     1       7.929  -0.466  23.793  0.00  0.00    +0.017 A 
ATOM      4  C   UNL     1       9.215   0.034  23.531  0.00  0.00    +0.003 A 
ATOM      5  C   UNL     1      10.271  -0.884  23.373  0.00  0.00    +0.017 A 
ATOM      6  C   UNL     1      10.060  -2.260  23.510  0.00  0.00    +0.085 A 
ENDROOT
BRANCH   4   7
ATOM      7  C   UNL     1       9.470   1.479  23.462  0.00  0.00    +0.092 A 
ATOM      8  C   UNL     1       9.120   2.486  24.406  0.00  0.00    +0.049 A 
ATOM      9  C   UNL     1       9.632   3.660  23.911  0.00  0.00    +0.105 A 
ATOM     10  N   UNL     1      10.231   3.331  22.735  0.00  0.00    -0.284 N 
ATOM     11  H   UNL     1      10.723   3.939  22.090  0.00  0.00    +0.188 HD
ATOM     12  N   UNL     1      10.143   2.027  22.435  0.00  0.00    -0.174 NA
ENDBRANCH   4   7
BRANCH   1  14
ATOM     13  O   UNL     1       7.487  -4.650  23.596  0.00  0.00    -0.576 OA
ATOM     14  N   UNL     1       8.554  -4.171  24.000  0.00  0.00    +0.080 N 
ATOM     15  O   UNL     1       9.454  -4.823  24.550  0.00  0.00    +0.041 OA
ENDBRANCH   1  14
TORSDOF 2
ENDMDL
