MODEL 1
REMARK VINA RESULT:      -5.7      0.000      0.000
REMARK  Name = 
REMARK  15 active torsions:
REMARK  status: ('A' for Active; 'I' for Inactive)
REMARK    1  A    between atoms: CA_2  and  C_3
REMARK    2  A    between atoms: CA_2  and  N_7
REMARK    3  A    between atoms: CA_2  and  C_28
REMARK    4  A    between atoms: C_3  and  C_4
REMARK    5  A    between atoms: C_4  and  C_5
REMARK    6  A    between atoms: C_5  and  C_6
REMARK    7  A    between atoms: C_8  and  CA_10
REMARK    8  A    between atoms: CA_10  and  CB_12
REMARK    9  A    between atoms: CA_10  and  N_16
REMARK   10  A    between atoms: CB_12  and  CG_13
REMARK   11  A    between atoms: CG_13  and  CD1_14
REMARK   12  A    between atoms: CG_13  and  CD2_15
REMARK   13  A    between atoms: C_17  and  O_19
REMARK   14  A    between atoms: O_19  and  C_20
REMARK   15  A    between atoms: C_20  and  C_21
REMARK                            x       y       z     vdW  Elec       q    Type
REMARK                         _______ _______ _______ _____ _____    ______ ____
ROOT
ATOM      1  CA  LEU A   1       9.052  -3.058  24.299  0.00  0.00    +0.162 C 
ENDROOT
BRANCH   1   4
ATOM      2  N   LEU A   1       7.291  -4.483  23.350  0.00  0.00    -0.304 N 
ATOM      3  H   LEU A   1       7.028  -3.646  22.842  0.00  0.00    +0.149 HD
ATOM      4  C   LEU A   1       8.501  -4.468  24.013  0.00  0.00    +0.234 C 
ATOM      5  O   LEU A   1       9.049  -5.493  24.414  0.00  0.00    -0.274 OA
BRANCH   2   6
ATOM      6  CA  LEU A   1       6.699  -5.734  22.887  0.00  0.00    +0.136 C 
BRANCH   6   7
ATOM      7  C   LEU A   1       6.816  -5.775  21.368  0.00  0.00    +0.245 C 
ATOM      8  O   LEU A   1       5.938  -5.386  20.602  0.00  0.00    -0.299 OA
ENDBRANCH   6   7
BRANCH   6   9
ATOM      9  C   LEU A   1       5.232  -5.791  23.317  0.00  0.00    +0.030 C 
BRANCH   9  10
ATOM     10  C   LEU A   1       4.975  -5.171  24.691  0.00  0.00    +0.002 C 
BRANCH  10  11
ATOM     11  C   LEU A   1       5.351  -6.153  25.803  0.00  0.00    -0.003 C 
ATOM     12  C   LEU A   1       6.321  -5.530  26.793  0.00  0.00    +0.004 C 
ENDBRANCH  10  11
ENDBRANCH   9  10
ENDBRANCH   6   9
ENDBRANCH   2   6
ENDBRANCH   1   4
BRANCH   1  13
ATOM     13  N   LEU A   1       8.688  -2.237  23.151  0.00  0.00    -0.270 N 
ATOM     14  H   LEU A   1       7.725  -1.944  23.036  0.00  0.00    +0.153 HD
ATOM     15  C   UNK A   0       9.599  -1.668  22.318  0.00  0.00    +0.401 C 
ATOM     16  O   UNK A   0      10.806  -1.843  22.377  0.00  0.00    -0.226 OA
BRANCH  15  17
ATOM     17  O   UNK A   0       8.968  -0.824  21.468  0.00  0.00    -0.446 OA
BRANCH  17  18
ATOM     18  C   UNK A   0       9.452   0.526  21.485  0.00  0.00    +0.269 C 
BRANCH  18  19
ATOM     19  C   UNK A   0       8.900   1.329  22.636  0.00  0.00    -0.010 A 
ATOM     20  C   UNK A   0       7.515   1.435  22.829  0.00  0.00    +0.008 A 
ATOM     21  C   UNK A   0       6.999   2.222  23.862  0.00  0.00    +0.015 A 
ATOM     22  C   UNK A   0       7.868   2.899  24.716  0.00  0.00    +0.018 A 
ATOM     23 BR   UNK A   0       7.173   3.957  26.119  0.00  0.00    -0.050 Br
ATOM     24  C   UNK A   0       9.247   2.799  24.543  0.00  0.00    +0.015 A 
ATOM     25  C   UNK A   0       9.761   2.013  23.508  0.00  0.00    +0.008 A 
ENDBRANCH  18  19
ENDBRANCH  17  18
ENDBRANCH  15  17
ENDBRANCH   1  13
BRANCH   1  26
ATOM     26  CB  LEU A   1       8.468  -2.514  25.617  0.00  0.00    +0.035 C 
BRANCH  26  27
ATOM     27  CG  LEU A   1       7.625  -1.228  25.472  0.00  0.00    -0.015 C 
ATOM     28  CD2 LEU A   1       7.993  -0.235  26.581  0.00  0.00    +0.007 C 
ATOM     29  CD1 LEU A   1       6.121  -1.500  25.513  0.00  0.00    +0.007 C 
ENDBRANCH  26  27
ENDBRANCH   1  26
TORSDOF 12
ENDMDL
MODEL 2
REMARK VINA RESULT:      -5.7      2.726      6.877
REMARK  Name = 
REMARK  15 active torsions:
REMARK  status: ('A' for Active; 'I' for Inactive)
REMARK    1  A    between atoms: CA_2  and  C_3
REMARK    2  A    between atoms: CA_2  and  N_7
REMARK    3  A    between atoms: CA_2  and  C_28
REMARK    4  A    between atoms: C_3  and  C_4
REMARK    5  A    between atoms: C_4  and  C_5
REMARK    6  A    between atoms: C_5  and  C_6
REMARK    7  A    between atoms: C_8  and  CA_10
REMARK    8  A    between atoms: CA_10  and  CB_12
REMARK    9  A    between atoms: CA_10  and  N_16
REMARK   10  A    between atoms: CB_12  and  CG_13
REMARK   11  A    between atoms: CG_13  and  CD1_14
REMARK   12  A    between atoms: CG_13  and  CD2_15
REMARK   13  A    between atoms: C_17  and  O_19
REMARK   14  A    between atoms: O_19  and  C_20
REMARK   15  A    between atoms: C_20  and  C_21
REMARK                            x       y       z     vdW  Elec       q    Type
REMARK                         _______ _______ _______ _____ _____    ______ ____
ROOT
ATOM      1  CA  LEU A   1       8.861  -2.859  23.186  0.00  0.00    +0.162 C 
ENDROOT
BRANCH   1   4
ATOM      2  N   LEU A   1       9.371  -0.460  23.318  0.00  0.00    -0.304 N 
ATOM      3  H   LEU A   1       8.594  -0.433  23.968  0.00  0.00    +0.149 HD
ATOM      4  C   LEU A   1       9.851  -1.701  22.954  0.00  0.00    +0.234 C 
ATOM      5  O   LEU A   1      10.944  -1.856  22.413  0.00  0.00    -0.274 OA
BRANCH   2   6
ATOM      6  CA  LEU A   1      10.229   0.720  23.286  0.00  0.00    +0.136 C 
BRANCH   6   7
ATOM      7  C   LEU A   1       9.921   1.558  24.521  0.00  0.00    +0.245 C 
ATOM      8  O   LEU A   1       9.590   2.740  24.482  0.00  0.00    -0.299 OA
ENDBRANCH   6   7
BRANCH   6   9
ATOM      9  C   LEU A   1       9.950   1.516  22.011  0.00  0.00    +0.030 C 
BRANCH   9  10
ATOM     10  C   LEU A   1       8.592   1.202  21.381  0.00  0.00    +0.002 C 
BRANCH  10  11
ATOM     11  C   LEU A   1       7.579   2.301  21.708  0.00  0.00    -0.003 C 
ATOM     12  C   LEU A   1       6.548   1.827  22.718  0.00  0.00    +0.004 C 
ENDBRANCH  10  11
ENDBRANCH   9  10
ENDBRANCH   6   9
ENDBRANCH   2   6
ENDBRANCH   1   4
BRANCH   1  13
ATOM     13  N   LEU A   1       8.866  -3.117  24.621  0.00  0.00    -0.270 N 
ATOM     14  H   LEU A   1       8.499  -2.416  25.253  0.00  0.00    +0.153 HD
ATOM     15  C   UNK A   0       9.154  -4.331  25.163  0.00  0.00    +0.401 C 
ATOM     16  O   UNK A   0       9.521  -5.309  24.531  0.00  0.00    -0.226 OA
BRANCH  15  17
ATOM     17  O   UNK A   0       8.898  -4.305  26.492  0.00  0.00    -0.446 OA
BRANCH  17  18
ATOM     18  C   UNK A   0       8.007  -5.328  26.957  0.00  0.00    +0.269 C 
BRANCH  18  19
ATOM     19  C   UNK A   0       6.559  -5.008  26.685  0.00  0.00    -0.010 A 
ATOM     20  C   UNK A   0       5.965  -3.868  27.246  0.00  0.00    +0.008 A 
ATOM     21  C   UNK A   0       4.609  -3.598  27.040  0.00  0.00    +0.015 A 
ATOM     22  C   UNK A   0       3.843  -4.463  26.262  0.00  0.00    +0.018 A 
ATOM     23 BR   UNK A   0       2.011  -4.096  25.975  0.00  0.00    -0.050 Br
ATOM     24  C   UNK A   0       4.418  -5.597  25.692  0.00  0.00    +0.015 A 
ATOM     25  C   UNK A   0       5.773  -5.866  25.900  0.00  0.00    +0.008 A 
ENDBRANCH  18  19
ENDBRANCH  17  18
ENDBRANCH  15  17
ENDBRANCH   1  13
BRANCH   1  26
ATOM     26  CB  LEU A   1       7.462  -2.478  22.665  0.00  0.00    +0.035 C 
BRANCH  26  27
ATOM     27  CG  LEU A   1       6.303  -2.757  23.648  0.00  0.00    -0.015 C 
ATOM     28  CD2 LEU A   1       5.149  -3.447  22.913  0.00  0.00    +0.007 C 
ATOM     29  CD1 LEU A   1       5.787  -1.489  24.327  0.00  0.00    +0.007 C 
ENDBRANCH  26  27
ENDBRANCH   1  26
TORSDOF 12
ENDMDL
MODEL 3
REMARK VINA RESULT:      -5.7      1.812      3.154
REMARK  Name = 
REMARK  15 active torsions:
REMARK  status: ('A' for Active; 'I' for Inactive)
REMARK    1  A    between atoms: CA_2  and  C_3
REMARK    2  A    between atoms: CA_2  and  N_7
REMARK    3  A    between atoms: CA_2  and  C_28
REMARK    4  A    between atoms: C_3  and  C_4
REMARK    5  A    between atoms: C_4  and  C_5
REMARK    6  A    between atoms: C_5  and  C_6
REMARK    7  A    between atoms: C_8  and  CA_10
REMARK    8  A    between atoms: CA_10  and  CB_12
REMARK    9  A    between atoms: CA_10  and  N_16
REMARK   10  A    between atoms: CB_12  and  CG_13
REMARK   11  A    between atoms: CG_13  and  CD1_14
REMARK   12  A    between atoms: CG_13  and  CD2_15
REMARK   13  A    between atoms: C_17  and  O_19
REMARK   14  A    between atoms: O_19  and  C_20
REMARK   15  A    between atoms: C_20  and  C_21
REMARK                            x       y       z     vdW  Elec       q    Type
REMARK                         _______ _______ _______ _____ _____    ______ ____
ROOT
ATOM      1  CA  LEU A   1       6.945  -2.159  25.120  0.00  0.00    +0.162 C 
ENDROOT
BRANCH   1   4
ATOM      2  N   LEU A   1       6.120  -4.472  25.062  0.00  0.00    -0.304 N 
ATOM      3  H   LEU A   1       6.976  -4.683  25.562  0.00  0.00    +0.149 HD
ATOM      4  C   LEU A   1       5.775  -3.143  24.930  0.00  0.00    +0.234 C 
ATOM      5  O   LEU A   1       4.645  -2.781  24.605  0.00  0.00    -0.274 OA
BRANCH   2   6
ATOM      6  CA  LEU A   1       5.106  -5.521  25.043  0.00  0.00    +0.136 C 
BRANCH   6   7
ATOM      7  C   LEU A   1       5.271  -6.357  26.306  0.00  0.00    +0.245 C 
ATOM      8  O   LEU A   1       6.286  -6.359  26.999  0.00  0.00    -0.299 OA
ENDBRANCH   6   7
BRANCH   6   9
ATOM      9  C   LEU A   1       5.293  -6.385  23.795  0.00  0.00    +0.030 C 
BRANCH   9  10
ATOM     10  C   LEU A   1       4.820  -5.708  22.508  0.00  0.00    +0.002 C 
BRANCH  10  11
ATOM     11  C   LEU A   1       5.950  -5.657  21.478  0.00  0.00    -0.003 C 
ATOM     12  C   LEU A   1       7.277  -6.080  22.084  0.00  0.00    +0.004 C 
ENDBRANCH  10  11
ENDBRANCH   9  10
ENDBRANCH   6   9
ENDBRANCH   2   6
ENDBRANCH   1   4
BRANCH   1  13
ATOM     13  N   LEU A   1       7.547  -1.982  23.804  0.00  0.00    -0.270 N 
ATOM     14  H   LEU A   1       7.280  -1.183  23.241  0.00  0.00    +0.153 HD
ATOM     15  C   UNK A   0       8.599  -2.717  23.356  0.00  0.00    +0.401 C 
ATOM     16  O   UNK A   0       9.101  -3.655  23.954  0.00  0.00    -0.226 OA
BRANCH  15  17
ATOM     17  O   UNK A   0       9.046  -2.201  22.187  0.00  0.00    -0.446 OA
BRANCH  17  18
ATOM     18  C   UNK A   0      10.290  -1.494  22.274  0.00  0.00    +0.269 C 
BRANCH  18  19
ATOM     19  C   UNK A   0      10.113  -0.044  22.646  0.00  0.00    -0.010 A 
ATOM     20  C   UNK A   0      10.644   0.452  23.845  0.00  0.00    +0.008 A 
ATOM     21  C   UNK A   0      10.437   1.783  24.219  0.00  0.00    +0.015 A 
ATOM     22  C   UNK A   0       9.704   2.627  23.387  0.00  0.00    +0.018 A 
ATOM     23 BR   UNK A   0       9.428   4.430  23.887  0.00  0.00    -0.050 Br
ATOM     24  C   UNK A   0       9.175   2.154  22.189  0.00  0.00    +0.015 A 
ATOM     25  C   UNK A   0       9.383   0.822  21.818  0.00  0.00    +0.008 A 
ENDBRANCH  18  19
ENDBRANCH  17  18
ENDBRANCH  15  17
ENDBRANCH   1  13
BRANCH   1  26
ATOM     26  CB  LEU A   1       6.437  -0.832  25.715  0.00  0.00    +0.035 C 
BRANCH  26  27
ATOM     27  CG  LEU A   1       7.059   0.439  25.096  0.00  0.00    -0.015 C 
ATOM     28  CD2 LEU A   1       7.455   1.420  26.205  0.00  0.00    +0.007 C 
ATOM     29  CD1 LEU A   1       6.121   1.137  24.112  0.00  0.00    +0.007 C 
ENDBRANCH  26  27
ENDBRANCH   1  26
TORSDOF 12
ENDMDL
MODEL 4
REMARK VINA RESULT:      -5.4      2.147      3.355
REMARK  Name = 
REMARK  15 active torsions:
REMARK  status: ('A' for Active; 'I' for Inactive)
REMARK    1  A    between atoms: CA_2  and  C_3
REMARK    2  A    between atoms: CA_2  and  N_7
REMARK    3  A    between atoms: CA_2  and  C_28
REMARK    4  A    between atoms: C_3  and  C_4
REMARK    5  A    between atoms: C_4  and  C_5
REMARK    6  A    between atoms: C_5  and  C_6
REMARK    7  A    between atoms: C_8  and  CA_10
REMARK    8  A    between atoms: CA_10  and  CB_12
REMARK    9  A    between atoms: CA_10  and  N_16
REMARK   10  A    between atoms: CB_12  and  CG_13
REMARK   11  A    between atoms: CG_13  and  CD1_14
REMARK   12  A    between atoms: CG_13  and  CD2_15
REMARK   13  A    between atoms: C_17  and  O_19
REMARK   14  A    between atoms: O_19  and  C_20
REMARK   15  A    between atoms: C_20  and  C_21
REMARK                            x       y       z     vdW  Elec       q    Type
REMARK                         _______ _______ _______ _____ _____    ______ ____
ROOT
ATOM      1  CA  LEU A   1       8.301  -2.763  24.380  0.00  0.00    +0.162 C 
ENDROOT
BRANCH   1   4
ATOM      2  N   LEU A   1       5.954  -3.482  24.465  0.00  0.00    -0.304 N 
ATOM      3  H   LEU A   1       6.190  -3.798  25.399  0.00  0.00    +0.149 HD
ATOM      4  C   LEU A   1       6.868  -2.677  23.818  0.00  0.00    +0.234 C 
ATOM      5  O   LEU A   1       6.580  -2.013  22.825  0.00  0.00    -0.274 OA
BRANCH   2   6
ATOM      6  CA  LEU A   1       4.532  -3.419  24.143  0.00  0.00    +0.136 C 
BRANCH   6   7
ATOM      7  C   LEU A   1       3.762  -3.243  25.447  0.00  0.00    +0.245 C 
ATOM      8  O   LEU A   1       3.097  -2.248  25.721  0.00  0.00    -0.299 OA
ENDBRANCH   6   7
BRANCH   6   9
ATOM      9  C   LEU A   1       4.113  -4.710  23.439  0.00  0.00    +0.030 C 
BRANCH   9  10
ATOM     10  C   LEU A   1       5.230  -5.751  23.358  0.00  0.00    +0.002 C 
BRANCH  10  11
ATOM     11  C   LEU A   1       5.774  -5.849  21.932  0.00  0.00    -0.003 C 
ATOM     12  C   LEU A   1       7.292  -5.827  21.910  0.00  0.00    +0.004 C 
ENDBRANCH  10  11
ENDBRANCH   9  10
ENDBRANCH   6   9
ENDBRANCH   2   6
ENDBRANCH   1   4
BRANCH   1  13
ATOM     13  N   LEU A   1       8.951  -1.506  24.031  0.00  0.00    -0.270 N 
ATOM     14  H   LEU A   1       8.660  -0.653  24.493  0.00  0.00    +0.153 HD
ATOM     15  C   UNK A   0      10.069  -1.429  23.261  0.00  0.00    +0.401 C 
ATOM     16  O   UNK A   0      10.602  -2.376  22.706  0.00  0.00    -0.226 OA
BRANCH  15  17
ATOM     17  O   UNK A   0      10.536  -0.158  23.269  0.00  0.00    -0.446 OA
BRANCH  17  18
ATOM     18  C   UNK A   0      10.344   0.549  24.501  0.00  0.00    +0.269 C 
BRANCH  18  19
ATOM     19  C   UNK A   0       9.993   2.001  24.292  0.00  0.00    -0.010 A 
ATOM     20  C   UNK A   0      10.882   2.858  23.628  0.00  0.00    +0.008 A 
ATOM     21  C   UNK A   0      10.584   4.216  23.479  0.00  0.00    +0.015 A 
ATOM     22  C   UNK A   0       9.388   4.720  23.986  0.00  0.00    +0.018 A 
ATOM     23 BR   UNK A   0       8.978   6.554  23.780  0.00  0.00    -0.050 Br
ATOM     24  C   UNK A   0       8.490   3.881  24.643  0.00  0.00    +0.015 A 
ATOM     25  C   UNK A   0       8.791   2.524  24.791  0.00  0.00    +0.008 A 
ENDBRANCH  18  19
ENDBRANCH  17  18
ENDBRANCH  15  17
ENDBRANCH   1  13
BRANCH   1  26
ATOM     26  CB  LEU A   1       8.265  -3.002  25.902  0.00  0.00    +0.035 C 
BRANCH  26  27
ATOM     27  CG  LEU A   1       8.805  -4.376  26.357  0.00  0.00    -0.015 C 
ATOM     28  CD2 LEU A   1       9.431  -5.110  25.168  0.00  0.00    +0.007 C 
ATOM     29  CD1 LEU A   1       7.724  -5.255  26.986  0.00  0.00    +0.007 C 
ENDBRANCH  26  27
ENDBRANCH   1  26
TORSDOF 12
ENDMDL
MODEL 5
REMARK VINA RESULT:      -5.3      1.514      1.834
REMARK  Name = 
REMARK  15 active torsions:
REMARK  status: ('A' for Active; 'I' for Inactive)
REMARK    1  A    between atoms: CA_2  and  C_3
REMARK    2  A    between atoms: CA_2  and  N_7
REMARK    3  A    between atoms: CA_2  and  C_28
REMARK    4  A    between atoms: C_3  and  C_4
REMARK    5  A    between atoms: C_4  and  C_5
REMARK    6  A    between atoms: C_5  and  C_6
REMARK    7  A    between atoms: C_8  and  CA_10
REMARK    8  A    between atoms: CA_10  and  CB_12
REMARK    9  A    between atoms: CA_10  and  N_16
REMARK   10  A    between atoms: CB_12  and  CG_13
REMARK   11  A    between atoms: CG_13  and  CD1_14
REMARK   12  A    between atoms: CG_13  and  CD2_15
REMARK   13  A    between atoms: C_17  and  O_19
REMARK   14  A    between atoms: O_19  and  C_20
REMARK   15  A    between atoms: C_20  and  C_21
REMARK                            x       y       z     vdW  Elec       q    Type
REMARK                         _______ _______ _______ _____ _____    ______ ____
ROOT
ATOM      1  CA  LEU A   1       7.499  -2.950  25.070  0.00  0.00    +0.162 C 
ENDROOT
BRANCH   1   4
ATOM      2  N   LEU A   1       6.163  -4.512  23.726  0.00  0.00    -0.304 N 
ATOM      3  H   LEU A   1       6.410  -3.903  22.956  0.00  0.00    +0.149 HD
ATOM      4  C   LEU A   1       6.834  -4.331  24.918  0.00  0.00    +0.234 C 
ATOM      5  O   LEU A   1       6.830  -5.172  25.815  0.00  0.00    -0.274 OA
BRANCH   2   6
ATOM      6  CA  LEU A   1       5.593  -5.808  23.371  0.00  0.00    +0.136 C 
BRANCH   6   7
ATOM      7  C   LEU A   1       6.292  -6.298  22.108  0.00  0.00    +0.245 C 
ATOM      8  O   LEU A   1       7.340  -5.823  21.677  0.00  0.00    -0.299 OA
ENDBRANCH   6   7
BRANCH   6   9
ATOM      9  C   LEU A   1       4.091  -5.653  23.130  0.00  0.00    +0.030 C 
BRANCH   9  10
ATOM     10  C   LEU A   1       3.237  -6.608  23.965  0.00  0.00    +0.002 C 
BRANCH  10  11
ATOM     11  C   LEU A   1       4.063  -7.216  25.100  0.00  0.00    -0.003 C 
ATOM     12  C   LEU A   1       3.638  -6.673  26.453  0.00  0.00    +0.004 C 
ENDBRANCH  10  11
ENDBRANCH   9  10
ENDBRANCH   6   9
ENDBRANCH   2   6
ENDBRANCH   1   4
BRANCH   1  13
ATOM     13  N   LEU A   1       7.876  -2.529  23.726  0.00  0.00    -0.270 N 
ATOM     14  H   LEU A   1       7.193  -2.060  23.143  0.00  0.00    +0.153 HD
ATOM     15  C   UNK A   0       9.156  -2.548  23.266  0.00  0.00    +0.401 C 
ATOM     16  O   UNK A   0      10.112  -2.993  23.880  0.00  0.00    -0.226 OA
BRANCH  15  17
ATOM     17  O   UNK A   0       9.212  -1.931  22.062  0.00  0.00    -0.446 OA
BRANCH  17  18
ATOM     18  C   UNK A   0      10.241  -0.941  21.937  0.00  0.00    +0.269 C 
BRANCH  18  19
ATOM     19  C   UNK A   0       9.818   0.409  22.459  0.00  0.00    -0.010 A 
ATOM     20  C   UNK A   0       8.889   1.185  21.750  0.00  0.00    +0.008 A 
ATOM     21  C   UNK A   0       8.535   2.460  22.203  0.00  0.00    +0.015 A 
ATOM     22  C   UNK A   0       9.101   2.959  23.374  0.00  0.00    +0.018 A 
ATOM     23 BR   UNK A   0       8.617   4.679  23.992  0.00  0.00    -0.050 Br
ATOM     24  C   UNK A   0      10.020   2.199  24.094  0.00  0.00    +0.015 A 
ATOM     25  C   UNK A   0      10.373   0.926  23.639  0.00  0.00    +0.008 A 
ENDBRANCH  18  19
ENDBRANCH  17  18
ENDBRANCH  15  17
ENDBRANCH   1  13
BRANCH   1  26
ATOM     26  CB  LEU A   1       6.528  -1.960  25.742  0.00  0.00    +0.035 C 
BRANCH  26  27
ATOM     27  CG  LEU A   1       7.201  -0.745  26.418  0.00  0.00    -0.015 C 
ATOM     28  CD2 LEU A   1       7.052   0.495  25.529  0.00  0.00    +0.007 C 
ATOM     29  CD1 LEU A   1       8.682  -0.982  26.716  0.00  0.00    +0.007 C 
ENDBRANCH  26  27
ENDBRANCH   1  26
TORSDOF 12
ENDMDL
MODEL 6
REMARK VINA RESULT:      -5.2      3.072      7.378
REMARK  Name = 
REMARK  15 active torsions:
REMARK  status: ('A' for Active; 'I' for Inactive)
REMARK    1  A    between atoms: CA_2  and  C_3
REMARK    2  A    between atoms: CA_2  and  N_7
REMARK    3  A    between atoms: CA_2  and  C_28
REMARK    4  A    between atoms: C_3  and  C_4
REMARK    5  A    between atoms: C_4  and  C_5
REMARK    6  A    between atoms: C_5  and  C_6
REMARK    7  A    between atoms: C_8  and  CA_10
REMARK    8  A    between atoms: CA_10  and  CB_12
REMARK    9  A    between atoms: CA_10  and  N_16
REMARK   10  A    between atoms: CB_12  and  CG_13
REMARK   11  A    between atoms: CG_13  and  CD1_14
REMARK   12  A    between atoms: CG_13  and  CD2_15
REMARK   13  A    between atoms: C_17  and  O_19
REMARK   14  A    between atoms: O_19  and  C_20
REMARK   15  A    between atoms: C_20  and  C_21
REMARK                            x       y       z     vdW  Elec       q    Type
REMARK                         _______ _______ _______ _____ _____    ______ ____
ROOT
ATOM      1  CA  LEU A   1       9.351  -2.336  23.755  0.00  0.00    +0.162 C 
ENDROOT
BRANCH   1   4
ATOM      2  N   LEU A   1       9.143  -0.061  22.854  0.00  0.00    -0.304 N 
ATOM      3  H   LEU A   1       8.831  -0.532  22.012  0.00  0.00    +0.149 HD
ATOM      4  C   LEU A   1       9.248  -0.819  24.002  0.00  0.00    +0.234 C 
ATOM      5  O   LEU A   1       9.335  -0.317  25.121  0.00  0.00    -0.274 OA
BRANCH   2   6
ATOM      6  CA  LEU A   1       8.904   1.377  22.918  0.00  0.00    +0.136 C 
BRANCH   6   7
ATOM      7  C   LEU A   1       7.904   1.736  21.826  0.00  0.00    +0.245 C 
ATOM      8  O   LEU A   1       7.232   2.764  21.823  0.00  0.00    -0.299 OA
ENDBRANCH   6   7
BRANCH   6   9
ATOM      9  C   LEU A   1      10.224   2.121  22.707  0.00  0.00    +0.030 C 
BRANCH   9  10
ATOM     10  C   LEU A   1      10.374   3.360  23.591  0.00  0.00    +0.002 C 
BRANCH  10  11
ATOM     11  C   LEU A   1      11.685   4.086  23.283  0.00  0.00    -0.003 C 
ATOM     12  C   LEU A   1      11.599   5.563  23.627  0.00  0.00    +0.004 C 
ENDBRANCH  10  11
ENDBRANCH   9  10
ENDBRANCH   6   9
ENDBRANCH   2   6
ENDBRANCH   1   4
BRANCH   1  13
ATOM     13  N   LEU A   1       8.846  -2.980  24.962  0.00  0.00    -0.270 N 
ATOM     14  H   LEU A   1       8.048  -2.579  25.441  0.00  0.00    +0.153 HD
ATOM     15  C   UNK A   0       9.254  -4.207  25.384  0.00  0.00    +0.401 C 
ATOM     16  O   UNK A   0      10.139  -4.866  24.863  0.00  0.00    -0.226 OA
BRANCH  15  17
ATOM     17  O   UNK A   0       8.479  -4.610  26.418  0.00  0.00    -0.446 OA
BRANCH  17  18
ATOM     18  C   UNK A   0       7.347  -3.773  26.688  0.00  0.00    +0.269 C 
BRANCH  18  19
ATOM     19  C   UNK A   0       6.088  -4.258  26.014  0.00  0.00    -0.010 A 
ATOM     20  C   UNK A   0       5.968  -5.597  25.613  0.00  0.00    +0.008 A 
ATOM     21  C   UNK A   0       4.824  -6.038  24.941  0.00  0.00    +0.015 A 
ATOM     22  C   UNK A   0       3.790  -5.142  24.676  0.00  0.00    +0.018 A 
ATOM     23 BR   UNK A   0       2.240  -5.738  23.773  0.00  0.00    -0.050 Br
ATOM     24  C   UNK A   0       3.890  -3.811  25.072  0.00  0.00    +0.015 A 
ATOM     25  C   UNK A   0       5.035  -3.372  25.743  0.00  0.00    +0.008 A 
ENDBRANCH  18  19
ENDBRANCH  17  18
ENDBRANCH  15  17
ENDBRANCH   1  13
BRANCH   1  26
ATOM     26  CB  LEU A   1       8.547  -2.730  22.501  0.00  0.00    +0.035 C 
BRANCH  26  27
ATOM     27  CG  LEU A   1       7.207  -3.444  22.785  0.00  0.00    -0.015 C 
ATOM     28  CD2 LEU A   1       7.234  -4.857  22.192  0.00  0.00    +0.007 C 
ATOM     29  CD1 LEU A   1       6.003  -2.683  22.231  0.00  0.00    +0.007 C 
ENDBRANCH  26  27
ENDBRANCH   1  26
TORSDOF 12
ENDMDL
MODEL 7
REMARK VINA RESULT:      -5.2      3.136      7.192
REMARK  Name = 
REMARK  15 active torsions:
REMARK  status: ('A' for Active; 'I' for Inactive)
REMARK    1  A    between atoms: CA_2  and  C_3
REMARK    2  A    between atoms: CA_2  and  N_7
REMARK    3  A    between atoms: CA_2  and  C_28
REMARK    4  A    between atoms: C_3  and  C_4
REMARK    5  A    between atoms: C_4  and  C_5
REMARK    6  A    between atoms: C_5  and  C_6
REMARK    7  A    between atoms: C_8  and  CA_10
REMARK    8  A    between atoms: CA_10  and  CB_12
REMARK    9  A    between atoms: CA_10  and  N_16
REMARK   10  A    between atoms: CB_12  and  CG_13
REMARK   11  A    between atoms: CG_13  and  CD1_14
REMARK   12  A    between atoms: CG_13  and  CD2_15
REMARK   13  A    between atoms: C_17  and  O_19
REMARK   14  A    between atoms: O_19  and  C_20
REMARK   15  A    between atoms: C_20  and  C_21
REMARK                            x       y       z     vdW  Elec       q    Type
REMARK                         _______ _______ _______ _____ _____    ______ ____
ROOT
ATOM      1  CA  LEU A   1       9.046  -2.834  24.872  0.00  0.00    +0.162 C 
ENDROOT
BRANCH   1   4
ATOM      2  N   LEU A   1       8.925  -0.389  24.670  0.00  0.00    -0.304 N 
ATOM      3  H   LEU A   1       8.896  -0.574  23.674  0.00  0.00    +0.149 HD
ATOM      4  C   LEU A   1       8.764  -1.464  25.519  0.00  0.00    +0.234 C 
ATOM      5  O   LEU A   1       8.499  -1.332  26.712  0.00  0.00    -0.274 OA
BRANCH   2   6
ATOM      6  CA  LEU A   1       8.570   0.963  25.088  0.00  0.00    +0.136 C 
BRANCH   6   7
ATOM      7  C   LEU A   1       7.131   1.225  24.659  0.00  0.00    +0.245 C 
ATOM      8  O   LEU A   1       6.342   1.919  25.294  0.00  0.00    -0.299 OA
ENDBRANCH   6   7
BRANCH   6   9
ATOM      9  C   LEU A   1       9.520   1.964  24.430  0.00  0.00    +0.030 C 
BRANCH   9  10
ATOM     10  C   LEU A   1       9.100   2.365  23.015  0.00  0.00    +0.002 C 
BRANCH  10  11
ATOM     11  C   LEU A   1       9.973   1.663  21.974  0.00  0.00    -0.003 C 
ATOM     12  C   LEU A   1       9.260   0.472  21.358  0.00  0.00    +0.004 C 
ENDBRANCH  10  11
ENDBRANCH   9  10
ENDBRANCH   6   9
ENDBRANCH   2   6
ENDBRANCH   1   4
BRANCH   1  13
ATOM     13  N   LEU A   1       8.415  -3.828  25.733  0.00  0.00    -0.270 N 
ATOM     14  H   LEU A   1       7.580  -3.579  26.249  0.00  0.00    +0.153 HD
ATOM     15  C   UNK A   0       8.764  -5.142  25.739  0.00  0.00    +0.401 C 
ATOM     16  O   UNK A   0       9.688  -5.624  25.103  0.00  0.00    -0.226 OA
BRANCH  15  17
ATOM     17  O   UNK A   0       7.885  -5.839  26.497  0.00  0.00    -0.446 OA
BRANCH  17  18
ATOM     18  C   UNK A   0       6.779  -5.076  26.997  0.00  0.00    +0.269 C 
BRANCH  18  19
ATOM     19  C   UNK A   0       5.554  -5.182  26.123  0.00  0.00    -0.010 A 
ATOM     20  C   UNK A   0       5.282  -6.367  25.424  0.00  0.00    +0.008 A 
ATOM     21  C   UNK A   0       4.177  -6.451  24.572  0.00  0.00    +0.015 A 
ATOM     22  C   UNK A   0       3.333  -5.353  24.424  0.00  0.00    +0.018 A 
ATOM     23 BR   UNK A   0       1.833  -5.467  23.278  0.00  0.00    -0.050 Br
ATOM     24  C   UNK A   0       3.585  -4.170  25.115  0.00  0.00    +0.015 A 
ATOM     25  C   UNK A   0       4.691  -4.088  25.966  0.00  0.00    +0.008 A 
ENDBRANCH  18  19
ENDBRANCH  17  18
ENDBRANCH  15  17
ENDBRANCH   1  13
BRANCH   1  26
ATOM     26  CB  LEU A   1       8.494  -2.870  23.434  0.00  0.00    +0.035 C 
BRANCH  26  27
ATOM     27  CG  LEU A   1       7.051  -3.407  23.305  0.00  0.00    -0.015 C 
ATOM     28  CD2 LEU A   1       7.042  -4.669  22.435  0.00  0.00    +0.007 C 
ATOM     29  CD1 LEU A   1       6.088  -2.377  22.715  0.00  0.00    +0.007 C 
ENDBRANCH  26  27
ENDBRANCH   1  26
TORSDOF 12
ENDMDL
MODEL 8
REMARK VINA RESULT:      -5.2      3.363      7.846
REMARK  Name = 
REMARK  15 active torsions:
REMARK  status: ('A' for Active; 'I' for Inactive)
REMARK    1  A    between atoms: CA_2  and  C_3
REMARK    2  A    between atoms: CA_2  and  N_7
REMARK    3  A    between atoms: CA_2  and  C_28
REMARK    4  A    between atoms: C_3  and  C_4
REMARK    5  A    between atoms: C_4  and  C_5
REMARK    6  A    between atoms: C_5  and  C_6
REMARK    7  A    between atoms: C_8  and  CA_10
REMARK    8  A    between atoms: CA_10  and  CB_12
REMARK    9  A    between atoms: CA_10  and  N_16
REMARK   10  A    between atoms: CB_12  and  CG_13
REMARK   11  A    between atoms: CG_13  and  CD1_14
REMARK   12  A    between atoms: CG_13  and  CD2_15
REMARK   13  A    between atoms: C_17  and  O_19
REMARK   14  A    between atoms: O_19  and  C_20
REMARK   15  A    between atoms: C_20  and  C_21
REMARK                            x       y       z     vdW  Elec       q    Type
REMARK                         _______ _______ _______ _____ _____    ______ ____
ROOT
ATOM      1  CA  LEU A   1       8.608   0.233  23.287  0.00  0.00    +0.162 C 
ENDROOT
BRANCH   1   4
ATOM      2  N   LEU A   1       8.602   2.610  23.905  0.00  0.00    -0.304 N 
ATOM      3  H   LEU A   1       7.634   2.581  23.608  0.00  0.00    +0.149 HD
ATOM      4  C   LEU A   1       9.258   1.405  24.047  0.00  0.00    +0.234 C 
ATOM      5  O   LEU A   1      10.318   1.296  24.661  0.00  0.00    -0.274 OA
BRANCH   2   6
ATOM      6  CA  LEU A   1       9.012   3.787  24.665  0.00  0.00    +0.136 C 
BRANCH   6   7
ATOM      7  C   LEU A   1       7.898   4.122  25.648  0.00  0.00    +0.245 C 
ATOM      8  O   LEU A   1       8.023   4.910  26.583  0.00  0.00    -0.299 OA
ENDBRANCH   6   7
BRANCH   6   9
ATOM      9  C   LEU A   1       9.253   4.952  23.704  0.00  0.00    +0.030 C 
BRANCH   9  10
ATOM     10  C   LEU A   1      10.651   5.562  23.823  0.00  0.00    +0.002 C 
BRANCH  10  11
ATOM     11  C   LEU A   1      11.719   4.544  23.419  0.00  0.00    -0.003 C 
ATOM     12  C   LEU A   1      12.999   5.226  22.970  0.00  0.00    +0.004 C 
ENDBRANCH  10  11
ENDBRANCH   9  10
ENDBRANCH   6   9
ENDBRANCH   2   6
ENDBRANCH   1   4
BRANCH   1  13
ATOM     13  N   LEU A   1       9.182  -0.985  23.848  0.00  0.00    -0.270 N 
ATOM     14  H   LEU A   1       8.960  -1.244  24.801  0.00  0.00    +0.153 HD
ATOM     15  C   UNK A   0       9.846  -1.910  23.105  0.00  0.00    +0.401 C 
ATOM     16  O   UNK A   0      10.114  -1.794  21.920  0.00  0.00    -0.226 OA
BRANCH  15  17
ATOM     17  O   UNK A   0      10.095  -3.004  23.864  0.00  0.00    -0.446 OA
BRANCH  17  18
ATOM     18  C   UNK A   0       9.297  -3.111  25.050  0.00  0.00    +0.269 C 
BRANCH  18  19
ATOM     19  C   UNK A   0       8.123  -4.042  24.882  0.00  0.00    -0.010 A 
ATOM     20  C   UNK A   0       7.752  -4.493  23.607  0.00  0.00    +0.008 A 
ATOM     21  C   UNK A   0       6.632  -5.314  23.441  0.00  0.00    +0.015 A 
ATOM     22  C   UNK A   0       5.884  -5.695  24.554  0.00  0.00    +0.018 A 
ATOM     23 BR   UNK A   0       4.374  -6.811  24.333  0.00  0.00    -0.050 Br
ATOM     24  C   UNK A   0       6.243  -5.262  25.828  0.00  0.00    +0.015 A 
ATOM     25  C   UNK A   0       7.362  -4.441  25.991  0.00  0.00    +0.008 A 
ENDBRANCH  18  19
ENDBRANCH  17  18
ENDBRANCH  15  17
ENDBRANCH   1  13
BRANCH   1  26
ATOM     26  CB  LEU A   1       7.075   0.282  23.440  0.00  0.00    +0.035 C 
BRANCH  26  27
ATOM     27  CG  LEU A   1       6.536  -0.281  24.774  0.00  0.00    -0.015 C 
ATOM     28  CD2 LEU A   1       5.665  -1.513  24.506  0.00  0.00    +0.007 C 
ATOM     29  CD1 LEU A   1       5.731   0.749  25.566  0.00  0.00    +0.007 C 
ENDBRANCH  26  27
ENDBRANCH   1  26
TORSDOF 12
ENDMDL
MODEL 9
REMARK VINA RESULT:      -5.0      2.025      2.914
REMARK  Name = 
REMARK  15 active torsions:
REMARK  status: ('A' for Active; 'I' for Inactive)
REMARK    1  A    between atoms: CA_2  and  C_3
REMARK    2  A    between atoms: CA_2  and  N_7
REMARK    3  A    between atoms: CA_2  and  C_28
REMARK    4  A    between atoms: C_3  and  C_4
REMARK    5  A    between atoms: C_4  and  C_5
REMARK    6  A    between atoms: C_5  and  C_6
REMARK    7  A    between atoms: C_8  and  CA_10
REMARK    8  A    between atoms: CA_10  and  CB_12
REMARK    9  A    between atoms: CA_10  and  N_16
REMARK   10  A    between atoms: CB_12  and  CG_13
REMARK   11  A    between atoms: CG_13  and  CD1_14
REMARK   12  A    between atoms: CG_13  and  CD2_15
REMARK   13  A    between atoms: C_17  and  O_19
REMARK   14  A    between atoms: O_19  and  C_20
REMARK   15  A    between atoms: C_20  and  C_21
REMARK                            x       y       z     vdW  Elec       q    Type
REMARK                         _______ _______ _______ _____ _____    ______ ____
ROOT
ATOM      1  CA  LEU A   1       7.647  -1.119  25.390  0.00  0.00    +0.162 C 
ENDROOT
BRANCH   1   4
ATOM      2  N   LEU A   1       7.734  -3.306  24.276  0.00  0.00    -0.304 N 
ATOM      3  H   LEU A   1       8.490  -2.892  23.743  0.00  0.00    +0.149 HD
ATOM      4  C   LEU A   1       7.288  -2.618  25.385  0.00  0.00    +0.234 C 
ATOM      5  O   LEU A   1       6.592  -3.140  26.253  0.00  0.00    -0.274 OA
BRANCH   2   6
ATOM      6  CA  LEU A   1       7.593  -4.756  24.180  0.00  0.00    +0.136 C 
BRANCH   6   7
ATOM      7  C   LEU A   1       8.834  -5.390  24.794  0.00  0.00    +0.245 C 
ATOM      8  O   LEU A   1       9.948  -4.871  24.781  0.00  0.00    -0.299 OA
ENDBRANCH   6   7
BRANCH   6   9
ATOM      9  C   LEU A   1       7.454  -5.156  22.710  0.00  0.00    +0.030 C 
BRANCH   9  10
ATOM     10  C   LEU A   1       6.356  -6.192  22.461  0.00  0.00    +0.002 C 
BRANCH  10  11
ATOM     11  C   LEU A   1       5.028  -5.723  23.059  0.00  0.00    -0.003 C 
ATOM     12  C   LEU A   1       4.485  -6.723  24.065  0.00  0.00    +0.004 C 
ENDBRANCH  10  11
ENDBRANCH   9  10
ENDBRANCH   6   9
ENDBRANCH   2   6
ENDBRANCH   1   4
BRANCH   1  13
ATOM     13  N   LEU A   1       8.273  -0.846  24.102  0.00  0.00    -0.270 N 
ATOM     14  H   LEU A   1       7.715  -0.899  23.258  0.00  0.00    +0.153 HD
ATOM     15  C   UNK A   0       9.523  -0.327  23.971  0.00  0.00    +0.401 C 
ATOM     16  O   UNK A   0      10.292  -0.115  24.895  0.00  0.00    -0.226 OA
BRANCH  15  17
ATOM     17  O   UNK A   0       9.750  -0.017  22.673  0.00  0.00    -0.446 OA
BRANCH  17  18
ATOM     18  C   UNK A   0      10.226   1.316  22.444  0.00  0.00    +0.269 C 
BRANCH  18  19
ATOM     19  C   UNK A   0       9.133   2.350  22.538  0.00  0.00    -0.010 A 
ATOM     20  C   UNK A   0       9.267   3.449  23.399  0.00  0.00    +0.008 A 
ATOM     21  C   UNK A   0       8.233   4.381  23.528  0.00  0.00    +0.015 A 
ATOM     22  C   UNK A   0       7.064   4.223  22.787  0.00  0.00    +0.018 A 
ATOM     23 BR   UNK A   0       5.667   5.487  22.955  0.00  0.00    -0.050 Br
ATOM     24  C   UNK A   0       6.916   3.141  21.923  0.00  0.00    +0.015 A 
ATOM     25  C   UNK A   0       7.951   2.210  21.795  0.00  0.00    +0.008 A 
ENDBRANCH  18  19
ENDBRANCH  17  18
ENDBRANCH  15  17
ENDBRANCH   1  13
BRANCH   1  26
ATOM     26  CB  LEU A   1       6.383  -0.268  25.619  0.00  0.00    +0.035 C 
BRANCH  26  27
ATOM     27  CG  LEU A   1       6.493   1.199  25.147  0.00  0.00    -0.015 C 
ATOM     28  CD2 LEU A   1       7.249   2.027  26.192  0.00  0.00    +0.007 C 
ATOM     29  CD1 LEU A   1       5.130   1.837  24.882  0.00  0.00    +0.007 C 
ENDBRANCH  26  27
ENDBRANCH   1  26
TORSDOF 12
ENDMDL
