MODEL 1
REMARK VINA RESULT:      -6.3      0.000      0.000
REMARK  Name = 
REMARK  11 active torsions:
REMARK  status: ('A' for Active; 'I' for Inactive)
REMARK    1  A    between atoms: O_1  and  C_2
REMARK    2  A    between atoms: C_2  and  C_3
REMARK    3  A    between atoms: C_6  and  O_8
REMARK    4  A    between atoms: O_8  and  C_9
REMARK    5  A    between atoms: C_11  and  O_13
REMARK    6  A    between atoms: C_15  and  O_17
REMARK    7  A    between atoms: C_19  and  C_21
REMARK    8  A    between atoms: C_21  and  O_22
REMARK    9  A    between atoms: C_23  and  O_25
REMARK   10  A    between atoms: C_26  and  O_28
REMARK   11  A    between atoms: C_29  and  O_31
REMARK                            x       y       z     vdW  Elec       q    Type
REMARK                         _______ _______ _______ _____ _____    ______ ____
ROOT
ATOM      1  C   UNL     1       6.830  -4.129  26.254  0.00  0.00    +0.178 C 
ATOM      2  C   UNL     1       7.858  -5.269  26.139  0.00  0.00    +0.177 C 
ATOM      3  C   UNL     1       9.184  -4.735  25.560  0.00  0.00    +0.179 C 
ATOM      4  C   UNL     1       8.976  -3.867  24.322  0.00  0.00    +0.201 C 
ATOM      5  C   UNL     1       7.916  -2.808  24.654  0.00  0.00    +0.282 C 
ATOM      6  O   UNL     1       6.694  -3.448  24.996  0.00  0.00    -0.341 OA
ENDROOT
BRANCH   2   7
ATOM      7  O   UNL     1       8.067  -5.833  27.440  0.00  0.00    -0.386 OA
ATOM      8  H   UNL     1       7.212  -6.189  27.748  0.00  0.00    +0.210 HD
ENDBRANCH   2   7
BRANCH   3   9
ATOM      9  O   UNL     1      10.068  -5.827  25.263  0.00  0.00    -0.386 OA
ATOM     10  H   UNL     1       9.549  -6.436  24.698  0.00  0.00    +0.210 HD
ENDBRANCH   3   9
BRANCH   4  11
ATOM     11  O   UNL     1      10.247  -3.277  23.987  0.00  0.00    -0.384 OA
ATOM     12  H   UNL     1      10.417  -2.592  24.667  0.00  0.00    +0.210 HD
ENDBRANCH   4  11
BRANCH   1  13
ATOM     13  C   UNL     1       5.467  -4.636  26.719  0.00  0.00    +0.190 C 
BRANCH  13  14
ATOM     14  O   UNL     1       5.350  -6.038  26.426  0.00  0.00    -0.392 OA
ATOM     15  H   UNL     1       5.875  -6.508  27.088  0.00  0.00    +0.210 HD
ENDBRANCH  13  14
ENDBRANCH   1  13
BRANCH   5  16
ATOM     16  O   UNL     1       7.776  -1.915  23.543  0.00  0.00    -0.340 OA
BRANCH  16  17
ATOM     17  C   UNL     1       8.112  -0.555  23.870  0.00  0.00    +0.181 C 
ATOM     18  C   UNL     1       9.463  -0.030  23.323  0.00  0.00    +0.178 C 
ATOM     19  O   UNL     1       9.661   1.341  23.703  0.00  0.00    -0.343 OA
ATOM     20  C   UNL     1       8.649   2.229  23.258  0.00  0.00    +0.250 C 
ATOM     21  C   UNL     1       7.265   1.806  23.722  0.00  0.00    +0.095 C 
ATOM     22  C   UNL     1       6.984   0.357  23.353  0.00  0.00    +0.151 C 
BRANCH  20  23
ATOM     23  O   UNL     1       8.957   3.514  23.766  0.00  0.00    -0.367 OA
ATOM     24  H   UNL     1       8.820   3.454  24.726  0.00  0.00    +0.212 HD
ENDBRANCH  20  23
BRANCH  22  25
ATOM     25  O   UNL     1       5.729  -0.025  23.918  0.00  0.00    -0.389 OA
ATOM     26  H   UNL     1       5.940  -0.662  24.627  0.00  0.00    +0.210 HD
ENDBRANCH  22  25
BRANCH  18  27
ATOM     27  C   UNL     1       9.703  -0.223  21.809  0.00  0.00    +0.190 C 
BRANCH  27  28
ATOM     28  O   UNL     1      10.002  -1.572  21.465  0.00  0.00    -0.392 OA
ATOM     29  H   UNL     1      10.955  -1.706  21.618  0.00  0.00    +0.210 HD
ENDBRANCH  27  28
ENDBRANCH  18  27
ENDBRANCH  16  17
ENDBRANCH   5  16
TORSDOF 11
ENDMDL
MODEL 2
REMARK VINA RESULT:      -6.2      2.017      2.988
REMARK  Name = 
REMARK  11 active torsions:
REMARK  status: ('A' for Active; 'I' for Inactive)
REMARK    1  A    between atoms: O_1  and  C_2
REMARK    2  A    between atoms: C_2  and  C_3
REMARK    3  A    between atoms: C_6  and  O_8
REMARK    4  A    between atoms: O_8  and  C_9
REMARK    5  A    between atoms: C_11  and  O_13
REMARK    6  A    between atoms: C_15  and  O_17
REMARK    7  A    between atoms: C_19  and  C_21
REMARK    8  A    between atoms: C_21  and  O_22
REMARK    9  A    between atoms: C_23  and  O_25
REMARK   10  A    between atoms: C_26  and  O_28
REMARK   11  A    between atoms: C_29  and  O_31
REMARK                            x       y       z     vdW  Elec       q    Type
REMARK                         _______ _______ _______ _____ _____    ______ ____
ROOT
ATOM      1  C   UNL     1       6.403  -4.540  23.471  0.00  0.00    +0.178 C 
ATOM      2  C   UNL     1       6.606  -5.574  24.593  0.00  0.00    +0.177 C 
ATOM      3  C   UNL     1       7.284  -4.914  25.811  0.00  0.00    +0.179 C 
ATOM      4  C   UNL     1       8.496  -4.071  25.422  0.00  0.00    +0.201 C 
ATOM      5  C   UNL     1       8.075  -3.121  24.294  0.00  0.00    +0.282 C 
ATOM      6  O   UNL     1       7.642  -3.877  23.170  0.00  0.00    -0.341 OA
ENDROOT
BRANCH   2   7
ATOM      7  O   UNL     1       5.329  -6.114  24.957  0.00  0.00    -0.386 OA
ATOM      8  H   UNL     1       5.383  -6.395  25.890  0.00  0.00    +0.210 HD
ENDBRANCH   2   7
BRANCH   3   9
ATOM      9  O   UNL     1       7.657  -5.914  26.771  0.00  0.00    -0.386 OA
ATOM     10  H   UNL     1       7.306  -5.595  27.628  0.00  0.00    +0.210 HD
ENDBRANCH   3   9
BRANCH   4  11
ATOM     11  O   UNL     1       8.925  -3.360  26.599  0.00  0.00    -0.384 OA
ATOM     12  H   UNL     1       9.646  -2.763  26.308  0.00  0.00    +0.210 HD
ENDBRANCH   4  11
BRANCH   1  13
ATOM     13  C   UNL     1       5.837  -5.178  22.204  0.00  0.00    +0.190 C 
BRANCH  13  14
ATOM     14  O   UNL     1       6.120  -6.587  22.207  0.00  0.00    -0.392 OA
ATOM     15  H   UNL     1       5.324  -7.033  21.887  0.00  0.00    +0.210 HD
ENDBRANCH  13  14
ENDBRANCH   1  13
BRANCH   5  16
ATOM     16  O   UNL     1       9.165  -2.247  23.980  0.00  0.00    -0.340 OA
BRANCH  16  17
ATOM     17  C   UNL     1       8.755  -1.076  23.252  0.00  0.00    +0.181 C 
ATOM     18  C   UNL     1       8.297   0.136  24.101  0.00  0.00    +0.178 C 
ATOM     19  O   UNL     1       7.938   1.238  23.253  0.00  0.00    -0.343 OA
ATOM     20  C   UNL     1       8.976   1.687  22.396  0.00  0.00    +0.250 C 
ATOM     21  C   UNL     1       9.522   0.573  21.518  0.00  0.00    +0.095 C 
ATOM     22  C   UNL     1       9.924  -0.634  22.353  0.00  0.00    +0.151 C 
BRANCH  20  23
ATOM     23  O   UNL     1       8.445   2.722  21.590  0.00  0.00    -0.367 OA
ATOM     24  H   UNL     1       7.535   2.854  21.904  0.00  0.00    +0.212 HD
ENDBRANCH  20  23
BRANCH  22  25
ATOM     25  O   UNL     1      10.311  -1.691  21.474  0.00  0.00    -0.389 OA
ATOM     26  H   UNL     1      11.285  -1.644  21.414  0.00  0.00    +0.210 HD
ENDBRANCH  22  25
BRANCH  18  27
ATOM     27  C   UNL     1       9.268   0.590  25.214  0.00  0.00    +0.190 C 
BRANCH  27  28
ATOM     28  O   UNL     1       9.378  -0.357  26.271  0.00  0.00    -0.392 OA
ATOM     29  H   UNL     1       9.285  -1.243  25.877  0.00  0.00    +0.210 HD
ENDBRANCH  27  28
ENDBRANCH  18  27
ENDBRANCH  16  17
ENDBRANCH   5  16
TORSDOF 11
ENDMDL
MODEL 3
REMARK VINA RESULT:      -5.8      2.158      6.387
REMARK  Name = 
REMARK  11 active torsions:
REMARK  status: ('A' for Active; 'I' for Inactive)
REMARK    1  A    between atoms: O_1  and  C_2
REMARK    2  A    between atoms: C_2  and  C_3
REMARK    3  A    between atoms: C_6  and  O_8
REMARK    4  A    between atoms: O_8  and  C_9
REMARK    5  A    between atoms: C_11  and  O_13
REMARK    6  A    between atoms: C_15  and  O_17
REMARK    7  A    between atoms: C_19  and  C_21
REMARK    8  A    between atoms: C_21  and  O_22
REMARK    9  A    between atoms: C_23  and  O_25
REMARK   10  A    between atoms: C_26  and  O_28
REMARK   11  A    between atoms: C_29  and  O_31
REMARK                            x       y       z     vdW  Elec       q    Type
REMARK                         _______ _______ _______ _____ _____    ______ ____
ROOT
ATOM      1  C   UNL     1       6.719   1.579  22.865  0.00  0.00    +0.178 C 
ATOM      2  C   UNL     1       8.002   2.336  22.477  0.00  0.00    +0.177 C 
ATOM      3  C   UNL     1       8.982   1.390  21.755  0.00  0.00    +0.179 C 
ATOM      4  C   UNL     1       9.160   0.062  22.486  0.00  0.00    +0.201 C 
ATOM      5  C   UNL     1       7.768  -0.513  22.778  0.00  0.00    +0.282 C 
ATOM      6  O   UNL     1       7.043   0.390  23.603  0.00  0.00    -0.341 OA
ENDROOT
BRANCH   2   7
ATOM      7  O   UNL     1       7.647   3.437  21.629  0.00  0.00    -0.386 OA
ATOM      8  H   UNL     1       8.367   3.554  20.981  0.00  0.00    +0.210 HD
ENDBRANCH   2   7
BRANCH   3   9
ATOM      9  O   UNL     1      10.252   2.037  21.576  0.00  0.00    -0.386 OA
ATOM     10  H   UNL     1      10.850   1.342  21.229  0.00  0.00    +0.210 HD
ENDBRANCH   3   9
BRANCH   4  11
ATOM     11  O   UNL     1       9.937  -0.802  21.634  0.00  0.00    -0.384 OA
ATOM     12  H   UNL     1      10.673  -0.254  21.289  0.00  0.00    +0.210 HD
ENDBRANCH   4  11
BRANCH   1  13
ATOM     13  C   UNL     1       5.767   2.452  23.680  0.00  0.00    +0.190 C 
BRANCH  13  14
ATOM     14  O   UNL     1       4.772   1.624  24.305  0.00  0.00    -0.392 OA
ATOM     15  H   UNL     1       4.008   2.190  24.481  0.00  0.00    +0.210 HD
ENDBRANCH  13  14
ENDBRANCH   1  13
BRANCH   5  16
ATOM     16  O   UNL     1       7.906  -1.809  23.372  0.00  0.00    -0.340 OA
BRANCH  16  17
ATOM     17  C   UNL     1       6.942  -2.757  22.882  0.00  0.00    +0.181 C 
ATOM     18  C   UNL     1       7.462  -4.193  22.621  0.00  0.00    +0.178 C 
ATOM     19  O   UNL     1       6.397  -5.038  22.159  0.00  0.00    -0.343 OA
ATOM     20  C   UNL     1       5.295  -5.139  23.046  0.00  0.00    +0.250 C 
ATOM     21  C   UNL     1       4.705  -3.782  23.392  0.00  0.00    +0.095 C 
ATOM     22  C   UNL     1       5.782  -2.829  23.891  0.00  0.00    +0.151 C 
BRANCH  20  23
ATOM     23  O   UNL     1       4.316  -5.946  22.418  0.00  0.00    -0.367 OA
ATOM     24  H   UNL     1       4.500  -6.853  22.712  0.00  0.00    +0.212 HD
ENDBRANCH  20  23
BRANCH  22  25
ATOM     25  O   UNL     1       5.200  -1.539  24.083  0.00  0.00    -0.389 OA
ATOM     26  H   UNL     1       5.715  -1.119  24.798  0.00  0.00    +0.210 HD
ENDBRANCH  22  25
BRANCH  18  27
ATOM     27  C   UNL     1       8.228  -4.860  23.787  0.00  0.00    +0.190 C 
BRANCH  27  28
ATOM     28  O   UNL     1       9.357  -4.103  24.209  0.00  0.00    -0.392 OA
ATOM     29  H   UNL     1       9.039  -3.437  24.845  0.00  0.00    +0.210 HD
ENDBRANCH  27  28
ENDBRANCH  18  27
ENDBRANCH  16  17
ENDBRANCH   5  16
TORSDOF 11
ENDMDL
MODEL 4
REMARK VINA RESULT:      -5.7      2.662      6.061
REMARK  Name = 
REMARK  11 active torsions:
REMARK  status: ('A' for Active; 'I' for Inactive)
REMARK    1  A    between atoms: O_1  and  C_2
REMARK    2  A    between atoms: C_2  and  C_3
REMARK    3  A    between atoms: C_6  and  O_8
REMARK    4  A    between atoms: O_8  and  C_9
REMARK    5  A    between atoms: C_11  and  O_13
REMARK    6  A    between atoms: C_15  and  O_17
REMARK    7  A    between atoms: C_19  and  C_21
REMARK    8  A    between atoms: C_21  and  O_22
REMARK    9  A    between atoms: C_23  and  O_25
REMARK   10  A    between atoms: C_26  and  O_28
REMARK   11  A    between atoms: C_29  and  O_31
REMARK                            x       y       z     vdW  Elec       q    Type
REMARK                         _______ _______ _______ _____ _____    ______ ____
ROOT
ATOM      1  C   UNL     1       9.824  -1.617  23.819  0.00  0.00    +0.178 C 
ATOM      2  C   UNL     1       9.175  -0.733  24.898  0.00  0.00    +0.177 C 
ATOM      3  C   UNL     1       8.720  -1.596  26.092  0.00  0.00    +0.179 C 
ATOM      4  C   UNL     1       7.943  -2.836  25.658  0.00  0.00    +0.201 C 
ATOM      5  C   UNL     1       8.762  -3.560  24.582  0.00  0.00    +0.282 C 
ATOM      6  O   UNL     1       8.949  -2.700  23.465  0.00  0.00    -0.341 OA
ENDROOT
BRANCH   2   7
ATOM      7  O   UNL     1      10.129   0.250  25.321  0.00  0.00    -0.386 OA
ATOM      8  H   UNL     1       9.636   0.975  25.749  0.00  0.00    +0.210 HD
ENDBRANCH   2   7
BRANCH   3   9
ATOM      9  O   UNL     1       7.937  -0.808  27.002  0.00  0.00    -0.386 OA
ATOM     10  H   UNL     1       8.534  -0.092  27.304  0.00  0.00    +0.210 HD
ENDBRANCH   3   9
BRANCH   4  11
ATOM     11  O   UNL     1       7.738  -3.652  26.827  0.00  0.00    -0.384 OA
ATOM     12  H   UNL     1       7.568  -3.031  27.566  0.00  0.00    +0.210 HD
ENDBRANCH   4  11
BRANCH   1  13
ATOM     13  C   UNL     1      10.189  -0.817  22.571  0.00  0.00    +0.190 C 
BRANCH  13  14
ATOM     14  O   UNL     1      10.043  -1.648  21.407  0.00  0.00    -0.392 OA
ATOM     15  H   UNL     1      10.588  -2.433  21.553  0.00  0.00    +0.210 HD
ENDBRANCH  13  14
ENDBRANCH   1  13
BRANCH   5  16
ATOM     16  O   UNL     1       8.104  -4.782  24.229  0.00  0.00    -0.340 OA
BRANCH  16  17
ATOM     17  C   UNL     1       6.687  -4.623  24.037  0.00  0.00    +0.181 C 
ATOM     18  C   UNL     1       6.206  -4.465  22.574  0.00  0.00    +0.178 C 
ATOM     19  O   UNL     1       4.776  -4.337  22.526  0.00  0.00    -0.343 OA
ATOM     20  C   UNL     1       4.066  -5.428  23.092  0.00  0.00    +0.250 C 
ATOM     21  C   UNL     1       4.468  -5.692  24.533  0.00  0.00    +0.095 C 
ATOM     22  C   UNL     1       5.978  -5.839  24.661  0.00  0.00    +0.151 C 
BRANCH  20  23
ATOM     23  O   UNL     1       2.687  -5.118  23.024  0.00  0.00    -0.367 OA
ATOM     24  H   UNL     1       2.623  -4.169  23.221  0.00  0.00    +0.212 HD
ENDBRANCH  20  23
BRANCH  22  25
ATOM     25  O   UNL     1       6.310  -5.961  26.045  0.00  0.00    -0.389 OA
ATOM     26  H   UNL     1       6.026  -5.124  26.461  0.00  0.00    +0.210 HD
ENDBRANCH  22  25
BRANCH  18  27
ATOM     27  C   UNL     1       6.697  -5.539  21.578  0.00  0.00    +0.190 C 
BRANCH  27  28
ATOM     28  O   UNL     1       5.992  -5.510  20.342  0.00  0.00    -0.392 OA
ATOM     29  H   UNL     1       5.907  -6.431  20.034  0.00  0.00    +0.210 HD
ENDBRANCH  27  28
ENDBRANCH  18  27
ENDBRANCH  16  17
ENDBRANCH   5  16
TORSDOF 11
ENDMDL
MODEL 5
REMARK VINA RESULT:      -5.6      1.685      6.311
REMARK  Name = 
REMARK  11 active torsions:
REMARK  status: ('A' for Active; 'I' for Inactive)
REMARK    1  A    between atoms: O_1  and  C_2
REMARK    2  A    between atoms: C_2  and  C_3
REMARK    3  A    between atoms: C_6  and  O_8
REMARK    4  A    between atoms: O_8  and  C_9
REMARK    5  A    between atoms: C_11  and  O_13
REMARK    6  A    between atoms: C_15  and  O_17
REMARK    7  A    between atoms: C_19  and  C_21
REMARK    8  A    between atoms: C_21  and  O_22
REMARK    9  A    between atoms: C_23  and  O_25
REMARK   10  A    between atoms: C_26  and  O_28
REMARK   11  A    between atoms: C_29  and  O_31
REMARK                            x       y       z     vdW  Elec       q    Type
REMARK                         _______ _______ _______ _____ _____    ______ ____
ROOT
ATOM      1  C   UNL     1       7.303   0.985  23.988  0.00  0.00    +0.178 C 
ATOM      2  C   UNL     1       8.459   1.845  23.448  0.00  0.00    +0.177 C 
ATOM      3  C   UNL     1       8.918   1.320  22.073  0.00  0.00    +0.179 C 
ATOM      4  C   UNL     1       9.120  -0.193  22.061  0.00  0.00    +0.201 C 
ATOM      5  C   UNL     1       7.860  -0.848  22.641  0.00  0.00    +0.282 C 
ATOM      6  O   UNL     1       7.665  -0.405  23.978  0.00  0.00    -0.341 OA
ENDROOT
BRANCH   2   7
ATOM      7  O   UNL     1       8.012   3.204  23.345  0.00  0.00    -0.386 OA
ATOM      8  H   UNL     1       8.034   3.450  22.401  0.00  0.00    +0.210 HD
ENDBRANCH   2   7
BRANCH   3   9
ATOM      9  O   UNL     1      10.121   1.989  21.664  0.00  0.00    -0.386 OA
ATOM     10  H   UNL     1       9.907   2.406  20.803  0.00  0.00    +0.210 HD
ENDBRANCH   3   9
BRANCH   4  11
ATOM     11  O   UNL     1       9.359  -0.589  20.696  0.00  0.00    -0.384 OA
ATOM     12  H   UNL     1       8.480  -0.614  20.262  0.00  0.00    +0.210 HD
ENDBRANCH   4  11
BRANCH   1  13
ATOM     13  C   UNL     1       6.892   1.403  25.398  0.00  0.00    +0.190 C 
BRANCH  13  14
ATOM     14  O   UNL     1       8.016   1.994  26.071  0.00  0.00    -0.392 OA
ATOM     15  H   UNL     1       7.716   2.237  26.957  0.00  0.00    +0.210 HD
ENDBRANCH  13  14
ENDBRANCH   1  13
BRANCH   5  16
ATOM     16  O   UNL     1       7.981  -2.272  22.547  0.00  0.00    -0.340 OA
BRANCH  16  17
ATOM     17  C   UNL     1       7.659  -2.946  23.777  0.00  0.00    +0.181 C 
ATOM     18  C   UNL     1       6.288  -3.666  23.827  0.00  0.00    +0.178 C 
ATOM     19  O   UNL     1       6.105  -4.312  25.097  0.00  0.00    -0.343 OA
ATOM     20  C   UNL     1       7.100  -5.269  25.421  0.00  0.00    +0.250 C 
ATOM     21  C   UNL     1       8.501  -4.680  25.388  0.00  0.00    +0.095 C 
ATOM     22  C   UNL     1       8.766  -3.975  24.066  0.00  0.00    +0.151 C 
BRANCH  20  23
ATOM     23  O   UNL     1       6.812  -5.759  26.717  0.00  0.00    -0.367 OA
ATOM     24  H   UNL     1       7.448  -5.323  27.308  0.00  0.00    +0.212 HD
ENDBRANCH  20  23
BRANCH  22  25
ATOM     25  O   UNL     1      10.042  -3.336  24.135  0.00  0.00    -0.389 OA
ATOM     26  H   UNL     1      10.605  -3.797  23.483  0.00  0.00    +0.210 HD
ENDBRANCH  22  25
BRANCH  18  27
ATOM     27  C   UNL     1       5.989  -4.639  22.665  0.00  0.00    +0.190 C 
BRANCH  27  28
ATOM     28  O   UNL     1       5.687  -3.968  21.446  0.00  0.00    -0.392 OA
ATOM     29  H   UNL     1       5.599  -3.020  21.652  0.00  0.00    +0.210 HD
ENDBRANCH  27  28
ENDBRANCH  18  27
ENDBRANCH  16  17
ENDBRANCH   5  16
TORSDOF 11
ENDMDL
MODEL 6
REMARK VINA RESULT:      -5.6      2.134      6.424
REMARK  Name = 
REMARK  11 active torsions:
REMARK  status: ('A' for Active; 'I' for Inactive)
REMARK    1  A    between atoms: O_1  and  C_2
REMARK    2  A    between atoms: C_2  and  C_3
REMARK    3  A    between atoms: C_6  and  O_8
REMARK    4  A    between atoms: O_8  and  C_9
REMARK    5  A    between atoms: C_11  and  O_13
REMARK    6  A    between atoms: C_15  and  O_17
REMARK    7  A    between atoms: C_19  and  C_21
REMARK    8  A    between atoms: C_21  and  O_22
REMARK    9  A    between atoms: C_23  and  O_25
REMARK   10  A    between atoms: C_26  and  O_28
REMARK   11  A    between atoms: C_29  and  O_31
REMARK                            x       y       z     vdW  Elec       q    Type
REMARK                         _______ _______ _______ _____ _____    ______ ____
ROOT
ATOM      1  C   UNL     1       9.492   0.005  22.812  0.00  0.00    +0.178 C 
ATOM      2  C   UNL     1       9.136   1.373  23.421  0.00  0.00    +0.177 C 
ATOM      3  C   UNL     1       9.120   1.284  24.961  0.00  0.00    +0.179 C 
ATOM      4  C   UNL     1       8.336   0.077  25.470  0.00  0.00    +0.201 C 
ATOM      5  C   UNL     1       8.844  -1.168  24.732  0.00  0.00    +0.282 C 
ATOM      6  O   UNL     1       8.628  -1.016  23.335  0.00  0.00    -0.341 OA
ENDROOT
BRANCH   2   7
ATOM      7  O   UNL     1      10.103   2.337  22.983  0.00  0.00    -0.386 OA
ATOM      8  H   UNL     1      10.720   1.882  22.380  0.00  0.00    +0.210 HD
ENDBRANCH   2   7
BRANCH   3   9
ATOM      9  O   UNL     1       8.593   2.496  25.521  0.00  0.00    -0.386 OA
ATOM     10  H   UNL     1       8.107   2.220  26.326  0.00  0.00    +0.210 HD
ENDBRANCH   3   9
BRANCH   4  11
ATOM     11  O   UNL     1       8.548  -0.010  26.892  0.00  0.00    -0.384 OA
ATOM     12  H   UNL     1       8.689  -0.960  27.089  0.00  0.00    +0.210 HD
ENDBRANCH   4  11
BRANCH   1  13
ATOM     13  C   UNL     1       9.410   0.022  21.288  0.00  0.00    +0.190 C 
BRANCH  13  14
ATOM     14  O   UNL     1       8.767   1.233  20.854  0.00  0.00    -0.392 OA
ATOM     15  H   UNL     1       8.894   1.289  19.897  0.00  0.00    +0.210 HD
ENDBRANCH  13  14
ENDBRANCH   1  13
BRANCH   5  16
ATOM     16  O   UNL     1       8.196  -2.330  25.264  0.00  0.00    -0.340 OA
BRANCH  16  17
ATOM     17  C   UNL     1       7.765  -3.249  24.245  0.00  0.00    +0.181 C 
ATOM     18  C   UNL     1       8.336  -4.686  24.329  0.00  0.00    +0.178 C 
ATOM     19  O   UNL     1       7.809  -5.501  23.270  0.00  0.00    -0.343 OA
ATOM     20  C   UNL     1       6.395  -5.606  23.255  0.00  0.00    +0.250 C 
ATOM     21  C   UNL     1       5.715  -4.248  23.190  0.00  0.00    +0.095 C 
ATOM     22  C   UNL     1       6.228  -3.328  24.287  0.00  0.00    +0.151 C 
BRANCH  20  23
ATOM     23  O   UNL     1       6.038  -6.380  22.124  0.00  0.00    -0.367 OA
ATOM     24  H   UNL     1       6.315  -5.857  21.354  0.00  0.00    +0.212 HD
ENDBRANCH  20  23
BRANCH  22  25
ATOM     25  O   UNL     1       5.652  -2.033  24.105  0.00  0.00    -0.389 OA
ATOM     26  H   UNL     1       5.873  -1.528  24.912  0.00  0.00    +0.210 HD
ENDBRANCH  22  25
BRANCH  18  27
ATOM     27  C   UNL     1       8.192  -5.396  25.695  0.00  0.00    +0.190 C 
BRANCH  27  28
ATOM     28  O   UNL     1       9.137  -4.940  26.657  0.00  0.00    -0.392 OA
ATOM     29  H   UNL     1       8.661  -4.824  27.499  0.00  0.00    +0.210 HD
ENDBRANCH  27  28
ENDBRANCH  18  27
ENDBRANCH  16  17
ENDBRANCH   5  16
TORSDOF 11
ENDMDL
MODEL 7
REMARK VINA RESULT:      -5.6      1.419      6.862
REMARK  Name = 
REMARK  11 active torsions:
REMARK  status: ('A' for Active; 'I' for Inactive)
REMARK    1  A    between atoms: O_1  and  C_2
REMARK    2  A    between atoms: C_2  and  C_3
REMARK    3  A    between atoms: C_6  and  O_8
REMARK    4  A    between atoms: O_8  and  C_9
REMARK    5  A    between atoms: C_11  and  O_13
REMARK    6  A    between atoms: C_15  and  O_17
REMARK    7  A    between atoms: C_19  and  C_21
REMARK    8  A    between atoms: C_21  and  O_22
REMARK    9  A    between atoms: C_23  and  O_25
REMARK   10  A    between atoms: C_26  and  O_28
REMARK   11  A    between atoms: C_29  and  O_31
REMARK                            x       y       z     vdW  Elec       q    Type
REMARK                         _______ _______ _______ _____ _____    ______ ____
ROOT
ATOM      1  C   UNL     1       9.056   1.432  23.720  0.00  0.00    +0.178 C 
ATOM      2  C   UNL     1       7.790   2.257  23.425  0.00  0.00    +0.177 C 
ATOM      3  C   UNL     1       6.539   1.517  23.942  0.00  0.00    +0.179 C 
ATOM      4  C   UNL     1       6.515   0.048  23.531  0.00  0.00    +0.201 C 
ATOM      5  C   UNL     1       7.865  -0.576  23.909  0.00  0.00    +0.282 C 
ATOM      6  O   UNL     1       8.911   0.094  23.217  0.00  0.00    -0.341 OA
ENDROOT
BRANCH   2   7
ATOM      7  O   UNL     1       7.917   3.536  24.060  0.00  0.00    -0.386 OA
ATOM      8  H   UNL     1       7.094   4.032  23.892  0.00  0.00    +0.210 HD
ENDBRANCH   2   7
BRANCH   3   9
ATOM      9  O   UNL     1       5.350   2.183  23.490  0.00  0.00    -0.386 OA
ATOM     10  H   UNL     1       4.710   2.101  24.228  0.00  0.00    +0.210 HD
ENDBRANCH   3   9
BRANCH   4  11
ATOM     11  O   UNL     1       5.416  -0.578  24.220  0.00  0.00    -0.384 OA
ATOM     12  H   UNL     1       4.738   0.120  24.342  0.00  0.00    +0.210 HD
ENDBRANCH   4  11
BRANCH   1  13
ATOM     13  C   UNL     1      10.306   2.076  23.126  0.00  0.00    +0.190 C 
BRANCH  13  14
ATOM     14  O   UNL     1      10.146   2.217  21.704  0.00  0.00    -0.392 OA
ATOM     15  H   UNL     1      10.356   1.358  21.313  0.00  0.00    +0.210 HD
ENDBRANCH  13  14
ENDBRANCH   1  13
BRANCH   5  16
ATOM     16  O   UNL     1       7.833  -1.980  23.628  0.00  0.00    -0.340 OA
BRANCH  16  17
ATOM     17  C   UNL     1       7.954  -2.792  24.810  0.00  0.00    +0.181 C 
ATOM     18  C   UNL     1       6.641  -3.396  25.366  0.00  0.00    +0.178 C 
ATOM     19  O   UNL     1       6.908  -4.198  26.527  0.00  0.00    -0.343 OA
ATOM     20  C   UNL     1       7.811  -5.271  26.309  0.00  0.00    +0.250 C 
ATOM     21  C   UNL     1       9.141  -4.800  25.744  0.00  0.00    +0.095 C 
ATOM     22  C   UNL     1       8.935  -3.940  24.506  0.00  0.00    +0.151 C 
BRANCH  20  23
ATOM     23  O   UNL     1       8.015  -5.914  27.554  0.00  0.00    -0.367 OA
ATOM     24  H   UNL     1       8.946  -6.192  27.553  0.00  0.00    +0.212 HD
ENDBRANCH  20  23
BRANCH  22  25
ATOM     25  O   UNL     1      10.200  -3.425  24.090  0.00  0.00    -0.389 OA
ATOM     26  H   UNL     1      10.722  -3.310  24.908  0.00  0.00    +0.210 HD
ENDBRANCH  22  25
BRANCH  18  27
ATOM     27  C   UNL     1       5.766  -4.168  24.352  0.00  0.00    +0.190 C 
BRANCH  27  28
ATOM     28  O   UNL     1       5.297  -3.345  23.290  0.00  0.00    -0.392 OA
ATOM     29  H   UNL     1       4.384  -3.083  23.507  0.00  0.00    +0.210 HD
ENDBRANCH  27  28
ENDBRANCH  18  27
ENDBRANCH  16  17
ENDBRANCH   5  16
TORSDOF 11
ENDMDL
MODEL 8
REMARK VINA RESULT:      -5.5      1.798      6.569
REMARK  Name = 
REMARK  11 active torsions:
REMARK  status: ('A' for Active; 'I' for Inactive)
REMARK    1  A    between atoms: O_1  and  C_2
REMARK    2  A    between atoms: C_2  and  C_3
REMARK    3  A    between atoms: C_6  and  O_8
REMARK    4  A    between atoms: O_8  and  C_9
REMARK    5  A    between atoms: C_11  and  O_13
REMARK    6  A    between atoms: C_15  and  O_17
REMARK    7  A    between atoms: C_19  and  C_21
REMARK    8  A    between atoms: C_21  and  O_22
REMARK    9  A    between atoms: C_23  and  O_25
REMARK   10  A    between atoms: C_26  and  O_28
REMARK   11  A    between atoms: C_29  and  O_31
REMARK                            x       y       z     vdW  Elec       q    Type
REMARK                         _______ _______ _______ _____ _____    ______ ____
ROOT
ATOM      1  C   UNL     1       9.124  -0.995  23.528  0.00  0.00    +0.178 C 
ATOM      2  C   UNL     1       8.311  -0.087  22.587  0.00  0.00    +0.177 C 
ATOM      3  C   UNL     1       7.053   0.438  23.308  0.00  0.00    +0.179 C 
ATOM      4  C   UNL     1       6.288  -0.667  24.031  0.00  0.00    +0.201 C 
ATOM      5  C   UNL     1       7.283  -1.446  24.902  0.00  0.00    +0.282 C 
ATOM      6  O   UNL     1       8.287  -2.024  24.079  0.00  0.00    -0.341 OA
ENDROOT
BRANCH   2   7
ATOM      7  O   UNL     1       9.143   1.003  22.167  0.00  0.00    -0.386 OA
ATOM      8  H   UNL     1      10.068   0.761  22.366  0.00  0.00    +0.210 HD
ENDBRANCH   2   7
BRANCH   3   9
ATOM      9  O   UNL     1       6.195   1.113  22.375  0.00  0.00    -0.386 OA
ATOM     10  H   UNL     1       5.283   0.868  22.637  0.00  0.00    +0.210 HD
ENDBRANCH   3   9
BRANCH   4  11
ATOM     11  O   UNL     1       5.255  -0.039  24.815  0.00  0.00    -0.384 OA
ATOM     12  H   UNL     1       4.413  -0.212  24.344  0.00  0.00    +0.210 HD
ENDBRANCH   4  11
BRANCH   1  13
ATOM     13  C   UNL     1      10.320  -1.625  22.818  0.00  0.00    +0.190 C 
BRANCH  13  14
ATOM     14  O   UNL     1      10.111  -1.588  21.396  0.00  0.00    -0.392 OA
ATOM     15  H   UNL     1       9.797  -0.699  21.183  0.00  0.00    +0.210 HD
ENDBRANCH  13  14
ENDBRANCH   1  13
BRANCH   5  16
ATOM     16  O   UNL     1       6.573  -2.424  25.671  0.00  0.00    -0.340 OA
BRANCH  16  17
ATOM     17  C   UNL     1       6.097  -3.526  24.878  0.00  0.00    +0.181 C 
ATOM     18  C   UNL     1       6.935  -4.827  24.937  0.00  0.00    +0.178 C 
ATOM     19  O   UNL     1       6.338  -5.847  24.121  0.00  0.00    -0.343 OA
ATOM     20  C   UNL     1       5.006  -6.182  24.474  0.00  0.00    +0.250 C 
ATOM     21  C   UNL     1       4.085  -4.973  24.467  0.00  0.00    +0.095 C 
ATOM     22  C   UNL     1       4.656  -3.847  25.316  0.00  0.00    +0.151 C 
BRANCH  20  23
ATOM     23  O   UNL     1       4.548  -7.144  23.542  0.00  0.00    -0.367 OA
ATOM     24  H   UNL     1       4.147  -7.851  24.074  0.00  0.00    +0.212 HD
ENDBRANCH  20  23
BRANCH  22  25
ATOM     25  O   UNL     1       3.820  -2.697  25.175  0.00  0.00    -0.389 OA
ATOM     26  H   UNL     1       2.971  -3.029  24.822  0.00  0.00    +0.210 HD
ENDBRANCH  22  25
BRANCH  18  27
ATOM     27  C   UNL     1       7.251  -5.367  26.351  0.00  0.00    +0.190 C 
BRANCH  27  28
ATOM     28  O   UNL     1       8.069  -4.482  27.109  0.00  0.00    -0.392 OA
ATOM     29  H   UNL     1       8.997  -4.713  26.922  0.00  0.00    +0.210 HD
ENDBRANCH  27  28
ENDBRANCH  18  27
ENDBRANCH  16  17
ENDBRANCH   5  16
TORSDOF 11
ENDMDL
MODEL 9
REMARK VINA RESULT:      -5.4      2.470      6.548
REMARK  Name = 
REMARK  11 active torsions:
REMARK  status: ('A' for Active; 'I' for Inactive)
REMARK    1  A    between atoms: O_1  and  C_2
REMARK    2  A    between atoms: C_2  and  C_3
REMARK    3  A    between atoms: C_6  and  O_8
REMARK    4  A    between atoms: O_8  and  C_9
REMARK    5  A    between atoms: C_11  and  O_13
REMARK    6  A    between atoms: C_15  and  O_17
REMARK    7  A    between atoms: C_19  and  C_21
REMARK    8  A    between atoms: C_21  and  O_22
REMARK    9  A    between atoms: C_23  and  O_25
REMARK   10  A    between atoms: C_26  and  O_28
REMARK   11  A    between atoms: C_29  and  O_31
REMARK                            x       y       z     vdW  Elec       q    Type
REMARK                         _______ _______ _______ _____ _____    ______ ____
ROOT
ATOM      1  C   UNL     1       9.401  -1.202  23.853  0.00  0.00    +0.178 C 
ATOM      2  C   UNL     1       9.396   0.184  24.524  0.00  0.00    +0.177 C 
ATOM      3  C   UNL     1       8.214   0.297  25.507  0.00  0.00    +0.179 C 
ATOM      4  C   UNL     1       6.898  -0.180  24.900  0.00  0.00    +0.201 C 
ATOM      5  C   UNL     1       7.129  -1.567  24.287  0.00  0.00    +0.282 C 
ATOM      6  O   UNL     1       8.118  -1.481  23.270  0.00  0.00    -0.341 OA
ENDROOT
BRANCH   2   7
ATOM      7  O   UNL     1      10.642   0.367  25.209  0.00  0.00    -0.386 OA
ATOM      8  H   UNL     1      10.611   1.236  25.651  0.00  0.00    +0.210 HD
ENDBRANCH   2   7
BRANCH   3   9
ATOM      9  O   UNL     1       8.089   1.648  25.977  0.00  0.00    -0.386 OA
ATOM     10  H   UNL     1       8.927   2.089  25.725  0.00  0.00    +0.210 HD
ENDBRANCH   3   9
BRANCH   4  11
ATOM     11  O   UNL     1       5.917  -0.208  25.955  0.00  0.00    -0.384 OA
ATOM     12  H   UNL     1       5.042  -0.226  25.512  0.00  0.00    +0.210 HD
ENDBRANCH   4  11
BRANCH   1  13
ATOM     13  C   UNL     1      10.490  -1.316  22.789  0.00  0.00    +0.190 C 
BRANCH  13  14
ATOM     14  O   UNL     1       9.893  -1.640  21.522  0.00  0.00    -0.392 OA
ATOM     15  H   UNL     1      10.463  -1.261  20.840  0.00  0.00    +0.210 HD
ENDBRANCH  13  14
ENDBRANCH   1  13
BRANCH   5  16
ATOM     16  O   UNL     1       5.884  -2.082  23.800  0.00  0.00    -0.340 OA
BRANCH  16  17
ATOM     17  C   UNL     1       5.800  -3.516  23.878  0.00  0.00    +0.181 C 
ATOM     18  C   UNL     1       5.137  -4.097  25.152  0.00  0.00    +0.178 C 
ATOM     19  O   UNL     1       5.099  -5.531  25.091  0.00  0.00    -0.343 OA
ATOM     20  C   UNL     1       4.403  -6.056  23.972  0.00  0.00    +0.250 C 
ATOM     21  C   UNL     1       4.957  -5.542  22.654  0.00  0.00    +0.095 C 
ATOM     22  C   UNL     1       5.027  -4.022  22.647  0.00  0.00    +0.151 C 
BRANCH  20  23
ATOM     23  O   UNL     1       4.514  -7.466  24.025  0.00  0.00    -0.367 OA
ATOM     24  H   UNL     1       5.330  -7.644  24.521  0.00  0.00    +0.212 HD
ENDBRANCH  20  23
BRANCH  22  25
ATOM     25  O   UNL     1       5.666  -3.598  21.442  0.00  0.00    -0.389 OA
ATOM     26  H   UNL     1       5.616  -4.360  20.832  0.00  0.00    +0.210 HD
ENDBRANCH  22  25
BRANCH  18  27
ATOM     27  C   UNL     1       3.749  -3.523  25.516  0.00  0.00    +0.190 C 
BRANCH  27  28
ATOM     28  O   UNL     1       3.756  -2.107  25.659  0.00  0.00    -0.392 OA
ATOM     29  H   UNL     1       3.591  -1.726  24.777  0.00  0.00    +0.210 HD
ENDBRANCH  27  28
ENDBRANCH  18  27
ENDBRANCH  16  17
ENDBRANCH   5  16
TORSDOF 11
ENDMDL
