MODEL 1
REMARK VINA RESULT:      -4.5      0.000      0.000
REMARK  Name = 
REMARK  11 active torsions:
REMARK  status: ('A' for Active; 'I' for Inactive)
REMARK    1  A    between atoms: N_1  and  C_2
REMARK    2  A    between atoms: C_2  and  C_4
REMARK    3  A    between atoms: C_2  and  C_12
REMARK    4  A    between atoms: C_4  and  S_5
REMARK    5  A    between atoms: S_5  and  C_6
REMARK    6  A    between atoms: C_6  and  C_7
REMARK    7  A    between atoms: C_7  and  S_8
REMARK    8  A    between atoms: S_8  and  N_9
REMARK    9  A    between atoms: S_8  and  O_10
REMARK   10  A    between atoms: S_8  and  O_11
REMARK   11  A    between atoms: C_12  and  O_13
REMARK                            x       y       z     vdW  Elec       q    Type
REMARK                         _______ _______ _______ _____ _____    ______ ____
ROOT
ATOM      1  S   UNK     1       6.667  -2.991  23.544  0.00  0.00    -0.157 S 
ENDROOT
BRANCH   1   2
ATOM      2  C   UNK     1       7.866  -2.715  22.174  0.00  0.00    +0.099 C 
BRANCH   2   3
ATOM      3  C   UNK     1       8.954  -1.709  22.571  0.00  0.00    +0.170 C 
BRANCH   3   4
ATOM      4  N   UNK     1       9.961  -1.492  21.475  0.00  0.00    -0.318 NA
ATOM      5  H   UNK     1       9.962  -0.477  21.286  0.00  0.00    +0.119 HD
ATOM      6  H   UNK     1      10.889  -1.654  21.878  0.00  0.00    +0.119 HD
ENDBRANCH   3   4
BRANCH   3   7
ATOM      7  C   UNK     1       9.680  -2.172  23.841  0.00  0.00    +0.323 C 
ATOM      8  O   UNK     1      10.250  -3.240  23.977  0.00  0.00    -0.249 OA
BRANCH   7   9
ATOM      9  O   UNK     1       9.585  -1.241  24.831  0.00  0.00    -0.480 OA
ATOM     10  H   UNK     1       9.981  -1.668  25.632  0.00  0.00    +0.295 HD
ENDBRANCH   7   9
ENDBRANCH   3   7
ENDBRANCH   2   3
ENDBRANCH   1   2
BRANCH   1  11
ATOM     11  C   UNK     1       7.002  -4.747  23.884  0.00  0.00    +0.091 C 
BRANCH  11  12
ATOM     12  C   UNK     1       6.784  -5.057  25.352  0.00  0.00    +0.162 C 
BRANCH  12  13
ATOM     13  S   UNK     1       8.297  -5.129  26.237  0.00  0.00    -0.140 S 
BRANCH  13  14
ATOM     14  N   UNK     1       9.602  -5.806  25.522  0.00  0.00    -0.233 NA
ATOM     15  H   UNK     1      10.347  -5.135  25.357  0.00  0.00    +0.142 HD
ATOM     16  H   UNK     1      10.019  -6.538  26.094  0.00  0.00    +0.142 HD
ENDBRANCH  13  14
BRANCH  13  17
ATOM     17  O   UNK     1       7.891  -5.903  27.573  0.00  0.00    -0.284 OA
ATOM     18  H   UNK     1       6.927  -6.025  27.719  0.00  0.00    +0.242 HD
ENDBRANCH  13  17
BRANCH  13  19
ATOM     19  O   UNK     1       8.557  -3.595  26.610  0.00  0.00    -0.284 OA
ATOM     20  H   UNK     1       7.765  -3.012  26.538  0.00  0.00    +0.242 HD
ENDBRANCH  13  19
ENDBRANCH  12  13
ENDBRANCH  11  12
ENDBRANCH   1  11
TORSDOF 11
ENDMDL
MODEL 2
REMARK VINA RESULT:      -4.3      2.581      3.181
REMARK  Name = 
REMARK  11 active torsions:
REMARK  status: ('A' for Active; 'I' for Inactive)
REMARK    1  A    between atoms: N_1  and  C_2
REMARK    2  A    between atoms: C_2  and  C_4
REMARK    3  A    between atoms: C_2  and  C_12
REMARK    4  A    between atoms: C_4  and  S_5
REMARK    5  A    between atoms: S_5  and  C_6
REMARK    6  A    between atoms: C_6  and  C_7
REMARK    7  A    between atoms: C_7  and  S_8
REMARK    8  A    between atoms: S_8  and  N_9
REMARK    9  A    between atoms: S_8  and  O_10
REMARK   10  A    between atoms: S_8  and  O_11
REMARK   11  A    between atoms: C_12  and  O_13
REMARK                            x       y       z     vdW  Elec       q    Type
REMARK                         _______ _______ _______ _____ _____    ______ ____
ROOT
ATOM      1  S   UNK     1       8.669  -1.655  22.854  0.00  0.00    -0.157 S 
ENDROOT
BRANCH   1   2
ATOM      2  C   UNK     1       9.934  -0.478  22.220  0.00  0.00    +0.099 C 
BRANCH   2   3
ATOM      3  C   UNK     1       9.640   0.960  22.666  0.00  0.00    +0.170 C 
BRANCH   3   4
ATOM      4  N   UNK     1       9.806   1.952  21.548  0.00  0.00    -0.318 NA
ATOM      5  H   UNK     1       9.073   2.665  21.689  0.00  0.00    +0.119 HD
ATOM      6  H   UNK     1      10.671   2.471  21.728  0.00  0.00    +0.119 HD
ENDBRANCH   3   4
BRANCH   3   7
ATOM      7  C   UNK     1      10.550   1.358  23.836  0.00  0.00    +0.323 C 
ATOM      8  O   UNK     1      10.880   0.627  24.752  0.00  0.00    -0.249 OA
BRANCH   7   9
ATOM      9  O   UNK     1      10.931   2.663  23.743  0.00  0.00    -0.480 OA
ATOM     10  H   UNK     1      10.851   3.026  24.661  0.00  0.00    +0.295 HD
ENDBRANCH   7   9
ENDBRANCH   3   7
ENDBRANCH   2   3
ENDBRANCH   1   2
BRANCH   1  11
ATOM     11  C   UNK     1       9.731  -2.696  23.904  0.00  0.00    +0.091 C 
BRANCH  11  12
ATOM     12  C   UNK     1       8.947  -3.237  25.084  0.00  0.00    +0.162 C 
BRANCH  12  13
ATOM     13  S   UNK     1       9.022  -4.988  25.170  0.00  0.00    -0.140 S 
BRANCH  13  14
ATOM     14  N   UNK     1       8.299  -5.752  26.421  0.00  0.00    -0.233 NA
ATOM     15  H   UNK     1       8.074  -6.720  26.209  0.00  0.00    +0.142 HD
ATOM     16  H   UNK     1       8.893  -5.788  27.247  0.00  0.00    +0.142 HD
ENDBRANCH  13  14
BRANCH  13  17
ATOM     17  O   UNK     1      10.591  -5.279  25.132  0.00  0.00    -0.284 OA
ATOM     18  H   UNK     1      11.080  -4.886  24.376  0.00  0.00    +0.242 HD
ENDBRANCH  13  17
BRANCH  13  19
ATOM     19  O   UNK     1       8.399  -5.434  23.765  0.00  0.00    -0.284 OA
ATOM     20  H   UNK     1       7.428  -5.603  23.779  0.00  0.00    +0.242 HD
ENDBRANCH  13  19
ENDBRANCH  12  13
ENDBRANCH  11  12
ENDBRANCH   1  11
TORSDOF 11
ENDMDL
MODEL 3
REMARK VINA RESULT:      -4.3      2.253      4.868
REMARK  Name = 
REMARK  11 active torsions:
REMARK  status: ('A' for Active; 'I' for Inactive)
REMARK    1  A    between atoms: N_1  and  C_2
REMARK    2  A    between atoms: C_2  and  C_4
REMARK    3  A    between atoms: C_2  and  C_12
REMARK    4  A    between atoms: C_4  and  S_5
REMARK    5  A    between atoms: S_5  and  C_6
REMARK    6  A    between atoms: C_6  and  C_7
REMARK    7  A    between atoms: C_7  and  S_8
REMARK    8  A    between atoms: S_8  and  N_9
REMARK    9  A    between atoms: S_8  and  O_10
REMARK   10  A    between atoms: S_8  and  O_11
REMARK   11  A    between atoms: C_12  and  O_13
REMARK                            x       y       z     vdW  Elec       q    Type
REMARK                         _______ _______ _______ _____ _____    ______ ____
ROOT
ATOM      1  S   UNK     1       7.483  -2.149  25.907  0.00  0.00    -0.157 S 
ENDROOT
BRANCH   1   2
ATOM      2  C   UNK     1       8.464  -3.509  26.666  0.00  0.00    +0.099 C 
BRANCH   2   3
ATOM      3  C   UNK     1       8.032  -4.881  26.133  0.00  0.00    +0.170 C 
BRANCH   3   4
ATOM      4  N   UNK     1       8.082  -5.949  27.192  0.00  0.00    -0.318 NA
ATOM      5  H   UNK     1       8.401  -5.480  28.054  0.00  0.00    +0.119 HD
ATOM      6  H   UNK     1       7.115  -6.205  27.411  0.00  0.00    +0.119 HD
ENDBRANCH   3   4
BRANCH   3   7
ATOM      7  C   UNK     1       8.911  -5.301  24.948  0.00  0.00    +0.323 C 
ATOM      8  O   UNK     1       8.591  -5.235  23.775  0.00  0.00    -0.249 OA
BRANCH   7   9
ATOM      9  O   UNK     1      10.109  -5.794  25.373  0.00  0.00    -0.480 OA
ATOM     10  H   UNK     1      10.693  -5.002  25.487  0.00  0.00    +0.295 HD
ENDBRANCH   7   9
ENDBRANCH   3   7
ENDBRANCH   2   3
ENDBRANCH   1   2
BRANCH   1  11
ATOM     11  C   UNK     1       8.839  -1.162  25.202  0.00  0.00    +0.091 C 
BRANCH  11  12
ATOM     12  C   UNK     1       8.496  -0.715  23.794  0.00  0.00    +0.162 C 
BRANCH  12  13
ATOM     13  S   UNK     1       9.197  -1.774  22.583  0.00  0.00    -0.140 S 
BRANCH  13  14
ATOM     14  N   UNK     1       9.866  -1.116  21.245  0.00  0.00    -0.233 NA
ATOM     15  H   UNK     1      10.097  -0.133  21.368  0.00  0.00    +0.142 HD
ATOM     16  H   UNK     1      10.742  -1.568  20.989  0.00  0.00    +0.142 HD
ENDBRANCH  13  14
BRANCH  13  17
ATOM     17  O   UNK     1       7.983  -2.745  22.215  0.00  0.00    -0.284 OA
ATOM     18  H   UNK     1       7.235  -2.753  22.853  0.00  0.00    +0.242 HD
ENDBRANCH  13  17
BRANCH  13  19
ATOM     19  O   UNK     1      10.266  -2.613  23.428  0.00  0.00    -0.284 OA
ATOM     20  H   UNK     1       9.877  -3.192  24.125  0.00  0.00    +0.242 HD
ENDBRANCH  13  19
ENDBRANCH  12  13
ENDBRANCH  11  12
ENDBRANCH   1  11
TORSDOF 11
ENDMDL
MODEL 4
REMARK VINA RESULT:      -4.2      2.749      5.760
REMARK  Name = 
REMARK  11 active torsions:
REMARK  status: ('A' for Active; 'I' for Inactive)
REMARK    1  A    between atoms: N_1  and  C_2
REMARK    2  A    between atoms: C_2  and  C_4
REMARK    3  A    between atoms: C_2  and  C_12
REMARK    4  A    between atoms: C_4  and  S_5
REMARK    5  A    between atoms: S_5  and  C_6
REMARK    6  A    between atoms: C_6  and  C_7
REMARK    7  A    between atoms: C_7  and  S_8
REMARK    8  A    between atoms: S_8  and  N_9
REMARK    9  A    between atoms: S_8  and  O_10
REMARK   10  A    between atoms: S_8  and  O_11
REMARK   11  A    between atoms: C_12  and  O_13
REMARK                            x       y       z     vdW  Elec       q    Type
REMARK                         _______ _______ _______ _____ _____    ______ ____
ROOT
ATOM      1  S   UNK     1       8.579  -2.091  24.290  0.00  0.00    -0.157 S 
ENDROOT
BRANCH   1   2
ATOM      2  C   UNK     1       8.725  -3.921  24.159  0.00  0.00    +0.099 C 
BRANCH   2   3
ATOM      3  C   UNK     1       9.090  -4.556  25.507  0.00  0.00    +0.170 C 
BRANCH   3   4
ATOM      4  N   UNK     1      10.254  -5.502  25.397  0.00  0.00    -0.318 NA
ATOM      5  H   UNK     1       9.920  -6.409  25.760  0.00  0.00    +0.119 HD
ATOM      6  H   UNK     1      10.400  -5.691  24.401  0.00  0.00    +0.119 HD
ENDBRANCH   3   4
BRANCH   3   7
ATOM      7  C   UNK     1       7.886  -5.301  26.096  0.00  0.00    +0.323 C 
ATOM      8  O   UNK     1       6.805  -5.437  25.551  0.00  0.00    -0.249 OA
BRANCH   7   9
ATOM      9  O   UNK     1       8.163  -5.780  27.342  0.00  0.00    -0.480 OA
ATOM     10  H   UNK     1       8.831  -5.153  27.720  0.00  0.00    +0.295 HD
ENDBRANCH   7   9
ENDBRANCH   3   7
ENDBRANCH   2   3
ENDBRANCH   1   2
BRANCH   1  11
ATOM     11  C   UNK     1      10.089  -1.607  23.397  0.00  0.00    +0.091 C 
BRANCH  11  12
ATOM     12  C   UNK     1      10.218  -0.097  23.346  0.00  0.00    +0.162 C 
BRANCH  12  13
ATOM     13  S   UNK     1       9.295   0.594  22.024  0.00  0.00    -0.140 S 
BRANCH  13  14
ATOM     14  N   UNK     1       7.728   0.986  22.271  0.00  0.00    -0.233 NA
ATOM     15  H   UNK     1       7.590   1.520  23.125  0.00  0.00    +0.142 HD
ATOM     16  H   UNK     1       7.353   1.570  21.525  0.00  0.00    +0.142 HD
ENDBRANCH  13  14
BRANCH  13  17
ATOM     17  O   UNK     1       9.452  -0.500  20.871  0.00  0.00    -0.284 OA
ATOM     18  H   UNK     1       8.743  -0.509  20.191  0.00  0.00    +0.242 HD
ENDBRANCH  13  17
BRANCH  13  19
ATOM     19  O   UNK     1      10.168   1.872  21.619  0.00  0.00    -0.284 OA
ATOM     20  H   UNK     1      11.144   1.732  21.648  0.00  0.00    +0.242 HD
ENDBRANCH  13  19
ENDBRANCH  12  13
ENDBRANCH  11  12
ENDBRANCH   1  11
TORSDOF 11
ENDMDL
MODEL 5
REMARK VINA RESULT:      -4.2      2.768      5.084
REMARK  Name = 
REMARK  11 active torsions:
REMARK  status: ('A' for Active; 'I' for Inactive)
REMARK    1  A    between atoms: N_1  and  C_2
REMARK    2  A    between atoms: C_2  and  C_4
REMARK    3  A    between atoms: C_2  and  C_12
REMARK    4  A    between atoms: C_4  and  S_5
REMARK    5  A    between atoms: S_5  and  C_6
REMARK    6  A    between atoms: C_6  and  C_7
REMARK    7  A    between atoms: C_7  and  S_8
REMARK    8  A    between atoms: S_8  and  N_9
REMARK    9  A    between atoms: S_8  and  O_10
REMARK   10  A    between atoms: S_8  and  O_11
REMARK   11  A    between atoms: C_12  and  O_13
REMARK                            x       y       z     vdW  Elec       q    Type
REMARK                         _______ _______ _______ _____ _____    ______ ____
ROOT
ATOM      1  S   UNK     1       6.538  -1.867  23.272  0.00  0.00    -0.157 S 
ENDROOT
BRANCH   1   2
ATOM      2  C   UNK     1       7.880  -3.081  22.930  0.00  0.00    +0.099 C 
BRANCH   2   3
ATOM      3  C   UNK     1       8.879  -3.159  24.091  0.00  0.00    +0.170 C 
BRANCH   3   4
ATOM      4  N   UNK     1      10.275  -2.788  23.672  0.00  0.00    -0.318 NA
ATOM      5  H   UNK     1      10.567  -2.023  24.300  0.00  0.00    +0.119 HD
ATOM      6  H   UNK     1      10.890  -3.560  23.947  0.00  0.00    +0.119 HD
ENDBRANCH   3   4
BRANCH   3   7
ATOM      7  C   UNK     1       8.890  -4.568  24.700  0.00  0.00    +0.323 C 
ATOM      8  O   UNK     1       7.904  -5.192  25.048  0.00  0.00    -0.249 OA
BRANCH   7   9
ATOM      9  O   UNK     1      10.162  -5.037  24.833  0.00  0.00    -0.480 OA
ATOM     10  H   UNK     1      10.670  -4.301  25.259  0.00  0.00    +0.295 HD
ENDBRANCH   7   9
ENDBRANCH   3   7
ENDBRANCH   2   3
ENDBRANCH   1   2
BRANCH   1  11
ATOM     11  C   UNK     1       7.551  -0.432  23.748  0.00  0.00    +0.091 C 
BRANCH  11  12
ATOM     12  C   UNK     1       7.892   0.407  22.532  0.00  0.00    +0.162 C 
BRANCH  12  13
ATOM     13  S   UNK     1       9.623   0.480  22.252  0.00  0.00    -0.140 S 
BRANCH  13  14
ATOM     14  N   UNK     1      10.637   0.394  23.531  0.00  0.00    -0.233 NA
ATOM     15  H   UNK     1      10.368   1.022  24.284  0.00  0.00    +0.142 HD
ATOM     16  H   UNK     1      10.655  -0.535  23.948  0.00  0.00    +0.142 HD
ENDBRANCH  13  14
BRANCH  13  17
ATOM     17  O   UNK     1       9.796   1.853  21.456  0.00  0.00    -0.284 OA
ATOM     18  H   UNK     1       9.819   1.779  20.477  0.00  0.00    +0.242 HD
ENDBRANCH  13  17
BRANCH  13  19
ATOM     19  O   UNK     1       9.862  -0.724  21.226  0.00  0.00    -0.284 OA
ATOM     20  H   UNK     1       9.266  -0.720  20.440  0.00  0.00    +0.242 HD
ENDBRANCH  13  19
ENDBRANCH  12  13
ENDBRANCH  11  12
ENDBRANCH   1  11
TORSDOF 11
ENDMDL
MODEL 6
REMARK VINA RESULT:      -4.1      2.938      3.617
REMARK  Name = 
REMARK  11 active torsions:
REMARK  status: ('A' for Active; 'I' for Inactive)
REMARK    1  A    between atoms: N_1  and  C_2
REMARK    2  A    between atoms: C_2  and  C_4
REMARK    3  A    between atoms: C_2  and  C_12
REMARK    4  A    between atoms: C_4  and  S_5
REMARK    5  A    between atoms: S_5  and  C_6
REMARK    6  A    between atoms: C_6  and  C_7
REMARK    7  A    between atoms: C_7  and  S_8
REMARK    8  A    between atoms: S_8  and  N_9
REMARK    9  A    between atoms: S_8  and  O_10
REMARK   10  A    between atoms: S_8  and  O_11
REMARK   11  A    between atoms: C_12  and  O_13
REMARK                            x       y       z     vdW  Elec       q    Type
REMARK                         _______ _______ _______ _____ _____    ______ ____
ROOT
ATOM      1  S   UNK     1       8.611  -1.619  22.841  0.00  0.00    -0.157 S 
ENDROOT
BRANCH   1   2
ATOM      2  C   UNK     1       8.831  -0.009  23.707  0.00  0.00    +0.099 C 
BRANCH   2   3
ATOM      3  C   UNK     1      10.200   0.613  23.402  0.00  0.00    +0.170 C 
BRANCH   3   4
ATOM      4  N   UNK     1      11.102   0.630  24.605  0.00  0.00    -0.318 NA
ATOM      5  H   UNK     1      10.982   1.560  25.038  0.00  0.00    +0.119 HD
ATOM      6  H   UNK     1      10.694  -0.003  25.300  0.00  0.00    +0.119 HD
ENDBRANCH   3   4
BRANCH   3   7
ATOM      7  C   UNK     1      10.036   2.043  22.871  0.00  0.00    +0.323 C 
ATOM      8  O   UNK     1       9.916   3.040  23.559  0.00  0.00    -0.249 OA
BRANCH   7   9
ATOM      9  O   UNK     1      10.012   2.063  21.508  0.00  0.00    -0.480 OA
ATOM     10  H   UNK     1       9.206   2.587  21.268  0.00  0.00    +0.295 HD
ENDBRANCH   7   9
ENDBRANCH   3   7
ENDBRANCH   2   3
ENDBRANCH   1   2
BRANCH   1  11
ATOM     11  C   UNK     1       9.696  -2.659  23.867  0.00  0.00    +0.091 C 
BRANCH  11  12
ATOM     12  C   UNK     1       8.936  -3.206  25.060  0.00  0.00    +0.162 C 
BRANCH  12  13
ATOM     13  S   UNK     1       9.024  -4.957  25.144  0.00  0.00    -0.140 S 
BRANCH  13  14
ATOM     14  N   UNK     1       8.319  -5.727  26.401  0.00  0.00    -0.233 NA
ATOM     15  H   UNK     1       8.745  -6.629  26.595  0.00  0.00    +0.142 HD
ATOM     16  H   UNK     1       8.396  -5.200  27.270  0.00  0.00    +0.142 HD
ENDBRANCH  13  14
BRANCH  13  17
ATOM     17  O   UNK     1      10.596  -5.236  25.092  0.00  0.00    -0.284 OA
ATOM     18  H   UNK     1      10.961  -5.456  24.206  0.00  0.00    +0.242 HD
ENDBRANCH  13  17
BRANCH  13  19
ATOM     19  O   UNK     1       8.392  -5.406  23.745  0.00  0.00    -0.284 OA
ATOM     20  H   UNK     1       8.986  -5.957  23.182  0.00  0.00    +0.242 HD
ENDBRANCH  13  19
ENDBRANCH  12  13
ENDBRANCH  11  12
ENDBRANCH   1  11
TORSDOF 11
ENDMDL
MODEL 7
REMARK VINA RESULT:      -4.1      1.775      2.063
REMARK  Name = 
REMARK  11 active torsions:
REMARK  status: ('A' for Active; 'I' for Inactive)
REMARK    1  A    between atoms: N_1  and  C_2
REMARK    2  A    between atoms: C_2  and  C_4
REMARK    3  A    between atoms: C_2  and  C_12
REMARK    4  A    between atoms: C_4  and  S_5
REMARK    5  A    between atoms: S_5  and  C_6
REMARK    6  A    between atoms: C_6  and  C_7
REMARK    7  A    between atoms: C_7  and  S_8
REMARK    8  A    between atoms: S_8  and  N_9
REMARK    9  A    between atoms: S_8  and  O_10
REMARK   10  A    between atoms: S_8  and  O_11
REMARK   11  A    between atoms: C_12  and  O_13
REMARK                            x       y       z     vdW  Elec       q    Type
REMARK                         _______ _______ _______ _____ _____    ______ ____
ROOT
ATOM      1  S   UNK     1       6.759  -2.731  22.956  0.00  0.00    -0.157 S 
ENDROOT
BRANCH   1   2
ATOM      2  C   UNK     1       7.633  -1.211  23.519  0.00  0.00    +0.099 C 
BRANCH   2   3
ATOM      3  C   UNK     1       9.152  -1.419  23.566  0.00  0.00    +0.170 C 
BRANCH   3   4
ATOM      4  N   UNK     1       9.756  -0.939  24.858  0.00  0.00    -0.318 NA
ATOM      5  H   UNK     1       9.357  -1.538  25.599  0.00  0.00    +0.119 HD
ATOM      6  H   UNK     1      10.745  -1.208  24.850  0.00  0.00    +0.119 HD
ENDBRANCH   3   4
BRANCH   3   7
ATOM      7  C   UNK     1       9.832  -0.703  22.392  0.00  0.00    +0.323 C 
ATOM      8  O   UNK     1      10.041   0.495  22.323  0.00  0.00    -0.249 OA
BRANCH   7   9
ATOM      9  O   UNK     1      10.157  -1.580  21.401  0.00  0.00    -0.480 OA
ATOM     10  H   UNK     1      11.133  -1.728  21.492  0.00  0.00    +0.295 HD
ENDBRANCH   7   9
ENDBRANCH   3   7
ENDBRANCH   2   3
ENDBRANCH   1   2
BRANCH   1  11
ATOM     11  C   UNK     1       8.011  -3.975  23.400  0.00  0.00    +0.091 C 
BRANCH  11  12
ATOM     12  C   UNK     1       7.538  -4.812  24.573  0.00  0.00    +0.162 C 
BRANCH  12  13
ATOM     13  S   UNK     1       8.760  -4.931  25.826  0.00  0.00    -0.140 S 
BRANCH  13  14
ATOM     14  N   UNK     1      10.259  -5.442  25.426  0.00  0.00    -0.233 NA
ATOM     15  H   UNK     1      10.513  -6.308  25.894  0.00  0.00    +0.142 HD
ATOM     16  H   UNK     1      10.348  -5.638  24.430  0.00  0.00    +0.142 HD
ENDBRANCH  13  14
BRANCH  13  17
ATOM     17  O   UNK     1       8.077  -5.897  26.898  0.00  0.00    -0.284 OA
ATOM     18  H   UNK     1       7.374  -6.490  26.552  0.00  0.00    +0.242 HD
ENDBRANCH  13  17
BRANCH  13  19
ATOM     19  O   UNK     1       8.783  -3.451  26.434  0.00  0.00    -0.284 OA
ATOM     20  H   UNK     1       8.349  -3.360  27.315  0.00  0.00    +0.242 HD
ENDBRANCH  13  19
ENDBRANCH  12  13
ENDBRANCH  11  12
ENDBRANCH   1  11
TORSDOF 11
ENDMDL
MODEL 8
REMARK VINA RESULT:      -4.0      3.682      5.861
REMARK  Name = 
REMARK  11 active torsions:
REMARK  status: ('A' for Active; 'I' for Inactive)
REMARK    1  A    between atoms: N_1  and  C_2
REMARK    2  A    between atoms: C_2  and  C_4
REMARK    3  A    between atoms: C_2  and  C_12
REMARK    4  A    between atoms: C_4  and  S_5
REMARK    5  A    between atoms: S_5  and  C_6
REMARK    6  A    between atoms: C_6  and  C_7
REMARK    7  A    between atoms: C_7  and  S_8
REMARK    8  A    between atoms: S_8  and  N_9
REMARK    9  A    between atoms: S_8  and  O_10
REMARK   10  A    between atoms: S_8  and  O_11
REMARK   11  A    between atoms: C_12  and  O_13
REMARK                            x       y       z     vdW  Elec       q    Type
REMARK                         _______ _______ _______ _____ _____    ______ ____
ROOT
ATOM      1  S   UNK     1       8.166  -0.595  24.984  0.00  0.00    -0.157 S 
ENDROOT
BRANCH   1   2
ATOM      2  C   UNK     1       7.530  -0.771  23.265  0.00  0.00    +0.099 C 
BRANCH   2   3
ATOM      3  C   UNK     1       8.212  -1.930  22.527  0.00  0.00    +0.170 C 
BRANCH   3   4
ATOM      4  N   UNK     1       8.362  -3.150  23.393  0.00  0.00    -0.318 NA
ATOM      5  H   UNK     1       7.930  -2.911  24.300  0.00  0.00    +0.119 HD
ATOM      6  H   UNK     1       7.733  -3.868  23.019  0.00  0.00    +0.119 HD
ENDBRANCH   3   4
BRANCH   3   7
ATOM      7  C   UNK     1       9.591  -1.502  22.009  0.00  0.00    +0.323 C 
ATOM      8  O   UNK     1      10.657  -1.800  22.517  0.00  0.00    -0.249 OA
BRANCH   7   9
ATOM      9  O   UNK     1       9.480  -0.709  20.907  0.00  0.00    -0.480 OA
ATOM     10  H   UNK     1       8.731  -0.091  21.103  0.00  0.00    +0.295 HD
ENDBRANCH   7   9
ENDBRANCH   3   7
ENDBRANCH   2   3
ENDBRANCH   1   2
BRANCH   1  11
ATOM     11  C   UNK     1       8.483   1.197  25.002  0.00  0.00    +0.091 C 
BRANCH  11  12
ATOM     12  C   UNK     1       8.435   1.760  23.595  0.00  0.00    +0.162 C 
BRANCH  12  13
ATOM     13  S   UNK     1      10.019   2.273  23.041  0.00  0.00    -0.140 S 
BRANCH  13  14
ATOM     14  N   UNK     1      10.525   3.790  23.380  0.00  0.00    -0.233 NA
ATOM     15  H   UNK     1      11.450   3.807  23.801  0.00  0.00    +0.142 HD
ATOM     16  H   UNK     1      10.598   4.369  22.546  0.00  0.00    +0.142 HD
ENDBRANCH  13  14
BRANCH  13  17
ATOM     17  O   UNK     1       9.945   2.017  21.467  0.00  0.00    -0.284 OA
ATOM     18  H   UNK     1       9.057   1.790  21.112  0.00  0.00    +0.242 HD
ENDBRANCH  13  17
BRANCH  13  19
ATOM     19  O   UNK     1      10.986   1.170  23.680  0.00  0.00    -0.284 OA
ATOM     20  H   UNK     1      11.892   1.140  23.290  0.00  0.00    +0.242 HD
ENDBRANCH  13  19
ENDBRANCH  12  13
ENDBRANCH  11  12
ENDBRANCH   1  11
TORSDOF 11
ENDMDL
MODEL 9
REMARK VINA RESULT:      -4.0      2.555      3.126
REMARK  Name = 
REMARK  11 active torsions:
REMARK  status: ('A' for Active; 'I' for Inactive)
REMARK    1  A    between atoms: N_1  and  C_2
REMARK    2  A    between atoms: C_2  and  C_4
REMARK    3  A    between atoms: C_2  and  C_12
REMARK    4  A    between atoms: C_4  and  S_5
REMARK    5  A    between atoms: S_5  and  C_6
REMARK    6  A    between atoms: C_6  and  C_7
REMARK    7  A    between atoms: C_7  and  S_8
REMARK    8  A    between atoms: S_8  and  N_9
REMARK    9  A    between atoms: S_8  and  O_10
REMARK   10  A    between atoms: S_8  and  O_11
REMARK   11  A    between atoms: C_12  and  O_13
REMARK                            x       y       z     vdW  Elec       q    Type
REMARK                         _______ _______ _______ _____ _____    ______ ____
ROOT
ATOM      1  S   UNK     1       7.888  -1.202  24.548  0.00  0.00    -0.157 S 
ENDROOT
BRANCH   1   2
ATOM      2  C   UNK     1       9.125  -0.241  23.580  0.00  0.00    +0.099 C 
BRANCH   2   3
ATOM      3  C   UNK     1       8.724  -0.130  22.104  0.00  0.00    +0.170 C 
BRANCH   3   4
ATOM      4  N   UNK     1       9.753  -0.727  21.184  0.00  0.00    -0.318 NA
ATOM      5  H   UNK     1      10.344  -1.335  21.774  0.00  0.00    +0.119 HD
ATOM      6  H   UNK     1       9.267  -1.395  20.578  0.00  0.00    +0.119 HD
ENDBRANCH   3   4
BRANCH   3   7
ATOM      7  C   UNK     1       8.488   1.336  21.717  0.00  0.00    +0.323 C 
ATOM      8  O   UNK     1       7.404   1.889  21.679  0.00  0.00    -0.249 OA
BRANCH   7   9
ATOM      9  O   UNK     1       9.657   1.953  21.387  0.00  0.00    -0.480 OA
ATOM     10  H   UNK     1       9.396   2.724  20.823  0.00  0.00    +0.295 HD
ENDBRANCH   7   9
ENDBRANCH   3   7
ENDBRANCH   2   3
ENDBRANCH   1   2
BRANCH   1  11
ATOM     11  C   UNK     1       8.915  -2.634  25.003  0.00  0.00    +0.091 C 
BRANCH  11  12
ATOM     12  C   UNK     1       8.277  -3.407  26.141  0.00  0.00    +0.162 C 
BRANCH  12  13
ATOM     13  S   UNK     1       8.395  -5.141  25.900  0.00  0.00    -0.140 S 
BRANCH  13  14
ATOM     14  N   UNK     1       9.785  -5.767  25.312  0.00  0.00    -0.233 NA
ATOM     15  H   UNK     1      10.601  -5.221  25.577  0.00  0.00    +0.142 HD
ATOM     16  H   UNK     1       9.965  -6.707  25.662  0.00  0.00    +0.142 HD
ENDBRANCH  13  14
BRANCH  13  17
ATOM     17  O   UNK     1       7.159  -5.451  24.939  0.00  0.00    -0.284 OA
ATOM     18  H   UNK     1       6.374  -4.870  25.051  0.00  0.00    +0.242 HD
ENDBRANCH  13  17
BRANCH  13  19
ATOM     19  O   UNK     1       8.053  -5.720  27.352  0.00  0.00    -0.284 OA
ATOM     20  H   UNK     1       7.090  -5.772  27.559  0.00  0.00    +0.242 HD
ENDBRANCH  13  19
ENDBRANCH  12  13
ENDBRANCH  11  12
ENDBRANCH   1  11
TORSDOF 11
ENDMDL
