MODEL 1
REMARK VINA RESULT:      -5.0      0.000      0.000
REMARK  Name = 
REMARK  3 active torsions:
REMARK  status: ('A' for Active; 'I' for Inactive)
REMARK    1  A    between atoms: O_1  and  N_2
REMARK    2  A    between atoms: C_3  and  C_5
REMARK    3  A    between atoms: C_10  and  O_11
REMARK                            x       y       z     vdW  Elec       q    Type
REMARK                         _______ _______ _______ _____ _____    ______ ____
ROOT
ATOM      1  C   UNL     1       9.777  -0.791  23.244  0.00  0.00    +0.080 A 
ATOM      2  C   UNL     1       9.749  -0.055  22.048  0.00  0.00    +0.129 A 
ATOM      3  C   UNL     1      10.041   1.314  22.047  0.00  0.00    +0.046 A 
ATOM      4  C   UNL     1      10.372   1.958  23.239  0.00  0.00    +0.004 A 
ATOM      5  C   UNL     1      10.415   1.240  24.431  0.00  0.00    +0.001 A 
ATOM      6  C   UNL     1      10.119  -0.125  24.433  0.00  0.00    +0.017 A 
ENDROOT
BRANCH   1   9
ATOM      7  N   UNL     1       8.247  -2.639  22.829  0.00  0.00    -0.193 N 
ATOM      8  H   UNL     1       7.609  -1.969  22.404  0.00  0.00    +0.183 HD
ATOM      9  C   UNL     1       9.456  -2.252  23.349  0.00  0.00    +0.270 C 
ATOM     10  O   UNL     1      10.256  -3.015  23.881  0.00  0.00    -0.268 OA
BRANCH   7  11
ATOM     11  O   UNL     1       7.884  -3.993  22.934  0.00  0.00    -0.295 OA
ATOM     12  H   UNL     1       8.353  -4.412  22.193  0.00  0.00    +0.241 HD
ENDBRANCH   7  11
ENDBRANCH   1   9
BRANCH   2  13
ATOM     13  O   UNL     1       9.437  -0.656  20.854  0.00  0.00    -0.506 OA
ATOM     14  H   UNL     1      10.175  -0.511  20.234  0.00  0.00    +0.292 HD
ENDBRANCH   2  13
TORSDOF 3
ENDMDL
MODEL 2
REMARK VINA RESULT:      -5.0      3.489      5.015
REMARK  Name = 
REMARK  3 active torsions:
REMARK  status: ('A' for Active; 'I' for Inactive)
REMARK    1  A    between atoms: O_1  and  N_2
REMARK    2  A    between atoms: C_3  and  C_5
REMARK    3  A    between atoms: C_10  and  O_11
REMARK                            x       y       z     vdW  Elec       q    Type
REMARK                         _______ _______ _______ _____ _____    ______ ____
ROOT
ATOM      1  C   UNL     1      10.015   1.389  23.212  0.00  0.00    +0.080 A 
ATOM      2  C   UNL     1      10.219   0.325  24.107  0.00  0.00    +0.129 A 
ATOM      3  C   UNL     1      10.109  -1.001  23.673  0.00  0.00    +0.046 A 
ATOM      4  C   UNL     1       9.803  -1.277  22.340  0.00  0.00    +0.004 A 
ATOM      5  C   UNL     1       9.609  -0.233  21.439  0.00  0.00    +0.001 A 
ATOM      6  C   UNL     1       9.713   1.090  21.873  0.00  0.00    +0.017 A 
ENDROOT
BRANCH   1   9
ATOM      7  N   UNL     1      10.995   3.595  22.895  0.00  0.00    -0.193 N 
ATOM      8  H   UNL     1      11.586   3.190  22.172  0.00  0.00    +0.183 HD
ATOM      9  C   UNL     1      10.085   2.839  23.589  0.00  0.00    +0.270 C 
ATOM     10  O   UNL     1       9.357   3.274  24.475  0.00  0.00    -0.268 OA
BRANCH   7  11
ATOM     11  O   UNL     1      11.123   4.953  23.234  0.00  0.00    -0.295 OA
ATOM     12  H   UNL     1      12.064   5.139  23.077  0.00  0.00    +0.241 HD
ENDBRANCH   7  11
ENDBRANCH   1   9
BRANCH   2  13
ATOM     13  O   UNL     1      10.531   0.557  25.423  0.00  0.00    -0.506 OA
ATOM     14  H   UNL     1      11.100  -0.170  25.737  0.00  0.00    +0.292 HD
ENDBRANCH   2  13
TORSDOF 3
ENDMDL
MODEL 3
REMARK VINA RESULT:      -4.9      2.421      3.949
REMARK  Name = 
REMARK  3 active torsions:
REMARK  status: ('A' for Active; 'I' for Inactive)
REMARK    1  A    between atoms: O_1  and  N_2
REMARK    2  A    between atoms: C_3  and  C_5
REMARK    3  A    between atoms: C_10  and  O_11
REMARK                            x       y       z     vdW  Elec       q    Type
REMARK                         _______ _______ _______ _____ _____    ______ ____
ROOT
ATOM      1  C   UNL     1       9.803  -0.442  23.955  0.00  0.00    +0.080 A 
ATOM      2  C   UNL     1       9.956  -1.671  23.293  0.00  0.00    +0.129 A 
ATOM      3  C   UNL     1       9.508  -2.858  23.884  0.00  0.00    +0.046 A 
ATOM      4  C   UNL     1       8.895  -2.827  25.137  0.00  0.00    +0.004 A 
ATOM      5  C   UNL     1       8.726  -1.615  25.800  0.00  0.00    +0.001 A 
ATOM      6  C   UNL     1       9.178  -0.431  25.213  0.00  0.00    +0.017 A 
ENDROOT
BRANCH   1   9
ATOM      7  N   UNL     1       9.909   1.160  22.124  0.00  0.00    -0.193 N 
ATOM      8  H   UNL     1       9.356   0.509  21.569  0.00  0.00    +0.183 HD
ATOM      9  C   UNL     1      10.273   0.876  23.415  0.00  0.00    +0.270 C 
ATOM     10  O   UNL     1      10.946   1.619  24.123  0.00  0.00    -0.268 OA
BRANCH   7  11
ATOM     11  O   UNL     1      10.353   2.369  21.560  0.00  0.00    -0.295 OA
ATOM     12  H   UNL     1       9.757   3.032  21.947  0.00  0.00    +0.241 HD
ENDBRANCH   7  11
ENDBRANCH   1   9
BRANCH   2  13
ATOM     13  O   UNL     1      10.545  -1.741  22.055  0.00  0.00    -0.506 OA
ATOM     14  H   UNL     1      10.571  -0.843  21.676  0.00  0.00    +0.292 HD
ENDBRANCH   2  13
TORSDOF 3
ENDMDL
MODEL 4
REMARK VINA RESULT:      -4.9      3.597      4.895
REMARK  Name = 
REMARK  3 active torsions:
REMARK  status: ('A' for Active; 'I' for Inactive)
REMARK    1  A    between atoms: O_1  and  N_2
REMARK    2  A    between atoms: C_3  and  C_5
REMARK    3  A    between atoms: C_10  and  O_11
REMARK                            x       y       z     vdW  Elec       q    Type
REMARK                         _______ _______ _______ _____ _____    ______ ____
ROOT
ATOM      1  C   UNL     1      10.007   1.890  23.547  0.00  0.00    +0.080 A 
ATOM      2  C   UNL     1       9.760   1.252  22.319  0.00  0.00    +0.129 A 
ATOM      3  C   UNL     1       9.818  -0.142  22.217  0.00  0.00    +0.046 A 
ATOM      4  C   UNL     1      10.114  -0.914  23.341  0.00  0.00    +0.004 A 
ATOM      5  C   UNL     1      10.350  -0.297  24.568  0.00  0.00    +0.001 A 
ATOM      6  C   UNL     1      10.297   1.095  24.669  0.00  0.00    +0.017 A 
ENDROOT
BRANCH   1   9
ATOM      7  N   UNL     1      10.919   4.087  23.030  0.00  0.00    -0.193 N 
ATOM      8  H   UNL     1      11.576   3.628  22.402  0.00  0.00    +0.183 HD
ATOM      9  C   UNL     1       9.993   3.375  23.749  0.00  0.00    +0.270 C 
ATOM     10  O   UNL     1       9.187   3.877  24.526  0.00  0.00    -0.268 OA
BRANCH   7  11
ATOM     11  O   UNL     1      10.969   5.481  23.210  0.00  0.00    -0.295 OA
ATOM     12  H   UNL     1      11.396   5.799  22.397  0.00  0.00    +0.241 HD
ENDBRANCH   7  11
ENDBRANCH   1   9
BRANCH   2  13
ATOM     13  O   UNL     1       9.457   1.977  21.194  0.00  0.00    -0.506 OA
ATOM     14  H   UNL     1       8.497   1.913  21.037  0.00  0.00    +0.292 HD
ENDBRANCH   2  13
TORSDOF 3
ENDMDL
MODEL 5
REMARK VINA RESULT:      -4.8      1.682      2.530
REMARK  Name = 
REMARK  3 active torsions:
REMARK  status: ('A' for Active; 'I' for Inactive)
REMARK    1  A    between atoms: O_1  and  N_2
REMARK    2  A    between atoms: C_3  and  C_5
REMARK    3  A    between atoms: C_10  and  O_11
REMARK                            x       y       z     vdW  Elec       q    Type
REMARK                         _______ _______ _______ _____ _____    ______ ____
ROOT
ATOM      1  C   UNL     1       9.782   0.069  23.154  0.00  0.00    +0.080 A 
ATOM      2  C   UNL     1       9.976   0.912  24.261  0.00  0.00    +0.129 A 
ATOM      3  C   UNL     1       9.652   2.272  24.186  0.00  0.00    +0.046 A 
ATOM      4  C   UNL     1       9.124   2.800  23.007  0.00  0.00    +0.004 A 
ATOM      5  C   UNL     1       8.915   1.974  21.905  0.00  0.00    +0.001 A 
ATOM      6  C   UNL     1       9.242   0.619  21.979  0.00  0.00    +0.017 A 
ENDROOT
BRANCH   1   9
ATOM      7  N   UNL     1       9.651  -2.133  24.185  0.00  0.00    -0.193 N 
ATOM      8  H   UNL     1       9.109  -1.711  24.936  0.00  0.00    +0.183 HD
ATOM      9  C   UNL     1      10.121  -1.392  23.131  0.00  0.00    +0.270 C 
ATOM     10  O   UNL     1      10.787  -1.847  22.207  0.00  0.00    -0.268 OA
BRANCH   7  11
ATOM     11  O   UNL     1       9.971  -3.502  24.226  0.00  0.00    -0.295 OA
ATOM     12  H   UNL     1       9.911  -3.720  25.171  0.00  0.00    +0.241 HD
ENDBRANCH   7  11
ENDBRANCH   1   9
BRANCH   2  13
ATOM     13  O   UNL     1      10.484   0.427  25.440  0.00  0.00    -0.506 OA
ATOM     14  H   UNL     1      10.369  -0.540  25.450  0.00  0.00    +0.292 HD
ENDBRANCH   2  13
TORSDOF 3
ENDMDL
MODEL 6
REMARK VINA RESULT:      -4.6      1.874      2.417
REMARK  Name = 
REMARK  3 active torsions:
REMARK  status: ('A' for Active; 'I' for Inactive)
REMARK    1  A    between atoms: O_1  and  N_2
REMARK    2  A    between atoms: C_3  and  C_5
REMARK    3  A    between atoms: C_10  and  O_11
REMARK                            x       y       z     vdW  Elec       q    Type
REMARK                         _______ _______ _______ _____ _____    ______ ____
ROOT
ATOM      1  C   UNL     1       8.683  -0.578  22.604  0.00  0.00    +0.080 A 
ATOM      2  C   UNL     1       7.466   0.120  22.690  0.00  0.00    +0.129 A 
ATOM      3  C   UNL     1       7.400   1.478  22.358  0.00  0.00    +0.046 A 
ATOM      4  C   UNL     1       8.545   2.150  21.929  0.00  0.00    +0.004 A 
ATOM      5  C   UNL     1       9.756   1.469  21.828  0.00  0.00    +0.001 A 
ATOM      6  C   UNL     1       9.823   0.115  22.164  0.00  0.00    +0.017 A 
ENDROOT
BRANCH   1   9
ATOM      7  N   UNL     1       9.844  -2.301  23.872  0.00  0.00    -0.193 N 
ATOM      8  H   UNL     1      10.423  -1.566  24.274  0.00  0.00    +0.183 HD
ATOM      9  C   UNL     1       8.858  -2.023  22.961  0.00  0.00    +0.270 C 
ATOM     10  O   UNL     1       8.140  -2.871  22.438  0.00  0.00    -0.268 OA
BRANCH   7  11
ATOM     11  O   UNL     1      10.071  -3.646  24.214  0.00  0.00    -0.295 OA
ATOM     12  H   UNL     1       9.222  -4.076  24.017  0.00  0.00    +0.241 HD
ENDBRANCH   7  11
ENDBRANCH   1   9
BRANCH   2  13
ATOM     13  O   UNL     1       6.317  -0.508  23.098  0.00  0.00    -0.506 OA
ATOM     14  H   UNL     1       5.931   0.002  23.833  0.00  0.00    +0.292 HD
ENDBRANCH   2  13
TORSDOF 3
ENDMDL
MODEL 7
REMARK VINA RESULT:      -4.6      1.858      2.232
REMARK  Name = 
REMARK  3 active torsions:
REMARK  status: ('A' for Active; 'I' for Inactive)
REMARK    1  A    between atoms: O_1  and  N_2
REMARK    2  A    between atoms: C_3  and  C_5
REMARK    3  A    between atoms: C_10  and  O_11
REMARK                            x       y       z     vdW  Elec       q    Type
REMARK                         _______ _______ _______ _____ _____    ______ ____
ROOT
ATOM      1  C   UNL     1       8.514  -1.323  22.829  0.00  0.00    +0.080 A 
ATOM      2  C   UNL     1       9.449  -0.783  21.931  0.00  0.00    +0.129 A 
ATOM      3  C   UNL     1       9.290   0.516  21.433  0.00  0.00    +0.046 A 
ATOM      4  C   UNL     1       8.201   1.289  21.833  0.00  0.00    +0.004 A 
ATOM      5  C   UNL     1       7.271   0.772  22.732  0.00  0.00    +0.001 A 
ATOM      6  C   UNL     1       7.427  -0.525  23.225  0.00  0.00    +0.017 A 
ENDROOT
BRANCH   1   9
ATOM      7  N   UNL     1       9.726  -3.015  24.092  0.00  0.00    -0.193 N 
ATOM      8  H   UNL     1      10.478  -2.339  24.209  0.00  0.00    +0.183 HD
ATOM      9  C   UNL     1       8.585  -2.709  23.396  0.00  0.00    +0.270 C 
ATOM     10  O   UNL     1       7.655  -3.489  23.216  0.00  0.00    -0.268 OA
BRANCH   7  11
ATOM     11  O   UNL     1       9.856  -4.314  24.614  0.00  0.00    -0.295 OA
ATOM     12  H   UNL     1       9.998  -4.163  25.564  0.00  0.00    +0.241 HD
ENDBRANCH   7  11
ENDBRANCH   1   9
BRANCH   2  13
ATOM     13  O   UNL     1      10.539  -1.510  21.521  0.00  0.00    -0.506 OA
ATOM     14  H   UNL     1      10.350  -2.455  21.665  0.00  0.00    +0.292 HD
ENDBRANCH   2  13
TORSDOF 3
ENDMDL
MODEL 8
REMARK VINA RESULT:      -4.6      3.188      4.162
REMARK  Name = 
REMARK  3 active torsions:
REMARK  status: ('A' for Active; 'I' for Inactive)
REMARK    1  A    between atoms: O_1  and  N_2
REMARK    2  A    between atoms: C_3  and  C_5
REMARK    3  A    between atoms: C_10  and  O_11
REMARK                            x       y       z     vdW  Elec       q    Type
REMARK                         _______ _______ _______ _____ _____    ______ ____
ROOT
ATOM      1  C   UNL     1       8.811  -3.852  24.309  0.00  0.00    +0.080 A 
ATOM      2  C   UNL     1       7.746  -3.966  23.400  0.00  0.00    +0.129 A 
ATOM      3  C   UNL     1       7.612  -3.058  22.343  0.00  0.00    +0.046 A 
ATOM      4  C   UNL     1       8.545  -2.033  22.180  0.00  0.00    +0.004 A 
ATOM      5  C   UNL     1       9.612  -1.914  23.067  0.00  0.00    +0.001 A 
ATOM      6  C   UNL     1       9.743  -2.817  24.124  0.00  0.00    +0.017 A 
ENDROOT
BRANCH   1   9
ATOM      7  N   UNL     1       7.919  -5.001  26.263  0.00  0.00    -0.193 N 
ATOM      8  H   UNL     1       7.016  -4.583  26.053  0.00  0.00    +0.183 HD
ATOM      9  C   UNL     1       9.022  -4.760  25.484  0.00  0.00    +0.270 C 
ATOM     10  O   UNL     1      10.136  -5.229  25.698  0.00  0.00    -0.268 OA
BRANCH   7  11
ATOM     11  O   UNL     1       8.074  -5.818  27.396  0.00  0.00    -0.295 OA
ATOM     12  H   UNL     1       8.089  -6.717  27.027  0.00  0.00    +0.241 HD
ENDBRANCH   7  11
ENDBRANCH   1   9
BRANCH   2  13
ATOM     13  O   UNL     1       6.814  -4.966  23.522  0.00  0.00    -0.506 OA
ATOM     14  H   UNL     1       5.932  -4.587  23.355  0.00  0.00    +0.292 HD
ENDBRANCH   2  13
TORSDOF 3
ENDMDL
MODEL 9
REMARK VINA RESULT:      -4.5      2.838      4.402
REMARK  Name = 
REMARK  3 active torsions:
REMARK  status: ('A' for Active; 'I' for Inactive)
REMARK    1  A    between atoms: O_1  and  N_2
REMARK    2  A    between atoms: C_3  and  C_5
REMARK    3  A    between atoms: C_10  and  O_11
REMARK                            x       y       z     vdW  Elec       q    Type
REMARK                         _______ _______ _______ _____ _____    ______ ____
ROOT
ATOM      1  C   UNL     1       9.740  -0.418  24.152  0.00  0.00    +0.080 A 
ATOM      2  C   UNL     1       9.032  -0.478  25.363  0.00  0.00    +0.129 A 
ATOM      3  C   UNL     1       8.600  -1.707  25.875  0.00  0.00    +0.046 A 
ATOM      4  C   UNL     1       8.880  -2.888  25.187  0.00  0.00    +0.004 A 
ATOM      5  C   UNL     1       9.591  -2.846  23.990  0.00  0.00    +0.001 A 
ATOM      6  C   UNL     1      10.017  -1.619  23.476  0.00  0.00    +0.017 A 
ENDROOT
BRANCH   1   9
ATOM      7  N   UNL     1       9.831   1.052  22.213  0.00  0.00    -0.193 N 
ATOM      8  H   UNL     1       9.256   0.375  21.716  0.00  0.00    +0.183 HD
ATOM      9  C   UNL     1      10.220   0.851  23.512  0.00  0.00    +0.270 C 
ATOM     10  O   UNL     1      10.921   1.628  24.153  0.00  0.00    -0.268 OA
BRANCH   7  11
ATOM     11  O   UNL     1      10.284   2.211  21.558  0.00  0.00    -0.295 OA
ATOM     12  H   UNL     1      11.245   2.192  21.702  0.00  0.00    +0.241 HD
ENDBRANCH   7  11
ENDBRANCH   1   9
BRANCH   2  13
ATOM     13  O   UNL     1       8.746   0.661  26.074  0.00  0.00    -0.506 OA
ATOM     14  H   UNL     1       7.931   1.053  25.713  0.00  0.00    +0.292 HD
ENDBRANCH   2  13
TORSDOF 3
ENDMDL
