MODEL 1
REMARK VINA RESULT:      -7.0      0.000      0.000
REMARK  Name = 
REMARK  15 active torsions:
REMARK  status: ('A' for Active; 'I' for Inactive)
REMARK    1  A    between atoms: C_2  and  C_3
REMARK    2  A    between atoms: C_2  and  C_4
REMARK    3  A    between atoms: C_2  and  C_6
REMARK    4  A    between atoms: C_4  and  C_5
REMARK    5  A    between atoms: C_6  and  N_8
REMARK    6  A    between atoms: C_6  and  C_22
REMARK    7  A    between atoms: C_9  and  C_11
REMARK    8  A    between atoms: C_14  and  C_16
REMARK    9  A    between atoms: N_18  and  C_19
REMARK   10  A    between atoms: C_19  and  C_20
REMARK   11  A    between atoms: C_20  and  C_21
REMARK   12  A    between atoms: C_28  and  C_30
REMARK   13  A    between atoms: C_30  and  O_32
REMARK   14  A    between atoms: O_32  and  C_33
REMARK   15  A    between atoms: C_33  and  C_34
REMARK                            x       y       z     vdW  Elec       q    Type
REMARK                         _______ _______ _______ _____ _____    ______ ____
ROOT
ATOM      1  C   UNL     1       6.985  -3.695  23.009  0.00  0.00    +0.162 C 
ENDROOT
BRANCH   1   2
ATOM      2  C   UNL     1       6.682  -2.180  23.120  0.00  0.00    +0.237 C 
ATOM      3  N   UNL     1       7.628  -1.270  22.684  0.00  0.00    -0.286 N 
ATOM      4  C   UNL     1       8.984  -1.509  22.164  0.00  0.00    +0.185 C 
ATOM      5  C   UNL     1       9.256  -0.287  21.267  0.00  0.00    +0.035 C 
ATOM      6  C   UNL     1       8.102   0.688  21.502  0.00  0.00    +0.021 C 
ATOM      7  C   UNL     1       7.367   0.154  22.718  0.00  0.00    +0.109 C 
ATOM      8  O   UNL     1       5.598  -1.810  23.584  0.00  0.00    -0.274 OA
BRANCH   4   9
ATOM      9  C   UNL     1      10.131  -1.608  23.194  0.00  0.00    +0.328 C 
ATOM     10  O   UNL     1      10.439  -2.669  23.727  0.00  0.00    -0.249 OA
BRANCH   9  11
ATOM     11  O   UNL     1      10.762  -0.425  23.401  0.00  0.00    -0.459 OA
BRANCH  11  12
ATOM     12  C   UNL     1      10.540   0.201  24.678  0.00  0.00    +0.267 C 
BRANCH  12  13
ATOM     13  C   UNL     1      10.077   1.621  24.446  0.00  0.00    -0.010 A 
ATOM     14  C   UNL     1       8.886   2.094  25.017  0.00  0.00    +0.007 A 
ATOM     15  C   UNL     1       8.502   3.427  24.851  0.00  0.00    +0.000 A 
ATOM     16  C   UNL     1       9.299   4.297  24.110  0.00  0.00    +0.000 A 
ATOM     17  C   UNL     1      10.468   3.831  23.512  0.00  0.00    +0.000 A 
ATOM     18  C   UNL     1      10.855   2.499  23.678  0.00  0.00    +0.007 A 
ENDBRANCH  12  13
ENDBRANCH  11  12
ENDBRANCH   9  11
ENDBRANCH   4   9
ENDBRANCH   1   2
BRANCH   1  19
ATOM     19  N   UNL     1       7.055  -4.223  24.379  0.00  0.00    -0.302 N 
ATOM     20  H   UNL     1       6.336  -3.952  25.037  0.00  0.00    +0.150 HD
ATOM     21  C   UNL     1       8.057  -5.080  24.755  0.00  0.00    +0.246 C 
ATOM     22  O   UNL     1       8.992  -5.393  24.033  0.00  0.00    -0.273 OA
BRANCH  21  23
ATOM     23  C   UNL     1       7.972  -5.652  26.115  0.00  0.00    +0.242 C 
ATOM     24  C   UNL     1       7.055  -4.956  27.095  0.00  0.00    +0.242 C 
ATOM     25  O   UNL     1       8.490  -4.889  27.223  0.00  0.00    -0.349 OA
BRANCH  24  26
ATOM     26  C   UNL     1       6.299  -5.786  28.059  0.00  0.00    +0.245 C 
ATOM     27  N   UNL     1       4.941  -5.837  27.863  0.00  0.00    -0.313 N 
ATOM     28  H   UNL     1       4.538  -5.237  27.152  0.00  0.00    +0.149 HD
ATOM     29  O   UNL     1       6.895  -6.393  28.937  0.00  0.00    -0.273 OA
BRANCH  27  30
ATOM     30  C   UNL     1       4.067  -6.618  28.714  0.00  0.00    +0.104 C 
BRANCH  30  31
ATOM     31  C   UNL     1       2.677  -6.822  28.114  0.00  0.00    +0.015 C 
ATOM     32  C   UNL     1       2.634  -6.527  26.623  0.00  0.00    +0.005 C 
ENDBRANCH  30  31
ENDBRANCH  27  30
ENDBRANCH  24  26
ENDBRANCH  21  23
ENDBRANCH   1  19
BRANCH   1  33
ATOM     33  C   UNL     1       5.907  -4.475  22.194  0.00  0.00    +0.015 C 
ATOM     34  C   UNL     1       6.548  -5.384  21.138  0.00  0.00    +0.010 C 
BRANCH  33  35
ATOM     35  C   UNL     1       4.994  -5.281  23.156  0.00  0.00    +0.002 C 
ATOM     36  C   UNL     1       3.632  -4.652  23.422  0.00  0.00    +0.004 C 
ENDBRANCH  33  35
ENDBRANCH   1  33
TORSDOF 12
ENDMDL
MODEL 2
REMARK VINA RESULT:      -6.9      2.088      5.861
REMARK  Name = 
REMARK  15 active torsions:
REMARK  status: ('A' for Active; 'I' for Inactive)
REMARK    1  A    between atoms: C_2  and  C_3
REMARK    2  A    between atoms: C_2  and  C_4
REMARK    3  A    between atoms: C_2  and  C_6
REMARK    4  A    between atoms: C_4  and  C_5
REMARK    5  A    between atoms: C_6  and  N_8
REMARK    6  A    between atoms: C_6  and  C_22
REMARK    7  A    between atoms: C_9  and  C_11
REMARK    8  A    between atoms: C_14  and  C_16
REMARK    9  A    between atoms: N_18  and  C_19
REMARK   10  A    between atoms: C_19  and  C_20
REMARK   11  A    between atoms: C_20  and  C_21
REMARK   12  A    between atoms: C_28  and  C_30
REMARK   13  A    between atoms: C_30  and  O_32
REMARK   14  A    between atoms: O_32  and  C_33
REMARK   15  A    between atoms: C_33  and  C_34
REMARK                            x       y       z     vdW  Elec       q    Type
REMARK                         _______ _______ _______ _____ _____    ______ ____
ROOT
ATOM      1  C   UNL     1       6.036  -4.928  26.096  0.00  0.00    +0.162 C 
ENDROOT
BRANCH   1   2
ATOM      2  C   UNL     1       5.236  -5.248  24.809  0.00  0.00    +0.237 C 
ATOM      3  N   UNL     1       5.851  -5.101  23.579  0.00  0.00    -0.286 N 
ATOM      4  C   UNL     1       7.197  -4.596  23.262  0.00  0.00    +0.185 C 
ATOM      5  C   UNL     1       7.540  -5.270  21.921  0.00  0.00    +0.035 C 
ATOM      6  C   UNL     1       6.262  -5.965  21.448  0.00  0.00    +0.021 C 
ATOM      7  C   UNL     1       5.161  -5.439  22.352  0.00  0.00    +0.109 C 
ATOM      8  O   UNL     1       4.068  -5.641  24.901  0.00  0.00    -0.274 OA
BRANCH   4   9
ATOM      9  C   UNL     1       7.356  -3.070  23.081  0.00  0.00    +0.328 C 
ATOM     10  O   UNL     1       6.399  -2.303  23.134  0.00  0.00    -0.249 OA
BRANCH   9  11
ATOM     11  O   UNL     1       8.646  -2.688  22.905  0.00  0.00    -0.459 OA
BRANCH  11  12
ATOM     12  C   UNL     1       8.908  -1.831  21.778  0.00  0.00    +0.267 C 
BRANCH  12  13
ATOM     13  C   UNL     1       9.503  -0.537  22.283  0.00  0.00    -0.010 A 
ATOM     14  C   UNL     1       9.193   0.687  21.671  0.00  0.00    +0.007 A 
ATOM     15  C   UNL     1       9.696   1.884  22.187  0.00  0.00    +0.000 A 
ATOM     16  C   UNL     1      10.517   1.870  23.312  0.00  0.00    +0.000 A 
ATOM     17  C   UNL     1      10.857   0.657  23.910  0.00  0.00    +0.000 A 
ATOM     18  C   UNL     1      10.353  -0.540  23.397  0.00  0.00    +0.007 A 
ENDBRANCH  12  13
ENDBRANCH  11  12
ENDBRANCH   9  11
ENDBRANCH   4   9
ENDBRANCH   1   2
BRANCH   1  19
ATOM     19  N   UNL     1       6.099  -3.464  26.212  0.00  0.00    -0.302 N 
ATOM     20  H   UNL     1       5.256  -2.931  26.044  0.00  0.00    +0.150 HD
ATOM     21  C   UNL     1       7.265  -2.833  26.561  0.00  0.00    +0.246 C 
ATOM     22  O   UNL     1       8.333  -3.409  26.710  0.00  0.00    -0.273 OA
BRANCH  21  23
ATOM     23  C   UNL     1       7.197  -1.372  26.771  0.00  0.00    +0.242 C 
ATOM     24  C   UNL     1       7.998  -0.506  25.826  0.00  0.00    +0.242 C 
ATOM     25  O   UNL     1       8.384  -0.677  27.206  0.00  0.00    -0.349 OA
BRANCH  24  26
ATOM     26  C   UNL     1       7.427   0.794  25.410  0.00  0.00    +0.245 C 
ATOM     27  N   UNL     1       7.849   1.885  26.127  0.00  0.00    -0.313 N 
ATOM     28  H   UNL     1       8.429   1.726  26.942  0.00  0.00    +0.149 HD
ATOM     29  O   UNL     1       6.658   0.844  24.460  0.00  0.00    -0.273 OA
BRANCH  27  30
ATOM     30  C   UNL     1       7.391   3.228  25.831  0.00  0.00    +0.104 C 
BRANCH  30  31
ATOM     31  C   UNL     1       8.446   4.075  25.121  0.00  0.00    +0.015 C 
ATOM     32  C   UNL     1       7.895   4.794  23.900  0.00  0.00    +0.005 C 
ENDBRANCH  30  31
ENDBRANCH  27  30
ENDBRANCH  24  26
ENDBRANCH  21  23
ENDBRANCH   1  19
BRANCH   1  33
ATOM     33  C   UNL     1       5.392  -5.535  27.381  0.00  0.00    +0.015 C 
ATOM     34  C   UNL     1       6.459  -6.029  28.366  0.00  0.00    +0.010 C 
BRANCH  33  35
ATOM     35  C   UNL     1       4.448  -4.497  28.043  0.00  0.00    +0.002 C 
ATOM     36  C   UNL     1       4.557  -4.409  29.560  0.00  0.00    +0.004 C 
ENDBRANCH  33  35
ENDBRANCH   1  33
TORSDOF 12
ENDMDL
MODEL 3
REMARK VINA RESULT:      -6.6      2.552      8.970
REMARK  Name = 
REMARK  15 active torsions:
REMARK  status: ('A' for Active; 'I' for Inactive)
REMARK    1  A    between atoms: C_2  and  C_3
REMARK    2  A    between atoms: C_2  and  C_4
REMARK    3  A    between atoms: C_2  and  C_6
REMARK    4  A    between atoms: C_4  and  C_5
REMARK    5  A    between atoms: C_6  and  N_8
REMARK    6  A    between atoms: C_6  and  C_22
REMARK    7  A    between atoms: C_9  and  C_11
REMARK    8  A    between atoms: C_14  and  C_16
REMARK    9  A    between atoms: N_18  and  C_19
REMARK   10  A    between atoms: C_19  and  C_20
REMARK   11  A    between atoms: C_20  and  C_21
REMARK   12  A    between atoms: C_28  and  C_30
REMARK   13  A    between atoms: C_30  and  O_32
REMARK   14  A    between atoms: O_32  and  C_33
REMARK   15  A    between atoms: C_33  and  C_34
REMARK                            x       y       z     vdW  Elec       q    Type
REMARK                         _______ _______ _______ _____ _____    ______ ____
ROOT
ATOM      1  C   UNL     1       8.070  -0.880  24.022  0.00  0.00    +0.162 C 
ENDROOT
BRANCH   1   2
ATOM      2  C   UNL     1       7.296  -1.765  25.030  0.00  0.00    +0.237 C 
ATOM      3  N   UNL     1       7.350  -3.141  24.898  0.00  0.00    -0.286 N 
ATOM      4  C   UNL     1       8.002  -3.955  23.859  0.00  0.00    +0.185 C 
ATOM      5  C   UNL     1       8.295  -5.291  24.565  0.00  0.00    +0.035 C 
ATOM      6  C   UNL     1       7.593  -5.226  25.921  0.00  0.00    +0.021 C 
ATOM      7  C   UNL     1       6.687  -4.011  25.847  0.00  0.00    +0.109 C 
ATOM      8  O   UNL     1       6.655  -1.231  25.941  0.00  0.00    -0.274 OA
BRANCH   4   9
ATOM      9  C   UNL     1       7.185  -4.260  22.583  0.00  0.00    +0.328 C 
ATOM     10  O   UNL     1       6.887  -3.387  21.774  0.00  0.00    -0.249 OA
BRANCH   9  11
ATOM     11  O   UNL     1       6.884  -5.576  22.448  0.00  0.00    -0.459 OA
BRANCH  11  12
ATOM     12  C   UNL     1       5.536  -5.882  22.044  0.00  0.00    +0.267 C 
BRANCH  12  13
ATOM     13  C   UNL     1       4.649  -5.865  23.267  0.00  0.00    -0.010 A 
ATOM     14  C   UNL     1       4.749  -6.865  24.246  0.00  0.00    +0.007 A 
ATOM     15  C   UNL     1       3.970  -6.802  25.404  0.00  0.00    +0.000 A 
ATOM     16  C   UNL     1       3.081  -5.746  25.593  0.00  0.00    +0.000 A 
ATOM     17  C   UNL     1       2.952  -4.763  24.614  0.00  0.00    +0.000 A 
ATOM     18  C   UNL     1       3.730  -4.823  23.456  0.00  0.00    +0.007 A 
ENDBRANCH  12  13
ENDBRANCH  11  12
ENDBRANCH   9  11
ENDBRANCH   4   9
ENDBRANCH   1   2
BRANCH   1  19
ATOM     19  N   UNL     1       7.785   0.520  24.369  0.00  0.00    -0.302 N 
ATOM     20  H   UNL     1       7.801   0.787  25.345  0.00  0.00    +0.150 HD
ATOM     21  C   UNL     1       7.525   1.450  23.396  0.00  0.00    +0.246 C 
ATOM     22  O   UNL     1       7.423   1.181  22.208  0.00  0.00    -0.273 OA
BRANCH  21  23
ATOM     23  C   UNL     1       7.372   2.853  23.835  0.00  0.00    +0.242 C 
ATOM     24  C   UNL     1       8.305   3.335  24.921  0.00  0.00    +0.242 C 
ATOM     25  O   UNL     1       6.902   3.113  25.173  0.00  0.00    -0.349 OA
BRANCH  24  26
ATOM     26  C   UNL     1       8.798   4.730  24.855  0.00  0.00    +0.245 C 
ATOM     27  N   UNL     1       9.995   4.906  24.206  0.00  0.00    -0.313 N 
ATOM     28  H   UNL     1      10.505   4.081  23.912  0.00  0.00    +0.149 HD
ATOM     29  O   UNL     1       8.129   5.635  25.333  0.00  0.00    -0.273 OA
BRANCH  27  30
ATOM     30  C   UNL     1      10.600   6.213  24.045  0.00  0.00    +0.104 C 
BRANCH  30  31
ATOM     31  C   UNL     1      12.122   6.185  24.176  0.00  0.00    +0.015 C 
ATOM     32  C   UNL     1      12.770   5.159  23.260  0.00  0.00    +0.005 C 
ENDBRANCH  30  31
ENDBRANCH  27  30
ENDBRANCH  24  26
ENDBRANCH  21  23
ENDBRANCH   1  19
BRANCH   1  33
ATOM     33  C   UNL     1       9.610  -1.129  24.048  0.00  0.00    +0.015 C 
ATOM     34  C   UNL     1      10.212  -1.086  22.637  0.00  0.00    +0.010 C 
BRANCH  33  35
ATOM     35  C   UNL     1      10.299  -0.105  24.989  0.00  0.00    +0.002 C 
ATOM     36  C   UNL     1      11.154   0.939  24.281  0.00  0.00    +0.004 C 
ENDBRANCH  33  35
ENDBRANCH   1  33
TORSDOF 12
ENDMDL
MODEL 4
REMARK VINA RESULT:      -6.5      2.392      6.265
REMARK  Name = 
REMARK  15 active torsions:
REMARK  status: ('A' for Active; 'I' for Inactive)
REMARK    1  A    between atoms: C_2  and  C_3
REMARK    2  A    between atoms: C_2  and  C_4
REMARK    3  A    between atoms: C_2  and  C_6
REMARK    4  A    between atoms: C_4  and  C_5
REMARK    5  A    between atoms: C_6  and  N_8
REMARK    6  A    between atoms: C_6  and  C_22
REMARK    7  A    between atoms: C_9  and  C_11
REMARK    8  A    between atoms: C_14  and  C_16
REMARK    9  A    between atoms: N_18  and  C_19
REMARK   10  A    between atoms: C_19  and  C_20
REMARK   11  A    between atoms: C_20  and  C_21
REMARK   12  A    between atoms: C_28  and  C_30
REMARK   13  A    between atoms: C_30  and  O_32
REMARK   14  A    between atoms: O_32  and  C_33
REMARK   15  A    between atoms: C_33  and  C_34
REMARK                            x       y       z     vdW  Elec       q    Type
REMARK                         _______ _______ _______ _____ _____    ______ ____
ROOT
ATOM      1  C   UNL     1       4.739  -3.802  25.587  0.00  0.00    +0.162 C 
ENDROOT
BRANCH   1   2
ATOM      2  C   UNL     1       4.493  -4.517  24.235  0.00  0.00    +0.237 C 
ATOM      3  N   UNL     1       5.559  -4.719  23.377  0.00  0.00    -0.286 N 
ATOM      4  C   UNL     1       6.959  -4.284  23.506  0.00  0.00    +0.185 C 
ATOM      5  C   UNL     1       7.745  -5.313  22.674  0.00  0.00    +0.035 C 
ATOM      6  C   UNL     1       6.706  -6.160  21.940  0.00  0.00    +0.021 C 
ATOM      7  C   UNL     1       5.388  -5.430  22.126  0.00  0.00    +0.109 C 
ATOM      8  O   UNL     1       3.355  -4.906  23.951  0.00  0.00    -0.274 OA
BRANCH   4   9
ATOM      9  C   UNL     1       7.314  -2.875  22.980  0.00  0.00    +0.328 C 
ATOM     10  O   UNL     1       6.466  -2.120  22.512  0.00  0.00    -0.249 OA
BRANCH   9  11
ATOM     11  O   UNL     1       8.626  -2.567  23.132  0.00  0.00    -0.459 OA
BRANCH  11  12
ATOM     12  C   UNL     1       9.250  -1.876  22.034  0.00  0.00    +0.267 C 
BRANCH  12  13
ATOM     13  C   UNL     1       9.736  -0.532  22.521  0.00  0.00    -0.010 A 
ATOM     14  C   UNL     1       9.624   0.612  21.716  0.00  0.00    +0.007 A 
ATOM     15  C   UNL     1      10.016   1.861  22.202  0.00  0.00    +0.000 A 
ATOM     16  C   UNL     1      10.528   1.981  23.493  0.00  0.00    +0.000 A 
ATOM     17  C   UNL     1      10.671   0.847  24.291  0.00  0.00    +0.000 A 
ATOM     18  C   UNL     1      10.279  -0.403  23.807  0.00  0.00    +0.007 A 
ENDBRANCH  12  13
ENDBRANCH  11  12
ENDBRANCH   9  11
ENDBRANCH   4   9
ENDBRANCH   1   2
BRANCH   1  19
ATOM     19  N   UNL     1       4.861  -2.366  25.300  0.00  0.00    -0.302 N 
ATOM     20  H   UNL     1       4.215  -1.950  24.642  0.00  0.00    +0.150 HD
ATOM     21  C   UNL     1       5.812  -1.600  25.923  0.00  0.00    +0.246 C 
ATOM     22  O   UNL     1       6.665  -2.050  26.674  0.00  0.00    -0.273 OA
BRANCH  21  23
ATOM     23  C   UNL     1       5.776  -0.145  25.661  0.00  0.00    +0.242 C 
ATOM     24  C   UNL     1       6.988   0.460  24.991  0.00  0.00    +0.242 C 
ATOM     25  O   UNL     1       6.686   0.712  26.379  0.00  0.00    -0.349 OA
BRANCH  24  26
ATOM     26  C   UNL     1       6.778   1.551  24.014  0.00  0.00    +0.245 C 
ATOM     27  N   UNL     1       6.932   2.824  24.504  0.00  0.00    -0.313 N 
ATOM     28  H   UNL     1       7.074   2.939  25.501  0.00  0.00    +0.149 HD
ATOM     29  O   UNL     1       6.519   1.283  22.849  0.00  0.00    -0.273 OA
BRANCH  27  30
ATOM     30  C   UNL     1       6.774   3.997  23.667  0.00  0.00    +0.104 C 
BRANCH  30  31
ATOM     31  C   UNL     1       8.033   4.861  23.608  0.00  0.00    +0.015 C 
ATOM     32  C   UNL     1       8.793   4.879  24.925  0.00  0.00    +0.005 C 
ENDBRANCH  30  31
ENDBRANCH  27  30
ENDBRANCH  24  26
ENDBRANCH  21  23
ENDBRANCH   1  19
BRANCH   1  33
ATOM     33  C   UNL     1       3.594  -4.041  26.620  0.00  0.00    +0.015 C 
ATOM     34  C   UNL     1       4.147  -4.243  28.037  0.00  0.00    +0.010 C 
BRANCH  33  35
ATOM     35  C   UNL     1       2.580  -2.868  26.570  0.00  0.00    +0.002 C 
ATOM     36  C   UNL     1       1.571  -2.845  27.711  0.00  0.00    +0.004 C 
ENDBRANCH  33  35
ENDBRANCH   1  33
TORSDOF 12
ENDMDL
MODEL 5
REMARK VINA RESULT:      -6.3      2.832      8.928
REMARK  Name = 
REMARK  15 active torsions:
REMARK  status: ('A' for Active; 'I' for Inactive)
REMARK    1  A    between atoms: C_2  and  C_3
REMARK    2  A    between atoms: C_2  and  C_4
REMARK    3  A    between atoms: C_2  and  C_6
REMARK    4  A    between atoms: C_4  and  C_5
REMARK    5  A    between atoms: C_6  and  N_8
REMARK    6  A    between atoms: C_6  and  C_22
REMARK    7  A    between atoms: C_9  and  C_11
REMARK    8  A    between atoms: C_14  and  C_16
REMARK    9  A    between atoms: N_18  and  C_19
REMARK   10  A    between atoms: C_19  and  C_20
REMARK   11  A    between atoms: C_20  and  C_21
REMARK   12  A    between atoms: C_28  and  C_30
REMARK   13  A    between atoms: C_30  and  O_32
REMARK   14  A    between atoms: O_32  and  C_33
REMARK   15  A    between atoms: C_33  and  C_34
REMARK                            x       y       z     vdW  Elec       q    Type
REMARK                         _______ _______ _______ _____ _____    ______ ____
ROOT
ATOM      1  C   UNL     1       8.190  -0.712  24.026  0.00  0.00    +0.162 C 
ENDROOT
BRANCH   1   2
ATOM      2  C   UNL     1       7.394  -1.597  25.017  0.00  0.00    +0.237 C 
ATOM      3  N   UNL     1       7.406  -2.970  24.853  0.00  0.00    -0.286 N 
ATOM      4  C   UNL     1       8.028  -3.779  23.793  0.00  0.00    +0.185 C 
ATOM      5  C   UNL     1       8.284  -5.140  24.467  0.00  0.00    +0.035 C 
ATOM      6  C   UNL     1       7.590  -5.085  25.828  0.00  0.00    +0.021 C 
ATOM      7  C   UNL     1       6.720  -3.841  25.786  0.00  0.00    +0.109 C 
ATOM      8  O   UNL     1       6.772  -1.065  25.943  0.00  0.00    -0.274 OA
BRANCH   4   9
ATOM      9  C   UNL     1       7.198  -4.031  22.514  0.00  0.00    +0.328 C 
ATOM     10  O   UNL     1       6.801  -3.113  21.803  0.00  0.00    -0.249 OA
BRANCH   9  11
ATOM     11  O   UNL     1       7.004  -5.349  22.259  0.00  0.00    -0.459 OA
BRANCH  11  12
ATOM     12  C   UNL     1       5.667  -5.736  21.890  0.00  0.00    +0.267 C 
BRANCH  12  13
ATOM     13  C   UNL     1       4.810  -5.759  23.133  0.00  0.00    -0.010 A 
ATOM     14  C   UNL     1       4.931  -6.791  24.075  0.00  0.00    +0.007 A 
ATOM     15  C   UNL     1       4.180  -6.767  25.253  0.00  0.00    +0.000 A 
ATOM     16  C   UNL     1       3.298  -5.718  25.499  0.00  0.00    +0.000 A 
ATOM     17  C   UNL     1       3.146  -4.702  24.557  0.00  0.00    +0.000 A 
ATOM     18  C   UNL     1       3.897  -4.723  23.379  0.00  0.00    +0.007 A 
ENDBRANCH  12  13
ENDBRANCH  11  12
ENDBRANCH   9  11
ENDBRANCH   4   9
ENDBRANCH   1   2
BRANCH   1  19
ATOM     19  N   UNL     1       7.990   0.685  24.438  0.00  0.00    -0.302 N 
ATOM     20  H   UNL     1       8.154   0.930  25.405  0.00  0.00    +0.150 HD
ATOM     21  C   UNL     1       7.610   1.640  23.531  0.00  0.00    +0.246 C 
ATOM     22  O   UNL     1       7.329   1.400  22.365  0.00  0.00    -0.273 OA
BRANCH  21  23
ATOM     23  C   UNL     1       7.554   3.036  24.014  0.00  0.00    +0.242 C 
ATOM     24  C   UNL     1       8.601   3.987  23.481  0.00  0.00    +0.242 C 
ATOM     25  O   UNL     1       8.624   3.525  24.848  0.00  0.00    -0.349 OA
BRANCH  24  26
ATOM     26  C   UNL     1       8.206   5.389  23.217  0.00  0.00    +0.245 C 
ATOM     27  N   UNL     1       7.386   5.580  22.134  0.00  0.00    -0.313 N 
ATOM     28  H   UNL     1       7.190   4.786  21.536  0.00  0.00    +0.149 HD
ATOM     29  O   UNL     1       8.586   6.279  23.965  0.00  0.00    -0.273 OA
BRANCH  27  30
ATOM     30  C   UNL     1       6.901   6.893  21.755  0.00  0.00    +0.104 C 
BRANCH  30  31
ATOM     31  C   UNL     1       5.429   7.108  22.102  0.00  0.00    +0.015 C 
ATOM     32  C   UNL     1       4.771   5.857  22.664  0.00  0.00    +0.005 C 
ENDBRANCH  30  31
ENDBRANCH  27  30
ENDBRANCH  24  26
ENDBRANCH  21  23
ENDBRANCH   1  19
BRANCH   1  33
ATOM     33  C   UNL     1       9.714  -1.045  24.001  0.00  0.00    +0.015 C 
ATOM     34  C   UNL     1      10.263  -1.065  22.568  0.00  0.00    +0.010 C 
BRANCH  33  35
ATOM     35  C   UNL     1      10.492  -0.039  24.891  0.00  0.00    +0.002 C 
ATOM     36  C   UNL     1      11.205   1.072  24.128  0.00  0.00    +0.004 C 
ENDBRANCH  33  35
ENDBRANCH   1  33
TORSDOF 12
ENDMDL
MODEL 6
REMARK VINA RESULT:      -6.2      2.662      7.179
REMARK  Name = 
REMARK  15 active torsions:
REMARK  status: ('A' for Active; 'I' for Inactive)
REMARK    1  A    between atoms: C_2  and  C_3
REMARK    2  A    between atoms: C_2  and  C_4
REMARK    3  A    between atoms: C_2  and  C_6
REMARK    4  A    between atoms: C_4  and  C_5
REMARK    5  A    between atoms: C_6  and  N_8
REMARK    6  A    between atoms: C_6  and  C_22
REMARK    7  A    between atoms: C_9  and  C_11
REMARK    8  A    between atoms: C_14  and  C_16
REMARK    9  A    between atoms: N_18  and  C_19
REMARK   10  A    between atoms: C_19  and  C_20
REMARK   11  A    between atoms: C_20  and  C_21
REMARK   12  A    between atoms: C_28  and  C_30
REMARK   13  A    between atoms: C_30  and  O_32
REMARK   14  A    between atoms: O_32  and  C_33
REMARK   15  A    between atoms: C_33  and  C_34
REMARK                            x       y       z     vdW  Elec       q    Type
REMARK                         _______ _______ _______ _____ _____    ______ ____
ROOT
ATOM      1  C   UNL     1       5.684  -2.445  25.654  0.00  0.00    +0.162 C 
ENDROOT
BRANCH   1   2
ATOM      2  C   UNL     1       4.399  -3.045  25.033  0.00  0.00    +0.237 C 
ATOM      3  N   UNL     1       4.513  -4.032  24.071  0.00  0.00    -0.286 N 
ATOM      4  C   UNL     1       5.722  -4.596  23.449  0.00  0.00    +0.185 C 
ATOM      5  C   UNL     1       5.292  -6.011  23.020  0.00  0.00    +0.035 C 
ATOM      6  C   UNL     1       3.781  -6.088  23.239  0.00  0.00    +0.021 C 
ATOM      7  C   UNL     1       3.339  -4.660  23.500  0.00  0.00    +0.109 C 
ATOM      8  O   UNL     1       3.294  -2.642  25.414  0.00  0.00    -0.274 OA
BRANCH   4   9
ATOM      9  C   UNL     1       6.283  -3.871  22.206  0.00  0.00    +0.328 C 
ATOM     10  O   UNL     1       5.552  -3.372  21.356  0.00  0.00    -0.249 OA
BRANCH   9  11
ATOM     11  O   UNL     1       7.638  -3.818  22.189  0.00  0.00    -0.459 OA
BRANCH  11  12
ATOM     12  C   UNL     1       8.284  -3.622  23.461  0.00  0.00    +0.267 C 
BRANCH  12  13
ATOM     13  C   UNL     1       9.018  -2.302  23.432  0.00  0.00    -0.010 A 
ATOM     14  C   UNL     1       9.343  -1.682  22.216  0.00  0.00    +0.007 A 
ATOM     15  C   UNL     1       9.962  -0.430  22.202  0.00  0.00    +0.000 A 
ATOM     16  C   UNL     1      10.268   0.212  23.400  0.00  0.00    +0.000 A 
ATOM     17  C   UNL     1       9.977  -0.406  24.614  0.00  0.00    +0.000 A 
ATOM     18  C   UNL     1       9.356  -1.658  24.630  0.00  0.00    +0.007 A 
ENDBRANCH  12  13
ENDBRANCH  11  12
ENDBRANCH   9  11
ENDBRANCH   4   9
ENDBRANCH   1   2
BRANCH   1  19
ATOM     19  N   UNL     1       5.496  -0.989  25.715  0.00  0.00    -0.302 N 
ATOM     20  H   UNL     1       5.107  -0.588  26.558  0.00  0.00    +0.150 HD
ATOM     21  C   UNL     1       5.858  -0.186  24.663  0.00  0.00    +0.246 C 
ATOM     22  O   UNL     1       6.269  -0.610  23.593  0.00  0.00    -0.273 OA
BRANCH  21  23
ATOM     23  C   UNL     1       5.744   1.273  24.866  0.00  0.00    +0.242 C 
ATOM     24  C   UNL     1       6.923   1.969  25.507  0.00  0.00    +0.242 C 
ATOM     25  O   UNL     1       5.679   1.784  26.214  0.00  0.00    -0.349 OA
BRANCH  24  26
ATOM     26  C   UNL     1       7.273   3.330  25.041  0.00  0.00    +0.245 C 
ATOM     27  N   UNL     1       8.150   3.389  23.988  0.00  0.00    -0.313 N 
ATOM     28  H   UNL     1       8.575   2.525  23.670  0.00  0.00    +0.149 HD
ATOM     29  O   UNL     1       6.760   4.305  25.572  0.00  0.00    -0.273 OA
BRANCH  27  30
ATOM     30  C   UNL     1       8.578   4.647  23.409  0.00  0.00    +0.104 C 
BRANCH  30  31
ATOM     31  C   UNL     1       9.807   5.235  24.101  0.00  0.00    +0.015 C 
ATOM     32  C   UNL     1       9.607   6.683  24.519  0.00  0.00    +0.005 C 
ENDBRANCH  30  31
ENDBRANCH  27  30
ENDBRANCH  24  26
ENDBRANCH  21  23
ENDBRANCH   1  19
BRANCH   1  33
ATOM     33  C   UNL     1       5.988  -3.000  27.081  0.00  0.00    +0.015 C 
ATOM     34  C   UNL     1       4.886  -2.622  28.078  0.00  0.00    +0.010 C 
BRANCH  33  35
ATOM     35  C   UNL     1       6.195  -4.537  27.021  0.00  0.00    +0.002 C 
ATOM     36  C   UNL     1       7.636  -4.981  26.804  0.00  0.00    +0.004 C 
ENDBRANCH  33  35
ENDBRANCH   1  33
TORSDOF 12
ENDMDL
MODEL 7
REMARK VINA RESULT:      -6.2      2.440      8.602
REMARK  Name = 
REMARK  15 active torsions:
REMARK  status: ('A' for Active; 'I' for Inactive)
REMARK    1  A    between atoms: C_2  and  C_3
REMARK    2  A    between atoms: C_2  and  C_4
REMARK    3  A    between atoms: C_2  and  C_6
REMARK    4  A    between atoms: C_4  and  C_5
REMARK    5  A    between atoms: C_6  and  N_8
REMARK    6  A    between atoms: C_6  and  C_22
REMARK    7  A    between atoms: C_9  and  C_11
REMARK    8  A    between atoms: C_14  and  C_16
REMARK    9  A    between atoms: N_18  and  C_19
REMARK   10  A    between atoms: C_19  and  C_20
REMARK   11  A    between atoms: C_20  and  C_21
REMARK   12  A    between atoms: C_28  and  C_30
REMARK   13  A    between atoms: C_30  and  O_32
REMARK   14  A    between atoms: O_32  and  C_33
REMARK   15  A    between atoms: C_33  and  C_34
REMARK                            x       y       z     vdW  Elec       q    Type
REMARK                         _______ _______ _______ _____ _____    ______ ____
ROOT
ATOM      1  C   UNL     1       8.337  -1.540  24.270  0.00  0.00    +0.162 C 
ENDROOT
BRANCH   1   2
ATOM      2  C   UNL     1       8.115  -2.405  23.005  0.00  0.00    +0.237 C 
ATOM      3  N   UNL     1       7.546  -3.658  23.137  0.00  0.00    -0.286 N 
ATOM      4  C   UNL     1       7.154  -4.383  24.357  0.00  0.00    +0.185 C 
ATOM      5  C   UNL     1       6.037  -5.330  23.883  0.00  0.00    +0.035 C 
ATOM      6  C   UNL     1       6.006  -5.233  22.358  0.00  0.00    +0.021 C 
ATOM      7  C   UNL     1       7.269  -4.481  21.978  0.00  0.00    +0.109 C 
ATOM      8  O   UNL     1       8.437  -1.958  21.899  0.00  0.00    -0.274 OA
BRANCH   4   9
ATOM      9  C   UNL     1       8.238  -5.236  25.053  0.00  0.00    +0.328 C 
ATOM     10  O   UNL     1       9.396  -5.276  24.649  0.00  0.00    -0.249 OA
BRANCH   9  11
ATOM     11  O   UNL     1       7.779  -5.882  26.154  0.00  0.00    -0.459 OA
BRANCH  11  12
ATOM     12  C   UNL     1       7.450  -5.056  27.287  0.00  0.00    +0.267 C 
BRANCH  12  13
ATOM     13  C   UNL     1       5.965  -5.156  27.545  0.00  0.00    -0.010 A 
ATOM     14  C   UNL     1       5.209  -4.018  27.863  0.00  0.00    +0.007 A 
ATOM     15  C   UNL     1       3.826  -4.112  28.034  0.00  0.00    +0.000 A 
ATOM     16  C   UNL     1       3.186  -5.342  27.895  0.00  0.00    +0.000 A 
ATOM     17  C   UNL     1       3.930  -6.484  27.608  0.00  0.00    +0.000 A 
ATOM     18  C   UNL     1       5.313  -6.393  27.435  0.00  0.00    +0.007 A 
ENDBRANCH  12  13
ENDBRANCH  11  12
ENDBRANCH   9  11
ENDBRANCH   4   9
ENDBRANCH   1   2
BRANCH   1  19
ATOM     19  N   UNL     1       8.726  -0.198  23.814  0.00  0.00    -0.302 N 
ATOM     20  H   UNL     1       8.192   0.231  23.069  0.00  0.00    +0.150 HD
ATOM     21  C   UNL     1       9.773   0.470  24.395  0.00  0.00    +0.246 C 
ATOM     22  O   UNL     1      10.500  -0.016  25.249  0.00  0.00    -0.273 OA
BRANCH  21  23
ATOM     23  C   UNL     1      10.008   1.860  23.951  0.00  0.00    +0.242 C 
ATOM     24  C   UNL     1       8.790   2.681  23.597  0.00  0.00    +0.242 C 
ATOM     25  O   UNL     1       9.706   2.213  22.586  0.00  0.00    -0.349 OA
BRANCH  24  26
ATOM     26  C   UNL     1       8.791   4.121  23.938  0.00  0.00    +0.245 C 
ATOM     27  N   UNL     1       9.799   4.863  23.374  0.00  0.00    -0.313 N 
ATOM     28  H   UNL     1      10.521   4.375  22.857  0.00  0.00    +0.149 HD
ATOM     29  O   UNL     1       7.911   4.578  24.653  0.00  0.00    -0.273 OA
BRANCH  27  30
ATOM     30  C   UNL     1       9.926   6.289  23.600  0.00  0.00    +0.104 C 
BRANCH  30  31
ATOM     31  C   UNL     1      10.615   6.624  24.922  0.00  0.00    +0.015 C 
ATOM     32  C   UNL     1      12.132   6.596  24.815  0.00  0.00    +0.005 C 
ENDBRANCH  30  31
ENDBRANCH  27  30
ENDBRANCH  24  26
ENDBRANCH  21  23
ENDBRANCH   1  19
BRANCH   1  33
ATOM     33  C   UNL     1       7.069  -1.446  25.175  0.00  0.00    +0.015 C 
ATOM     34  C   UNL     1       7.443  -1.263  26.652  0.00  0.00    +0.010 C 
BRANCH  33  35
ATOM     35  C   UNL     1       6.146  -0.301  24.679  0.00  0.00    +0.002 C 
ATOM     36  C   UNL     1       5.288   0.344  25.760  0.00  0.00    +0.004 C 
ENDBRANCH  33  35
ENDBRANCH   1  33
TORSDOF 12
ENDMDL
MODEL 8
REMARK VINA RESULT:      -6.1      2.388      8.002
REMARK  Name = 
REMARK  15 active torsions:
REMARK  status: ('A' for Active; 'I' for Inactive)
REMARK    1  A    between atoms: C_2  and  C_3
REMARK    2  A    between atoms: C_2  and  C_4
REMARK    3  A    between atoms: C_2  and  C_6
REMARK    4  A    between atoms: C_4  and  C_5
REMARK    5  A    between atoms: C_6  and  N_8
REMARK    6  A    between atoms: C_6  and  C_22
REMARK    7  A    between atoms: C_9  and  C_11
REMARK    8  A    between atoms: C_14  and  C_16
REMARK    9  A    between atoms: N_18  and  C_19
REMARK   10  A    between atoms: C_19  and  C_20
REMARK   11  A    between atoms: C_20  and  C_21
REMARK   12  A    between atoms: C_28  and  C_30
REMARK   13  A    between atoms: C_30  and  O_32
REMARK   14  A    between atoms: O_32  and  C_33
REMARK   15  A    between atoms: C_33  and  C_34
REMARK                            x       y       z     vdW  Elec       q    Type
REMARK                         _______ _______ _______ _____ _____    ______ ____
ROOT
ATOM      1  C   UNL     1       5.395  -3.786  26.878  0.00  0.00    +0.162 C 
ENDROOT
BRANCH   1   2
ATOM      2  C   UNL     1       4.243  -3.454  27.858  0.00  0.00    +0.237 C 
ATOM      3  N   UNL     1       2.968  -3.911  27.578  0.00  0.00    -0.286 N 
ATOM      4  C   UNL     1       2.476  -4.646  26.402  0.00  0.00    +0.185 C 
ATOM      5  C   UNL     1       1.256  -5.421  26.932  0.00  0.00    +0.035 C 
ATOM      6  C   UNL     1       1.002  -4.908  28.350  0.00  0.00    +0.021 C 
ATOM      7  C   UNL     1       1.869  -3.671  28.491  0.00  0.00    +0.109 C 
ATOM      8  O   UNL     1       4.482  -2.799  28.878  0.00  0.00    -0.274 OA
BRANCH   4   9
ATOM      9  C   UNL     1       2.016  -3.810  25.186  0.00  0.00    +0.328 C 
ATOM     10  O   UNL     1       0.934  -3.231  25.164  0.00  0.00    -0.249 OA
BRANCH   9  11
ATOM     11  O   UNL     1       2.941  -3.762  24.195  0.00  0.00    -0.459 OA
BRANCH  11  12
ATOM     12  C   UNL     1       3.271  -5.016  23.570  0.00  0.00    +0.267 C 
BRANCH  12  13
ATOM     13  C   UNL     1       4.667  -4.920  23.001  0.00  0.00    -0.010 A 
ATOM     14  C   UNL     1       5.315  -3.681  22.882  0.00  0.00    +0.007 A 
ATOM     15  C   UNL     1       6.630  -3.611  22.416  0.00  0.00    +0.000 A 
ATOM     16  C   UNL     1       7.308  -4.774  22.059  0.00  0.00    +0.000 A 
ATOM     17  C   UNL     1       6.665  -6.008  22.145  0.00  0.00    +0.000 A 
ATOM     18  C   UNL     1       5.350  -6.080  22.612  0.00  0.00    +0.007 A 
ENDBRANCH  12  13
ENDBRANCH  11  12
ENDBRANCH   9  11
ENDBRANCH   4   9
ENDBRANCH   1   2
BRANCH   1  19
ATOM     19  N   UNL     1       6.382  -2.703  26.989  0.00  0.00    -0.302 N 
ATOM     20  H   UNL     1       7.113  -2.787  27.683  0.00  0.00    +0.150 HD
ATOM     21  C   UNL     1       6.331  -1.613  26.159  0.00  0.00    +0.246 C 
ATOM     22  O   UNL     1       5.438  -1.416  25.348  0.00  0.00    -0.273 OA
BRANCH  21  23
ATOM     23  C   UNL     1       7.437  -0.638  26.266  0.00  0.00    +0.242 C 
ATOM     24  C   UNL     1       8.723  -0.982  25.551  0.00  0.00    +0.242 C 
ATOM     25  O   UNL     1       8.625  -1.014  26.990  0.00  0.00    -0.349 OA
BRANCH  24  26
ATOM     26  C   UNL     1       9.491   0.115  24.921  0.00  0.00    +0.245 C 
ATOM     27  N   UNL     1       8.822   0.832  23.961  0.00  0.00    -0.313 N 
ATOM     28  H   UNL     1       7.904   0.509  23.675  0.00  0.00    +0.149 HD
ATOM     29  O   UNL     1      10.632   0.349  25.291  0.00  0.00    -0.273 OA
BRANCH  27  30
ATOM     30  C   UNL     1       9.433   1.946  23.263  0.00  0.00    +0.104 C 
BRANCH  30  31
ATOM     31  C   UNL     1       9.832   1.605  21.829  0.00  0.00    +0.015 C 
ATOM     32  C   UNL     1       9.357   0.225  21.401  0.00  0.00    +0.005 C 
ENDBRANCH  30  31
ENDBRANCH  27  30
ENDBRANCH  24  26
ENDBRANCH  21  23
ENDBRANCH   1  19
BRANCH   1  33
ATOM     33  C   UNL     1       6.076  -5.158  27.180  0.00  0.00    +0.015 C 
ATOM     34  C   UNL     1       5.498  -6.278  26.306  0.00  0.00    +0.010 C 
BRANCH  33  35
ATOM     35  C   UNL     1       7.613  -5.038  27.004  0.00  0.00    +0.002 C 
ATOM     36  C   UNL     1       8.126  -5.382  25.611  0.00  0.00    +0.004 C 
ENDBRANCH  33  35
ENDBRANCH   1  33
TORSDOF 12
ENDMDL
MODEL 9
REMARK VINA RESULT:      -6.1      2.772      8.684
REMARK  Name = 
REMARK  15 active torsions:
REMARK  status: ('A' for Active; 'I' for Inactive)
REMARK    1  A    between atoms: C_2  and  C_3
REMARK    2  A    between atoms: C_2  and  C_4
REMARK    3  A    between atoms: C_2  and  C_6
REMARK    4  A    between atoms: C_4  and  C_5
REMARK    5  A    between atoms: C_6  and  N_8
REMARK    6  A    between atoms: C_6  and  C_22
REMARK    7  A    between atoms: C_9  and  C_11
REMARK    8  A    between atoms: C_14  and  C_16
REMARK    9  A    between atoms: N_18  and  C_19
REMARK   10  A    between atoms: C_19  and  C_20
REMARK   11  A    between atoms: C_20  and  C_21
REMARK   12  A    between atoms: C_28  and  C_30
REMARK   13  A    between atoms: C_30  and  O_32
REMARK   14  A    between atoms: O_32  and  C_33
REMARK   15  A    between atoms: C_33  and  C_34
REMARK                            x       y       z     vdW  Elec       q    Type
REMARK                         _______ _______ _______ _____ _____    ______ ____
ROOT
ATOM      1  C   UNL     1       8.683  -0.483  24.298  0.00  0.00    +0.162 C 
ENDROOT
BRANCH   1   2
ATOM      2  C   UNL     1       8.680  -1.418  25.533  0.00  0.00    +0.237 C 
ATOM      3  N   UNL     1       8.407  -2.762  25.359  0.00  0.00    -0.286 N 
ATOM      4  C   UNL     1       8.029  -3.488  24.136  0.00  0.00    +0.185 C 
ATOM      5  C   UNL     1       8.507  -4.928  24.397  0.00  0.00    +0.035 C 
ATOM      6  C   UNL     1       8.946  -4.979  25.861  0.00  0.00    +0.021 C 
ATOM      7  C   UNL     1       8.446  -3.684  26.475  0.00  0.00    +0.109 C 
ATOM      8  O   UNL     1       8.933  -0.951  26.650  0.00  0.00    -0.274 OA
BRANCH   4   9
ATOM      9  C   UNL     1       6.526  -3.543  23.781  0.00  0.00    +0.328 C 
ATOM     10  O   UNL     1       5.899  -2.543  23.443  0.00  0.00    -0.249 OA
BRANCH   9  11
ATOM     11  O   UNL     1       6.011  -4.796  23.844  0.00  0.00    -0.459 OA
BRANCH  11  12
ATOM     12  C   UNL     1       4.749  -4.932  24.523  0.00  0.00    +0.267 C 
BRANCH  12  13
ATOM     13  C   UNL     1       5.002  -4.974  26.012  0.00  0.00    -0.010 A 
ATOM     14  C   UNL     1       4.695  -3.874  26.828  0.00  0.00    +0.007 A 
ATOM     15  C   UNL     1       4.872  -3.948  28.212  0.00  0.00    +0.000 A 
ATOM     16  C   UNL     1       5.362  -5.116  28.793  0.00  0.00    +0.000 A 
ATOM     17  C   UNL     1       5.698  -6.204  27.990  0.00  0.00    +0.000 A 
ATOM     18  C   UNL     1       5.521  -6.133  26.606  0.00  0.00    +0.007 A 
ENDBRANCH  12  13
ENDBRANCH  11  12
ENDBRANCH   9  11
ENDBRANCH   4   9
ENDBRANCH   1   2
BRANCH   1  19
ATOM     19  N   UNL     1       8.270   0.849  24.764  0.00  0.00    -0.302 N 
ATOM     20  H   UNL     1       8.950   1.424  25.243  0.00  0.00    +0.150 HD
ATOM     21  C   UNL     1       7.000   1.313  24.537  0.00  0.00    +0.246 C 
ATOM     22  O   UNL     1       6.112   0.646  24.028  0.00  0.00    -0.273 OA
BRANCH  21  23
ATOM     23  C   UNL     1       6.718   2.709  24.934  0.00  0.00    +0.242 C 
ATOM     24  C   UNL     1       7.594   3.304  26.012  0.00  0.00    +0.242 C 
ATOM     25  O   UNL     1       6.214   2.964  26.261  0.00  0.00    -0.349 OA
BRANCH  24  26
ATOM     26  C   UNL     1       7.960   4.735  25.908  0.00  0.00    +0.245 C 
ATOM     27  N   UNL     1       8.942   5.031  24.996  0.00  0.00    -0.313 N 
ATOM     28  H   UNL     1       9.417   4.262  24.538  0.00  0.00    +0.149 HD
ATOM     29  O   UNL     1       7.373   5.564  26.588  0.00  0.00    -0.273 OA
BRANCH  27  30
ATOM     30  C   UNL     1       9.399   6.387  24.768  0.00  0.00    +0.104 C 
BRANCH  30  31
ATOM     31  C   UNL     1      10.916   6.486  24.608  0.00  0.00    +0.015 C 
ATOM     32  C   UNL     1      11.467   5.474  23.615  0.00  0.00    +0.005 C 
ENDBRANCH  30  31
ENDBRANCH  27  30
ENDBRANCH  24  26
ENDBRANCH  21  23
ENDBRANCH   1  19
BRANCH   1  33
ATOM     33  C   UNL     1      10.078  -0.393  23.605  0.00  0.00    +0.015 C 
ATOM     34  C   UNL     1      10.093  -1.148  22.270  0.00  0.00    +0.010 C 
BRANCH  33  35
ATOM     35  C   UNL     1      10.484   1.093  23.419  0.00  0.00    +0.002 C 
ATOM     36  C   UNL     1      10.089   1.702  22.079  0.00  0.00    +0.004 C 
ENDBRANCH  33  35
ENDBRANCH   1  33
TORSDOF 12
ENDMDL
