MODEL 1
REMARK VINA RESULT:      -5.4      0.000      0.000
REMARK  Name = 
REMARK  6 active torsions:
REMARK  status: ('A' for Active; 'I' for Inactive)
REMARK    1  A    between atoms: N_1  and  CA_2
REMARK    2  A    between atoms: CA_2  and  C_4
REMARK    3  A    between atoms: CA_2  and  C_12
REMARK    4  A    between atoms: C_4  and  C_5
REMARK    5  A    between atoms: C_9  and  O_10
REMARK    6  A    between atoms: C_12  and  O_13
REMARK                            x       y       z     vdW  Elec       q    Type
REMARK                         _______ _______ _______ _____ _____    ______ ____
ROOT
ATOM      1  C   UNL     1       9.762   2.350  23.501  0.00  0.00    +0.065 C 
ENDROOT
BRANCH   1   2
ATOM      2  C   UNL     1      10.506   3.660  23.621  0.00  0.00    -0.042 A 
ATOM      3  C   UNL     1      11.881   3.719  23.357  0.00  0.00    +0.049 A 
ATOM      4  C   UNL     1      12.555   4.934  23.431  0.00  0.00    +0.117 A 
ATOM      5  C   UNL     1      11.883   6.104  23.769  0.00  0.00    +0.045 A 
ATOM      6  C   UNL     1      10.516   6.054  24.037  0.00  0.00    +0.004 A 
ATOM      7  C   UNL     1       9.829   4.839  23.963  0.00  0.00    +0.004 A 
BRANCH   4   8
ATOM      8  O   UNL     1      13.890   4.937  23.155  0.00  0.00    -0.507 OA
ATOM      9  H   UNL     1      14.016   5.203  22.230  0.00  0.00    +0.292 HD
ENDBRANCH   4   8
ENDBRANCH   1   2
BRANCH   1  10
ATOM     10  CA  UNL     1       9.993   1.650  22.153  0.00  0.00    +0.165 C 
BRANCH  10  11
ATOM     11  N   UNL     1       8.885   1.872  21.165  0.00  0.00    -0.318 NA
ATOM     12  H1  UNL     1       8.022   2.039  21.693  0.00  0.00    +0.119 HD
ATOM     13  H2  UNL     1       9.068   2.776  20.713  0.00  0.00    +0.119 HD
ENDBRANCH  10  11
BRANCH  10  14
ATOM     14  C   UNL     1      10.138   0.132  22.358  0.00  0.00    +0.322 C 
ATOM     15  OXT UNL     1      10.559  -0.416  23.363  0.00  0.00    -0.249 OA
BRANCH  14  16
ATOM     16  O   UNL     1       9.760  -0.544  21.239  0.00  0.00    -0.480 OA
ATOM     17  H   UNL     1       8.894  -0.970  21.463  0.00  0.00    +0.295 HD
ENDBRANCH  14  16
ENDBRANCH  10  14
ENDBRANCH   1  10
TORSDOF 6
ENDMDL
MODEL 2
REMARK VINA RESULT:      -5.2      4.714      6.575
REMARK  Name = 
REMARK  6 active torsions:
REMARK  status: ('A' for Active; 'I' for Inactive)
REMARK    1  A    between atoms: N_1  and  CA_2
REMARK    2  A    between atoms: CA_2  and  C_4
REMARK    3  A    between atoms: CA_2  and  C_12
REMARK    4  A    between atoms: C_4  and  C_5
REMARK    5  A    between atoms: C_9  and  O_10
REMARK    6  A    between atoms: C_12  and  O_13
REMARK                            x       y       z     vdW  Elec       q    Type
REMARK                         _______ _______ _______ _____ _____    ______ ____
ROOT
ATOM      1  C   UNL     1       8.556  -3.648  23.995  0.00  0.00    +0.065 C 
ENDROOT
BRANCH   1   2
ATOM      2  C   UNL     1       9.113  -2.293  23.622  0.00  0.00    -0.042 A 
ATOM      3  C   UNL     1       9.569  -1.419  24.617  0.00  0.00    +0.049 A 
ATOM      4  C   UNL     1      10.115  -0.188  24.267  0.00  0.00    +0.117 A 
ATOM      5  C   UNL     1      10.215   0.197  22.934  0.00  0.00    +0.045 A 
ATOM      6  C   UNL     1       9.759  -0.666  21.938  0.00  0.00    +0.004 A 
ATOM      7  C   UNL     1       9.210  -1.905  22.279  0.00  0.00    +0.004 A 
BRANCH   4   8
ATOM      8  O   UNL     1      10.554   0.621  25.273  0.00  0.00    -0.507 OA
ATOM      9  H   UNL     1      11.493   0.820  25.126  0.00  0.00    +0.292 HD
ENDBRANCH   4   8
ENDBRANCH   1   2
BRANCH   1  10
ATOM     10  CA  UNL     1       9.261  -4.272  25.210  0.00  0.00    +0.165 C 
BRANCH  10  11
ATOM     11  N   UNL     1       9.938  -5.576  24.906  0.00  0.00    -0.318 NA
ATOM     12  H1  UNL     1       9.724  -5.822  23.933  0.00  0.00    +0.119 HD
ATOM     13  H2  UNL     1      10.948  -5.388  24.888  0.00  0.00    +0.119 HD
ENDBRANCH  10  11
BRANCH  10  14
ATOM     14  C   UNL     1       8.249  -4.525  26.342  0.00  0.00    +0.322 C 
ATOM     15  OXT UNL     1       7.491  -3.698  26.819  0.00  0.00    -0.249 OA
BRANCH  14  16
ATOM     16  O   UNL     1       8.327  -5.811  26.779  0.00  0.00    -0.480 OA
ATOM     17  H   UNL     1       7.484  -5.978  27.272  0.00  0.00    +0.295 HD
ENDBRANCH  14  16
ENDBRANCH  10  14
ENDBRANCH   1  10
TORSDOF 6
ENDMDL
MODEL 3
REMARK VINA RESULT:      -5.2      4.970      7.095
REMARK  Name = 
REMARK  6 active torsions:
REMARK  status: ('A' for Active; 'I' for Inactive)
REMARK    1  A    between atoms: N_1  and  CA_2
REMARK    2  A    between atoms: CA_2  and  C_4
REMARK    3  A    between atoms: CA_2  and  C_12
REMARK    4  A    between atoms: C_4  and  C_5
REMARK    5  A    between atoms: C_9  and  O_10
REMARK    6  A    between atoms: C_12  and  O_13
REMARK                            x       y       z     vdW  Elec       q    Type
REMARK                         _______ _______ _______ _____ _____    ______ ____
ROOT
ATOM      1  C   UNL     1       8.455  -4.090  24.056  0.00  0.00    +0.065 C 
ENDROOT
BRANCH   1   2
ATOM      2  C   UNL     1       8.992  -2.710  23.754  0.00  0.00    -0.042 A 
ATOM      3  C   UNL     1       9.025  -2.237  22.435  0.00  0.00    +0.049 A 
ATOM      4  C   UNL     1       9.485  -0.951  22.167  0.00  0.00    +0.117 A 
ATOM      5  C   UNL     1       9.920  -0.119  23.192  0.00  0.00    +0.045 A 
ATOM      6  C   UNL     1       9.895  -0.584  24.507  0.00  0.00    +0.004 A 
ATOM      7  C   UNL     1       9.433  -1.872  24.788  0.00  0.00    +0.004 A 
BRANCH   4   8
ATOM      8  O   UNL     1       9.486  -0.537  20.868  0.00  0.00    -0.507 OA
ATOM      9  H   UNL     1       9.529  -1.317  20.292  0.00  0.00    +0.292 HD
ENDBRANCH   4   8
ENDBRANCH   1   2
BRANCH   1  10
ATOM     10  CA  UNL     1       8.919  -4.630  25.418  0.00  0.00    +0.165 C 
BRANCH  10  11
ATOM     11  N   UNL     1      10.063  -5.596  25.322  0.00  0.00    -0.318 NA
ATOM     12  H1  UNL     1      10.063  -5.990  24.375  0.00  0.00    +0.119 HD
ATOM     13  H2  UNL     1      10.924  -5.038  25.349  0.00  0.00    +0.119 HD
ENDBRANCH  10  11
BRANCH  10  14
ATOM     14  C   UNL     1       7.759  -5.348  26.130  0.00  0.00    +0.322 C 
ATOM     15  OXT UNL     1       6.642  -5.525  25.675  0.00  0.00    -0.249 OA
BRANCH  14  16
ATOM     16  O   UNL     1       8.132  -5.745  27.377  0.00  0.00    -0.480 OA
ATOM     17  H   UNL     1       7.760  -5.067  27.996  0.00  0.00    +0.295 HD
ENDBRANCH  14  16
ENDBRANCH  10  14
ENDBRANCH   1  10
TORSDOF 6
ENDMDL
MODEL 4
REMARK VINA RESULT:      -5.0      3.368      4.964
REMARK  Name = 
REMARK  6 active torsions:
REMARK  status: ('A' for Active; 'I' for Inactive)
REMARK    1  A    between atoms: N_1  and  CA_2
REMARK    2  A    between atoms: CA_2  and  C_4
REMARK    3  A    between atoms: CA_2  and  C_12
REMARK    4  A    between atoms: C_4  and  C_5
REMARK    5  A    between atoms: C_9  and  O_10
REMARK    6  A    between atoms: C_12  and  O_13
REMARK                            x       y       z     vdW  Elec       q    Type
REMARK                         _______ _______ _______ _____ _____    ______ ____
ROOT
ATOM      1  C   UNL     1       8.728  -2.279  22.910  0.00  0.00    +0.065 C 
ENDROOT
BRANCH   1   2
ATOM      2  C   UNL     1       9.386  -0.953  23.214  0.00  0.00    -0.042 A 
ATOM      3  C   UNL     1       9.481   0.032  22.222  0.00  0.00    +0.049 A 
ATOM      4  C   UNL     1      10.054   1.266  22.516  0.00  0.00    +0.117 A 
ATOM      5  C   UNL     1      10.542   1.541  23.788  0.00  0.00    +0.045 A 
ATOM      6  C   UNL     1      10.456   0.565  24.780  0.00  0.00    +0.004 A 
ATOM      7  C   UNL     1       9.881  -0.676  24.496  0.00  0.00    +0.004 A 
BRANCH   4   8
ATOM      8  O   UNL     1      10.111   2.192  21.518  0.00  0.00    -0.507 OA
ATOM      9  H   UNL     1       9.304   2.731  21.546  0.00  0.00    +0.292 HD
ENDBRANCH   4   8
ENDBRANCH   1   2
BRANCH   1  10
ATOM     10  CA  UNL     1       7.308  -2.129  22.343  0.00  0.00    +0.165 C 
BRANCH  10  11
ATOM     11  N   UNL     1       6.370  -1.398  23.259  0.00  0.00    -0.318 NA
ATOM     12  H1  UNL     1       5.658  -0.940  22.680  0.00  0.00    +0.119 HD
ATOM     13  H2  UNL     1       5.839  -2.113  23.770  0.00  0.00    +0.119 HD
ENDBRANCH  10  11
BRANCH  10  14
ATOM     14  C   UNL     1       6.697  -3.512  22.058  0.00  0.00    +0.322 C 
ATOM     15  OXT UNL     1       7.286  -4.578  22.118  0.00  0.00    -0.249 OA
BRANCH  14  16
ATOM     16  O   UNL     1       5.393  -3.396  21.687  0.00  0.00    -0.480 OA
ATOM     17  H   UNL     1       4.930  -2.985  22.460  0.00  0.00    +0.295 HD
ENDBRANCH  14  16
ENDBRANCH  10  14
ENDBRANCH   1  10
TORSDOF 6
ENDMDL
MODEL 5
REMARK VINA RESULT:      -5.0      2.595      5.506
REMARK  Name = 
REMARK  6 active torsions:
REMARK  status: ('A' for Active; 'I' for Inactive)
REMARK    1  A    between atoms: N_1  and  CA_2
REMARK    2  A    between atoms: CA_2  and  C_4
REMARK    3  A    between atoms: CA_2  and  C_12
REMARK    4  A    between atoms: C_4  and  C_5
REMARK    5  A    between atoms: C_9  and  O_10
REMARK    6  A    between atoms: C_12  and  O_13
REMARK                            x       y       z     vdW  Elec       q    Type
REMARK                         _______ _______ _______ _____ _____    ______ ____
ROOT
ATOM      1  C   UNL     1      10.661   1.981  24.056  0.00  0.00    +0.065 C 
ENDROOT
BRANCH   1   2
ATOM      2  C   UNL     1      10.273   0.743  23.282  0.00  0.00    -0.042 A 
ATOM      3  C   UNL     1      10.408  -0.525  23.863  0.00  0.00    +0.049 A 
ATOM      4  C   UNL     1      10.014  -1.660  23.161  0.00  0.00    +0.117 A 
ATOM      5  C   UNL     1       9.487  -1.560  21.879  0.00  0.00    +0.045 A 
ATOM      6  C   UNL     1       9.353  -0.302  21.291  0.00  0.00    +0.004 A 
ATOM      7  C   UNL     1       9.744   0.844  21.988  0.00  0.00    +0.004 A 
BRANCH   4   8
ATOM      8  O   UNL     1      10.156  -2.868  23.777  0.00  0.00    -0.507 OA
ATOM      9  H   UNL     1       9.343  -3.065  24.269  0.00  0.00    +0.292 HD
ENDBRANCH   4   8
ENDBRANCH   1   2
BRANCH   1  10
ATOM     10  CA  UNL     1      10.450   3.278  23.258  0.00  0.00    +0.165 C 
BRANCH  10  11
ATOM     11  N   UNL     1      11.682   4.129  23.160  0.00  0.00    -0.318 NA
ATOM     12  H1  UNL     1      11.589   4.719  22.325  0.00  0.00    +0.119 HD
ATOM     13  H2  UNL     1      11.638   4.803  23.934  0.00  0.00    +0.119 HD
ENDBRANCH  10  11
BRANCH  10  14
ATOM     14  C   UNL     1       9.344   4.130  23.907  0.00  0.00    +0.322 C 
ATOM     15  OXT UNL     1       8.786   3.889  24.963  0.00  0.00    -0.249 OA
BRANCH  14  16
ATOM     16  O   UNL     1       9.034   5.195  23.120  0.00  0.00    -0.480 OA
ATOM     17  H   UNL     1       8.750   5.914  23.741  0.00  0.00    +0.295 HD
ENDBRANCH  14  16
ENDBRANCH  10  14
ENDBRANCH   1  10
TORSDOF 6
ENDMDL
MODEL 6
REMARK VINA RESULT:      -5.0      3.616      4.921
REMARK  Name = 
REMARK  6 active torsions:
REMARK  status: ('A' for Active; 'I' for Inactive)
REMARK    1  A    between atoms: N_1  and  CA_2
REMARK    2  A    between atoms: CA_2  and  C_4
REMARK    3  A    between atoms: CA_2  and  C_12
REMARK    4  A    between atoms: C_4  and  C_5
REMARK    5  A    between atoms: C_9  and  O_10
REMARK    6  A    between atoms: C_12  and  O_13
REMARK                            x       y       z     vdW  Elec       q    Type
REMARK                         _______ _______ _______ _____ _____    ______ ____
ROOT
ATOM      1  C   UNL     1      10.247  -2.258  23.262  0.00  0.00    +0.065 C 
ENDROOT
BRANCH   1   2
ATOM      2  C   UNL     1      10.127  -0.763  23.445  0.00  0.00    -0.042 A 
ATOM      3  C   UNL     1      10.082   0.085  22.329  0.00  0.00    +0.049 A 
ATOM      4  C   UNL     1       9.933   1.457  22.501  0.00  0.00    +0.117 A 
ATOM      5  C   UNL     1       9.830   2.011  23.773  0.00  0.00    +0.045 A 
ATOM      6  C   UNL     1       9.877   1.175  24.888  0.00  0.00    +0.004 A 
ATOM      7  C   UNL     1      10.025  -0.204  24.727  0.00  0.00    +0.004 A 
BRANCH   4   8
ATOM      8  O   UNL     1       9.884   2.235  21.383  0.00  0.00    -0.507 OA
ATOM      9  H   UNL     1       9.826   1.658  20.604  0.00  0.00    +0.292 HD
ENDBRANCH   4   8
ENDBRANCH   1   2
BRANCH   1  10
ATOM     10  CA  UNL     1       9.232  -3.049  24.101  0.00  0.00    +0.165 C 
BRANCH  10  11
ATOM     11  N   UNL     1       9.789  -4.316  24.682  0.00  0.00    -0.318 NA
ATOM     12  H1  UNL     1      10.759  -4.132  24.962  0.00  0.00    +0.119 HD
ATOM     13  H2  UNL     1       9.307  -4.469  25.575  0.00  0.00    +0.119 HD
ENDBRANCH  10  11
BRANCH  10  14
ATOM     14  C   UNL     1       8.010  -3.427  23.245  0.00  0.00    +0.322 C 
ATOM     15  OXT UNL     1       7.278  -2.645  22.661  0.00  0.00    -0.249 OA
BRANCH  14  16
ATOM     16  O   UNL     1       7.820  -4.774  23.244  0.00  0.00    -0.480 OA
ATOM     17  H   UNL     1       8.726  -5.172  23.308  0.00  0.00    +0.295 HD
ENDBRANCH  14  16
ENDBRANCH  10  14
ENDBRANCH   1  10
TORSDOF 6
ENDMDL
MODEL 7
REMARK VINA RESULT:      -4.9      4.578      6.395
REMARK  Name = 
REMARK  6 active torsions:
REMARK  status: ('A' for Active; 'I' for Inactive)
REMARK    1  A    between atoms: N_1  and  CA_2
REMARK    2  A    between atoms: CA_2  and  C_4
REMARK    3  A    between atoms: CA_2  and  C_12
REMARK    4  A    between atoms: C_4  and  C_5
REMARK    5  A    between atoms: C_9  and  O_10
REMARK    6  A    between atoms: C_12  and  O_13
REMARK                            x       y       z     vdW  Elec       q    Type
REMARK                         _______ _______ _______ _____ _____    ______ ____
ROOT
ATOM      1  C   UNL     1       8.440  -2.597  25.899  0.00  0.00    +0.065 C 
ENDROOT
BRANCH   1   2
ATOM      2  C   UNL     1       9.161  -1.643  24.975  0.00  0.00    -0.042 A 
ATOM      3  C   UNL     1       9.433  -2.012  23.651  0.00  0.00    +0.049 A 
ATOM      4  C   UNL     1      10.064  -1.116  22.793  0.00  0.00    +0.117 A 
ATOM      5  C   UNL     1      10.436   0.150  23.230  0.00  0.00    +0.045 A 
ATOM      6  C   UNL     1      10.173   0.524  24.547  0.00  0.00    +0.004 A 
ATOM      7  C   UNL     1       9.538  -0.367  25.416  0.00  0.00    +0.004 A 
BRANCH   4   8
ATOM      8  O   UNL     1      10.295  -1.522  21.512  0.00  0.00    -0.507 OA
ATOM      9  H   UNL     1      10.167  -2.482  21.461  0.00  0.00    +0.292 HD
ENDBRANCH   4   8
ENDBRANCH   1   2
BRANCH   1  10
ATOM     10  CA  UNL     1       8.065  -3.924  25.219  0.00  0.00    +0.165 C 
BRANCH  10  11
ATOM     11  N   UNL     1       6.685  -4.404  25.560  0.00  0.00    -0.318 NA
ATOM     12  H1  UNL     1       6.765  -5.364  25.913  0.00  0.00    +0.119 HD
ATOM     13  H2  UNL     1       6.382  -3.872  26.384  0.00  0.00    +0.119 HD
ENDBRANCH  10  11
BRANCH  10  14
ATOM     14  C   UNL     1       9.057  -5.029  25.623  0.00  0.00    +0.322 C 
ATOM     15  OXT UNL     1      10.181  -5.179  25.175  0.00  0.00    -0.249 OA
BRANCH  14  16
ATOM     16  O   UNL     1       8.500  -5.862  26.543  0.00  0.00    -0.480 OA
ATOM     17  H   UNL     1       9.233  -6.460  26.842  0.00  0.00    +0.295 HD
ENDBRANCH  14  16
ENDBRANCH  10  14
ENDBRANCH   1  10
TORSDOF 6
ENDMDL
MODEL 8
REMARK VINA RESULT:      -4.9      4.103      7.850
REMARK  Name = 
REMARK  6 active torsions:
REMARK  status: ('A' for Active; 'I' for Inactive)
REMARK    1  A    between atoms: N_1  and  CA_2
REMARK    2  A    between atoms: CA_2  and  C_4
REMARK    3  A    between atoms: CA_2  and  C_12
REMARK    4  A    between atoms: C_4  and  C_5
REMARK    5  A    between atoms: C_9  and  O_10
REMARK    6  A    between atoms: C_12  and  O_13
REMARK                            x       y       z     vdW  Elec       q    Type
REMARK                         _______ _______ _______ _____ _____    ______ ____
ROOT
ATOM      1  C   UNL     1       8.410  -1.200  23.146  0.00  0.00    +0.065 C 
ENDROOT
BRANCH   1   2
ATOM      2  C   UNL     1       7.977  -2.647  23.093  0.00  0.00    -0.042 A 
ATOM      3  C   UNL     1       7.082  -3.082  22.107  0.00  0.00    +0.049 A 
ATOM      4  C   UNL     1       6.716  -4.423  22.038  0.00  0.00    +0.117 A 
ATOM      5  C   UNL     1       7.224  -5.349  22.942  0.00  0.00    +0.045 A 
ATOM      6  C   UNL     1       8.113  -4.924  23.929  0.00  0.00    +0.004 A 
ATOM      7  C   UNL     1       8.488  -3.581  24.006  0.00  0.00    +0.004 A 
BRANCH   4   8
ATOM      8  O   UNL     1       5.850  -4.794  21.053  0.00  0.00    -0.507 OA
ATOM      9  H   UNL     1       5.213  -4.076  20.910  0.00  0.00    +0.292 HD
ENDBRANCH   4   8
ENDBRANCH   1   2
BRANCH   1  10
ATOM     10  CA  UNL     1       9.136  -0.744  21.870  0.00  0.00    +0.165 C 
BRANCH  10  11
ATOM     11  N   UNL     1      10.383  -1.525  21.577  0.00  0.00    -0.318 NA
ATOM     12  H1  UNL     1      10.154  -2.522  21.654  0.00  0.00    +0.119 HD
ATOM     13  H2  UNL     1      10.580  -1.403  20.577  0.00  0.00    +0.119 HD
ENDBRANCH  10  11
BRANCH  10  14
ATOM     14  C   UNL     1       9.530   0.739  21.982  0.00  0.00    +0.322 C 
ATOM     15  OXT UNL     1      10.236   1.227  22.848  0.00  0.00    -0.249 OA
BRANCH  14  16
ATOM     16  O   UNL     1       8.952   1.467  20.988  0.00  0.00    -0.480 OA
ATOM     17  H   UNL     1       9.578   1.420  20.222  0.00  0.00    +0.295 HD
ENDBRANCH  14  16
ENDBRANCH  10  14
ENDBRANCH   1  10
TORSDOF 6
ENDMDL
MODEL 9
REMARK VINA RESULT:      -4.8      2.205      2.837
REMARK  Name = 
REMARK  6 active torsions:
REMARK  status: ('A' for Active; 'I' for Inactive)
REMARK    1  A    between atoms: N_1  and  CA_2
REMARK    2  A    between atoms: CA_2  and  C_4
REMARK    3  A    between atoms: CA_2  and  C_12
REMARK    4  A    between atoms: C_4  and  C_5
REMARK    5  A    between atoms: C_9  and  O_10
REMARK    6  A    between atoms: C_12  and  O_13
REMARK                            x       y       z     vdW  Elec       q    Type
REMARK                         _______ _______ _______ _____ _____    ______ ____
ROOT
ATOM      1  C   UNL     1       9.776  -0.026  24.742  0.00  0.00    +0.065 C 
ENDROOT
BRANCH   1   2
ATOM      2  C   UNL     1       9.685   1.463  24.499  0.00  0.00    -0.042 A 
ATOM      3  C   UNL     1      10.680   2.122  23.765  0.00  0.00    +0.049 A 
ATOM      4  C   UNL     1      10.573   3.486  23.511  0.00  0.00    +0.117 A 
ATOM      5  C   UNL     1       9.487   4.216  23.980  0.00  0.00    +0.045 A 
ATOM      6  C   UNL     1       8.494   3.570  24.715  0.00  0.00    +0.004 A 
ATOM      7  C   UNL     1       8.591   2.200  24.974  0.00  0.00    +0.004 A 
BRANCH   4   8
ATOM      8  O   UNL     1      11.563   4.075  22.783  0.00  0.00    -0.507 OA
ATOM      9  H   UNL     1      11.783   3.500  22.033  0.00  0.00    +0.292 HD
ENDBRANCH   4   8
ENDBRANCH   1   2
BRANCH   1  10
ATOM     10  CA  UNL     1       9.060  -0.855  23.664  0.00  0.00    +0.165 C 
BRANCH  10  11
ATOM     11  N   UNL     1       7.779  -1.477  24.138  0.00  0.00    -0.318 NA
ATOM     12  H1  UNL     1       8.013  -2.363  24.601  0.00  0.00    +0.119 HD
ATOM     13  H2  UNL     1       7.432  -0.891  24.907  0.00  0.00    +0.119 HD
ENDBRANCH  10  11
BRANCH  10  14
ATOM     14  C   UNL     1       9.974  -1.989  23.168  0.00  0.00    +0.322 C 
ATOM     15  OXT UNL     1      10.267  -2.994  23.792  0.00  0.00    -0.249 OA
BRANCH  14  16
ATOM     16  O   UNL     1      10.455  -1.711  21.926  0.00  0.00    -0.480 OA
ATOM     17  H   UNL     1      10.479  -2.578  21.447  0.00  0.00    +0.295 HD
ENDBRANCH  14  16
ENDBRANCH  10  14
ENDBRANCH   1  10
TORSDOF 6
ENDMDL
