MODEL 1
REMARK VINA RESULT:      -7.4      0.000      0.000
REMARK  Name = 
REMARK  10 active torsions:
REMARK  status: ('A' for Active; 'I' for Inactive)
REMARK    1  A    between atoms: C_1  and  C_2
REMARK    2  A    between atoms: C_2  and  C_3
REMARK    3  A    between atoms: C_3  and  C_4
REMARK    4  A    between atoms: C_4  and  C_5
REMARK    5  A    between atoms: C_9  and  C_10
REMARK    6  A    between atoms: C_10  and  O_11
REMARK    7  A    between atoms: N_12  and  C_13
REMARK    8  A    between atoms: C_13  and  C_14
REMARK    9  A    between atoms: C_17  and  C_20
REMARK   10  A    between atoms: C_25  and  C_26
REMARK                            x       y       z     vdW  Elec       q    Type
REMARK                         _______ _______ _______ _____ _____    ______ ____
ROOT
ATOM      1  C   UNL     1       9.681  -1.325  23.656  0.00  0.00    -0.028 A 
ATOM      2  C   UNL     1       9.814  -0.633  22.449  0.00  0.00    +0.006 A 
ATOM      3  C   UNL     1       9.889   0.768  22.423  0.00  0.00    +0.009 A 
ATOM      4  C   UNL     1       9.859   1.536  23.604  0.00  0.00    -0.017 A 
ATOM      5  C   UNL     1       9.818   0.816  24.809  0.00  0.00    +0.009 A 
ATOM      6  C   UNL     1       9.695  -0.580  24.838  0.00  0.00    +0.006 A 
ENDROOT
BRANCH   4   7
ATOM      7  C   UNL     1       9.870   3.029  23.558  0.00  0.00    -0.007 A 
ATOM      8  C   UNL     1       8.705   3.840  23.478  0.00  0.00    +0.030 A 
ATOM      9  C   UNL     1       8.828   5.250  23.469  0.00  0.00    +0.012 A 
ATOM     10  C   UNL     1      10.073   5.873  23.496  0.00  0.00    +0.001 A 
ATOM     11  C   UNL     1      11.221   5.098  23.552  0.00  0.00    +0.001 A 
ATOM     12  C   UNL     1      11.115   3.703  23.596  0.00  0.00    +0.009 A 
BRANCH   8  13
ATOM     13  C   UNL     1       7.347   3.311  23.380  0.00  0.00    +0.205 A 
ATOM     14  N   UNL     1       6.514   3.115  24.458  0.00  0.00    -0.108 NA
ATOM     15  N   UNL     1       5.368   2.651  23.983  0.00  0.00    -0.049 NA
ATOM     16  N   UNL     1       5.569   2.546  22.667  0.00  0.00    -0.176 N 
ATOM     17  H   UNL     1       4.851   2.191  22.046  0.00  0.00    +0.214 HD
ATOM     18  N   UNL     1       6.771   2.937  22.220  0.00  0.00    -0.133 NA
ENDBRANCH   8  13
ENDBRANCH   4   7
BRANCH   1  19
ATOM     19  C   UNL     1       9.588  -2.828  23.697  0.00  0.00    +0.158 C 
BRANCH  19  21
ATOM     20  C   UNL     1       7.091  -3.083  24.082  0.00  0.00    +0.112 A 
ATOM     21  N   UNL     1       8.414  -3.352  24.395  0.00  0.00    -0.324 N 
ATOM     22  C   UNL     1       8.415  -4.002  25.621  0.00  0.00    +0.083 A 
ATOM     23  C   UNL     1       7.090  -4.056  25.997  0.00  0.00    +0.153 A 
ATOM     24 CL   UNL     1       6.456  -4.704  27.438  0.00  0.00    -0.060 Cl
ATOM     25  N   UNL     1       6.298  -3.475  25.056  0.00  0.00    -0.220 NA
BRANCH  20  26
ATOM     26  C   UNL     1       6.582  -2.415  22.841  0.00  0.00    +0.074 C 
BRANCH  26  27
ATOM     27  C   UNL     1       5.918  -3.385  21.861  0.00  0.00    +0.007 C 
BRANCH  27  29
ATOM     28  C   UNL     1       5.848  -5.909  22.029  0.00  0.00    +0.004 C 
ATOM     29  C   UNL     1       6.689  -4.696  21.661  0.00  0.00    -0.003 C 
ENDBRANCH  27  29
ENDBRANCH  26  27
ENDBRANCH  20  26
BRANCH  22  30
ATOM     30  C   UNL     1       9.609  -4.484  26.348  0.00  0.00    +0.212 C 
BRANCH  30  31
ATOM     31  O   UNL     1      10.079  -5.638  25.674  0.00  0.00    -0.389 OA
ATOM     32  H   UNL     1       9.342  -6.275  25.653  0.00  0.00    +0.210 HD
ENDBRANCH  30  31
ENDBRANCH  22  30
ENDBRANCH  19  21
ENDBRANCH   1  19
TORSDOF 9
ENDMDL
MODEL 2
REMARK VINA RESULT:      -7.4      3.422      8.073
REMARK  Name = 
REMARK  10 active torsions:
REMARK  status: ('A' for Active; 'I' for Inactive)
REMARK    1  A    between atoms: C_1  and  C_2
REMARK    2  A    between atoms: C_2  and  C_3
REMARK    3  A    between atoms: C_3  and  C_4
REMARK    4  A    between atoms: C_4  and  C_5
REMARK    5  A    between atoms: C_9  and  C_10
REMARK    6  A    between atoms: C_10  and  O_11
REMARK    7  A    between atoms: N_12  and  C_13
REMARK    8  A    between atoms: C_13  and  C_14
REMARK    9  A    between atoms: C_17  and  C_20
REMARK   10  A    between atoms: C_25  and  C_26
REMARK                            x       y       z     vdW  Elec       q    Type
REMARK                         _______ _______ _______ _____ _____    ______ ____
ROOT
ATOM      1  C   UNL     1       8.081  -0.388  22.375  0.00  0.00    -0.028 A 
ATOM      2  C   UNL     1       6.941  -0.314  23.182  0.00  0.00    +0.006 A 
ATOM      3  C   UNL     1       6.269  -1.476  23.591  0.00  0.00    +0.009 A 
ATOM      4  C   UNL     1       6.720  -2.761  23.232  0.00  0.00    -0.017 A 
ATOM      5  C   UNL     1       7.916  -2.815  22.500  0.00  0.00    +0.009 A 
ATOM      6  C   UNL     1       8.565  -1.658  22.049  0.00  0.00    +0.006 A 
ENDROOT
BRANCH   4   7
ATOM      7  C   UNL     1       5.956  -3.986  23.617  0.00  0.00    -0.007 A 
ATOM      8  C   UNL     1       6.448  -5.003  24.480  0.00  0.00    +0.030 A 
ATOM      9  C   UNL     1       5.629  -6.112  24.802  0.00  0.00    +0.012 A 
ATOM     10  C   UNL     1       4.353  -6.256  24.261  0.00  0.00    +0.001 A 
ATOM     11  C   UNL     1       3.865  -5.286  23.400  0.00  0.00    +0.001 A 
ATOM     12  C   UNL     1       4.650  -4.166  23.098  0.00  0.00    +0.009 A 
BRANCH   8  13
ATOM     13  C   UNL     1       7.788  -5.003  25.061  0.00  0.00    +0.205 A 
ATOM     14  N   UNL     1       8.941  -5.224  24.343  0.00  0.00    -0.108 NA
ATOM     15  N   UNL     1       9.953  -5.124  25.194  0.00  0.00    -0.049 NA
ATOM     16  N   UNL     1       9.374  -4.894  26.375  0.00  0.00    -0.176 N 
ATOM     17  H   UNL     1       9.920  -4.791  27.224  0.00  0.00    +0.214 HD
ATOM     18  N   UNL     1       8.037  -4.805  26.371  0.00  0.00    -0.133 NA
ENDBRANCH   8  13
ENDBRANCH   4   7
BRANCH   1  19
ATOM     19  C   UNL     1       8.806   0.851  21.919  0.00  0.00    +0.158 C 
BRANCH  19  21
ATOM     20  C   UNL     1       9.618   1.961  24.054  0.00  0.00    +0.112 A 
ATOM     21  N   UNL     1       8.848   1.933  22.902  0.00  0.00    -0.324 N 
ATOM     22  C   UNL     1       7.959   2.996  22.985  0.00  0.00    +0.083 A 
ATOM     23  C   UNL     1       8.220   3.586  24.203  0.00  0.00    +0.153 A 
ATOM     24 CL   UNL     1       7.420   4.921  24.892  0.00  0.00    -0.060 Cl
ATOM     25  N   UNL     1       9.222   2.931  24.850  0.00  0.00    -0.220 NA
BRANCH  20  26
ATOM     26  C   UNL     1      10.734   1.027  24.408  0.00  0.00    +0.074 C 
BRANCH  26  27
ATOM     27  C   UNL     1      10.254  -0.265  25.072  0.00  0.00    +0.007 C 
BRANCH  27  29
ATOM     28  C   UNL     1       8.516  -1.407  26.513  0.00  0.00    +0.004 C 
ATOM     29  C   UNL     1       9.062  -0.076  26.018  0.00  0.00    -0.003 C 
ENDBRANCH  27  29
ENDBRANCH  26  27
ENDBRANCH  20  26
BRANCH  22  30
ATOM     30  C   UNL     1       6.943   3.360  21.974  0.00  0.00    +0.212 C 
BRANCH  30  31
ATOM     31  O   UNL     1       7.190   4.701  21.588  0.00  0.00    -0.389 OA
ATOM     32  H   UNL     1       7.608   5.143  22.349  0.00  0.00    +0.210 HD
ENDBRANCH  30  31
ENDBRANCH  22  30
ENDBRANCH  19  21
ENDBRANCH   1  19
TORSDOF 9
ENDMDL
MODEL 3
REMARK VINA RESULT:      -7.1      3.295      7.996
REMARK  Name = 
REMARK  10 active torsions:
REMARK  status: ('A' for Active; 'I' for Inactive)
REMARK    1  A    between atoms: C_1  and  C_2
REMARK    2  A    between atoms: C_2  and  C_3
REMARK    3  A    between atoms: C_3  and  C_4
REMARK    4  A    between atoms: C_4  and  C_5
REMARK    5  A    between atoms: C_9  and  C_10
REMARK    6  A    between atoms: C_10  and  O_11
REMARK    7  A    between atoms: N_12  and  C_13
REMARK    8  A    between atoms: C_13  and  C_14
REMARK    9  A    between atoms: C_17  and  C_20
REMARK   10  A    between atoms: C_25  and  C_26
REMARK                            x       y       z     vdW  Elec       q    Type
REMARK                         _______ _______ _______ _____ _____    ______ ____
ROOT
ATOM      1  C   UNL     1       7.659   0.052  25.141  0.00  0.00    -0.028 A 
ATOM      2  C   UNL     1       6.351  -0.297  24.791  0.00  0.00    +0.006 A 
ATOM      3  C   UNL     1       6.074  -1.520  24.160  0.00  0.00    +0.009 A 
ATOM      4  C   UNL     1       7.087  -2.456  23.876  0.00  0.00    -0.017 A 
ATOM      5  C   UNL     1       8.377  -2.126  24.319  0.00  0.00    +0.009 A 
ATOM      6  C   UNL     1       8.668  -0.886  24.905  0.00  0.00    +0.006 A 
ENDROOT
BRANCH   4   7
ATOM      7  C   UNL     1       6.788  -3.723  23.143  0.00  0.00    -0.007 A 
ATOM      8  C   UNL     1       6.851  -5.021  23.721  0.00  0.00    +0.030 A 
ATOM      9  C   UNL     1       6.520  -6.156  22.943  0.00  0.00    +0.012 A 
ATOM     10  C   UNL     1       6.167  -6.041  21.600  0.00  0.00    +0.001 A 
ATOM     11  C   UNL     1       6.122  -4.786  21.014  0.00  0.00    +0.001 A 
ATOM     12  C   UNL     1       6.413  -3.650  21.779  0.00  0.00    +0.009 A 
BRANCH   8  13
ATOM     13  C   UNL     1       7.267  -5.282  25.097  0.00  0.00    +0.205 A 
ATOM     14  N   UNL     1       6.398  -5.396  26.158  0.00  0.00    -0.108 NA
ATOM     15  N   UNL     1       7.130  -5.655  27.232  0.00  0.00    -0.049 NA
ATOM     16  N   UNL     1       8.389  -5.643  26.790  0.00  0.00    -0.176 N 
ATOM     17  H   UNL     1       9.174  -5.796  27.414  0.00  0.00    +0.214 HD
ATOM     18  N   UNL     1       8.552  -5.419  25.478  0.00  0.00    -0.133 NA
ENDBRANCH   8  13
ENDBRANCH   4   7
BRANCH   1  19
ATOM     19  C   UNL     1       7.972   1.366  25.808  0.00  0.00    +0.158 C 
BRANCH  19  21
ATOM     20  C   UNL     1       8.845   3.045  24.114  0.00  0.00    +0.112 A 
ATOM     21  N   UNL     1       7.854   2.538  24.940  0.00  0.00    -0.324 N 
ATOM     22  C   UNL     1       6.833   3.477  24.971  0.00  0.00    +0.083 A 
ATOM     23  C   UNL     1       7.283   4.518  24.188  0.00  0.00    +0.153 A 
ATOM     24 CL   UNL     1       6.484   5.989  23.874  0.00  0.00    -0.060 Cl
ATOM     25  N   UNL     1       8.519   4.247  23.688  0.00  0.00    -0.220 NA
BRANCH  20  26
ATOM     26  C   UNL     1      10.136   2.379  23.749  0.00  0.00    +0.074 C 
BRANCH  26  27
ATOM     27  C   UNL     1      10.211   1.972  22.277  0.00  0.00    +0.007 C 
BRANCH  27  29
ATOM     28  C   UNL     1       9.362  -0.217  21.334  0.00  0.00    +0.004 C 
ATOM     29  C   UNL     1       8.989   1.188  21.781  0.00  0.00    -0.003 C 
ENDBRANCH  27  29
ENDBRANCH  26  27
ENDBRANCH  20  26
BRANCH  22  30
ATOM     30  C   UNL     1       5.566   3.360  25.725  0.00  0.00    +0.212 C 
BRANCH  30  31
ATOM     31  O   UNL     1       4.588   2.851  24.834  0.00  0.00    -0.389 OA
ATOM     32  H   UNL     1       4.364   3.571  24.217  0.00  0.00    +0.210 HD
ENDBRANCH  30  31
ENDBRANCH  22  30
ENDBRANCH  19  21
ENDBRANCH   1  19
TORSDOF 9
ENDMDL
MODEL 4
REMARK VINA RESULT:      -6.9      3.472      8.135
REMARK  Name = 
REMARK  10 active torsions:
REMARK  status: ('A' for Active; 'I' for Inactive)
REMARK    1  A    between atoms: C_1  and  C_2
REMARK    2  A    between atoms: C_2  and  C_3
REMARK    3  A    between atoms: C_3  and  C_4
REMARK    4  A    between atoms: C_4  and  C_5
REMARK    5  A    between atoms: C_9  and  C_10
REMARK    6  A    between atoms: C_10  and  O_11
REMARK    7  A    between atoms: N_12  and  C_13
REMARK    8  A    between atoms: C_13  and  C_14
REMARK    9  A    between atoms: C_17  and  C_20
REMARK   10  A    between atoms: C_25  and  C_26
REMARK                            x       y       z     vdW  Elec       q    Type
REMARK                         _______ _______ _______ _____ _____    ______ ____
ROOT
ATOM      1  C   UNL     1       7.159   0.125  25.719  0.00  0.00    -0.028 A 
ATOM      2  C   UNL     1       7.330  -1.027  26.493  0.00  0.00    +0.006 A 
ATOM      3  C   UNL     1       6.835  -2.267  26.063  0.00  0.00    +0.009 A 
ATOM      4  C   UNL     1       6.169  -2.415  24.830  0.00  0.00    -0.017 A 
ATOM      5  C   UNL     1       6.090  -1.265  24.029  0.00  0.00    +0.009 A 
ATOM      6  C   UNL     1       6.540  -0.015  24.474  0.00  0.00    +0.006 A 
ENDROOT
BRANCH   4   7
ATOM      7  C   UNL     1       5.587  -3.726  24.416  0.00  0.00    -0.007 A 
ATOM      8  C   UNL     1       6.271  -4.971  24.492  0.00  0.00    +0.030 A 
ATOM      9  C   UNL     1       5.615  -6.161  24.098  0.00  0.00    +0.012 A 
ATOM     10  C   UNL     1       4.315  -6.144  23.595  0.00  0.00    +0.001 A 
ATOM     11  C   UNL     1       3.640  -4.938  23.493  0.00  0.00    +0.001 A 
ATOM     12  C   UNL     1       4.264  -3.756  23.911  0.00  0.00    +0.009 A 
BRANCH   8  13
ATOM     13  C   UNL     1       7.654  -5.116  24.939  0.00  0.00    +0.205 A 
ATOM     14  N   UNL     1       8.751  -4.784  24.177  0.00  0.00    -0.108 NA
ATOM     15  N   UNL     1       9.824  -5.027  24.916  0.00  0.00    -0.049 NA
ATOM     16  N   UNL     1       9.339  -5.526  26.055  0.00  0.00    -0.176 N 
ATOM     17  H   UNL     1       9.950  -5.823  26.808  0.00  0.00    +0.214 HD
ATOM     18  N   UNL     1       8.004  -5.610  26.142  0.00  0.00    -0.133 NA
ENDBRANCH   8  13
ENDBRANCH   4   7
BRANCH   1  19
ATOM     19  C   UNL     1       7.676   1.465  26.174  0.00  0.00    +0.158 C 
BRANCH  19  21
ATOM     20  C   UNL     1       9.438   2.189  24.495  0.00  0.00    +0.112 A 
ATOM     21  N   UNL     1       8.200   2.315  25.105  0.00  0.00    -0.324 N 
ATOM     22  C   UNL     1       7.666   3.526  24.688  0.00  0.00    +0.083 A 
ATOM     23  C   UNL     1       8.630   4.080  23.875  0.00  0.00    +0.153 A 
ATOM     24 CL   UNL     1       8.571   5.592  23.094  0.00  0.00    -0.060 Cl
ATOM     25  N   UNL     1       9.712   3.261  23.783  0.00  0.00    -0.220 NA
BRANCH  20  26
ATOM     26  C   UNL     1      10.384   1.034  24.617  0.00  0.00    +0.074 C 
BRANCH  26  27
ATOM     27  C   UNL     1      10.452   0.170  23.356  0.00  0.00    +0.007 C 
BRANCH  27  29
ATOM     28  C   UNL     1       9.255  -1.766  22.252  0.00  0.00    +0.004 C 
ATOM     29  C   UNL     1       9.881  -1.242  23.535  0.00  0.00    -0.003 C 
ENDBRANCH  27  29
ENDBRANCH  26  27
ENDBRANCH  20  26
BRANCH  22  30
ATOM     30  C   UNL     1       6.352   4.079  25.085  0.00  0.00    +0.212 C 
BRANCH  30  31
ATOM     31  O   UNL     1       5.392   3.591  24.164  0.00  0.00    -0.389 OA
ATOM     32  H   UNL     1       5.479   4.125  23.354  0.00  0.00    +0.210 HD
ENDBRANCH  30  31
ENDBRANCH  22  30
ENDBRANCH  19  21
ENDBRANCH   1  19
TORSDOF 9
ENDMDL
MODEL 5
REMARK VINA RESULT:      -6.9      3.613      8.088
REMARK  Name = 
REMARK  10 active torsions:
REMARK  status: ('A' for Active; 'I' for Inactive)
REMARK    1  A    between atoms: C_1  and  C_2
REMARK    2  A    between atoms: C_2  and  C_3
REMARK    3  A    between atoms: C_3  and  C_4
REMARK    4  A    between atoms: C_4  and  C_5
REMARK    5  A    between atoms: C_9  and  C_10
REMARK    6  A    between atoms: C_10  and  O_11
REMARK    7  A    between atoms: N_12  and  C_13
REMARK    8  A    between atoms: C_13  and  C_14
REMARK    9  A    between atoms: C_17  and  C_20
REMARK   10  A    between atoms: C_25  and  C_26
REMARK                            x       y       z     vdW  Elec       q    Type
REMARK                         _______ _______ _______ _____ _____    ______ ____
ROOT
ATOM      1  C   UNL     1       8.301  -1.433  24.822  0.00  0.00    -0.028 A 
ATOM      2  C   UNL     1       7.128  -1.568  24.073  0.00  0.00    +0.006 A 
ATOM      3  C   UNL     1       6.270  -2.662  24.263  0.00  0.00    +0.009 A 
ATOM      4  C   UNL     1       6.533  -3.654  25.227  0.00  0.00    -0.017 A 
ATOM      5  C   UNL     1       7.666  -3.450  26.031  0.00  0.00    +0.009 A 
ATOM      6  C   UNL     1       8.552  -2.386  25.813  0.00  0.00    +0.006 A 
ENDROOT
BRANCH   4   7
ATOM      7  C   UNL     1       5.648  -4.848  25.373  0.00  0.00    -0.007 A 
ATOM      8  C   UNL     1       5.388  -5.788  24.337  0.00  0.00    +0.030 A 
ATOM      9  C   UNL     1       4.553  -6.902  24.590  0.00  0.00    +0.012 A 
ATOM     10  C   UNL     1       3.939  -7.087  25.827  0.00  0.00    +0.001 A 
ATOM     11  C   UNL     1       4.163  -6.169  26.842  0.00  0.00    +0.001 A 
ATOM     12  C   UNL     1       5.013  -5.079  26.618  0.00  0.00    +0.009 A 
BRANCH   8  13
ATOM     13  C   UNL     1       5.918  -5.675  22.981  0.00  0.00    +0.205 A 
ATOM     14  N   UNL     1       5.184  -5.245  21.899  0.00  0.00    -0.108 NA
ATOM     15  N   UNL     1       5.997  -5.251  20.852  0.00  0.00    -0.049 NA
ATOM     16  N   UNL     1       7.153  -5.718  21.330  0.00  0.00    -0.176 N 
ATOM     17  H   UNL     1       7.962  -5.847  20.732  0.00  0.00    +0.214 HD
ATOM     18  N   UNL     1       7.180  -6.001  22.640  0.00  0.00    -0.133 NA
ENDBRANCH   8  13
ENDBRANCH   4   7
BRANCH   1  19
ATOM     19  C   UNL     1       9.236  -0.270  24.620  0.00  0.00    +0.158 C 
BRANCH  19  21
ATOM     20  C   UNL     1       7.661   1.664  25.095  0.00  0.00    +0.112 A 
ATOM     21  N   UNL     1       8.579   0.997  24.300  0.00  0.00    -0.324 N 
ATOM     22  C   UNL     1       8.571   1.623  23.061  0.00  0.00    +0.083 A 
ATOM     23  C   UNL     1       7.619   2.613  23.168  0.00  0.00    +0.153 A 
ATOM     24 CL   UNL     1       7.122   3.697  21.953  0.00  0.00    -0.060 Cl
ATOM     25  N   UNL     1       7.060   2.612  24.409  0.00  0.00    -0.220 NA
BRANCH  20  26
ATOM     26  C   UNL     1       7.336   1.370  26.528  0.00  0.00    +0.074 C 
BRANCH  26  27
ATOM     27  C   UNL     1       5.912   0.850  26.731  0.00  0.00    +0.007 C 
BRANCH  27  29
ATOM     28  C   UNL     1       4.539  -1.220  27.212  0.00  0.00    +0.004 C 
ATOM     29  C   UNL     1       5.835  -0.477  27.496  0.00  0.00    -0.003 C 
ENDBRANCH  27  29
ENDBRANCH  26  27
ENDBRANCH  20  26
BRANCH  22  30
ATOM     30  C   UNL     1       9.400   1.251  21.894  0.00  0.00    +0.212 C 
BRANCH  30  31
ATOM     31  O   UNL     1      10.285   2.328  21.642  0.00  0.00    -0.389 OA
ATOM     32  H   UNL     1      10.250   2.507  20.686  0.00  0.00    +0.210 HD
ENDBRANCH  30  31
ENDBRANCH  22  30
ENDBRANCH  19  21
ENDBRANCH   1  19
TORSDOF 9
ENDMDL
MODEL 6
REMARK VINA RESULT:      -6.8      3.487      8.033
REMARK  Name = 
REMARK  10 active torsions:
REMARK  status: ('A' for Active; 'I' for Inactive)
REMARK    1  A    between atoms: C_1  and  C_2
REMARK    2  A    between atoms: C_2  and  C_3
REMARK    3  A    between atoms: C_3  and  C_4
REMARK    4  A    between atoms: C_4  and  C_5
REMARK    5  A    between atoms: C_9  and  C_10
REMARK    6  A    between atoms: C_10  and  O_11
REMARK    7  A    between atoms: N_12  and  C_13
REMARK    8  A    between atoms: C_13  and  C_14
REMARK    9  A    between atoms: C_17  and  C_20
REMARK   10  A    between atoms: C_25  and  C_26
REMARK                            x       y       z     vdW  Elec       q    Type
REMARK                         _______ _______ _______ _____ _____    ______ ____
ROOT
ATOM      1  C   UNL     1       7.263  -0.922  25.782  0.00  0.00    -0.028 A 
ATOM      2  C   UNL     1       7.936  -2.107  26.096  0.00  0.00    +0.006 A 
ATOM      3  C   UNL     1       7.288  -3.349  26.015  0.00  0.00    +0.009 A 
ATOM      4  C   UNL     1       5.949  -3.463  25.593  0.00  0.00    -0.017 A 
ATOM      5  C   UNL     1       5.323  -2.271  25.194  0.00  0.00    +0.009 A 
ATOM      6  C   UNL     1       5.949  -1.023  25.319  0.00  0.00    +0.006 A 
ENDROOT
BRANCH   4   7
ATOM      7  C   UNL     1       5.251  -4.783  25.576  0.00  0.00    -0.007 A 
ATOM      8  C   UNL     1       5.140  -5.621  24.432  0.00  0.00    +0.030 A 
ATOM      9  C   UNL     1       4.479  -6.868  24.533  0.00  0.00    +0.012 A 
ATOM     10  C   UNL     1       3.893  -7.287  25.725  0.00  0.00    +0.001 A 
ATOM     11  C   UNL     1       3.972  -6.475  26.845  0.00  0.00    +0.001 A 
ATOM     12  C   UNL     1       4.651  -5.252  26.770  0.00  0.00    +0.009 A 
BRANCH   8  13
ATOM     13  C   UNL     1       5.655  -5.269  23.110  0.00  0.00    +0.205 A 
ATOM     14  N   UNL     1       5.003  -4.445  22.222  0.00  0.00    -0.108 NA
ATOM     15  N   UNL     1       5.776  -4.340  21.152  0.00  0.00    -0.049 NA
ATOM     16  N   UNL     1       6.822  -5.126  21.416  0.00  0.00    -0.176 N 
ATOM     17  H   UNL     1       7.575  -5.252  20.749  0.00  0.00    +0.214 HD
ATOM     18  N   UNL     1       6.816  -5.734  22.611  0.00  0.00    -0.133 NA
ENDBRANCH   8  13
ENDBRANCH   4   7
BRANCH   1  19
ATOM     19  C   UNL     1       7.943   0.419  25.876  0.00  0.00    +0.158 C 
BRANCH  19  21
ATOM     20  C   UNL     1       9.197   1.162  23.797  0.00  0.00    +0.112 A 
ATOM     21  N   UNL     1       8.072   1.132  24.605  0.00  0.00    -0.324 N 
ATOM     22  C   UNL     1       7.193   2.085  24.111  0.00  0.00    +0.083 A 
ATOM     23  C   UNL     1       7.855   2.664  23.050  0.00  0.00    +0.153 A 
ATOM     24 CL   UNL     1       7.302   3.937  22.063  0.00  0.00    -0.060 Cl
ATOM     25  N   UNL     1       9.084   2.103  22.884  0.00  0.00    -0.220 NA
BRANCH  20  26
ATOM     26  C   UNL     1      10.412   0.294  23.919  0.00  0.00    +0.074 C 
BRANCH  26  27
ATOM     27  C   UNL     1      10.183  -1.138  23.433  0.00  0.00    +0.007 C 
BRANCH  27  29
ATOM     28  C   UNL     1       8.069  -1.995  22.338  0.00  0.00    +0.004 C 
ATOM     29  C   UNL     1       9.371  -1.235  22.135  0.00  0.00    -0.003 C 
ENDBRANCH  27  29
ENDBRANCH  26  27
ENDBRANCH  20  26
BRANCH  22  30
ATOM     30  C   UNL     1       5.856   2.402  24.657  0.00  0.00    +0.212 C 
BRANCH  30  31
ATOM     31  O   UNL     1       4.895   1.858  23.770  0.00  0.00    -0.389 OA
ATOM     32  H   UNL     1       4.603   1.011  24.151  0.00  0.00    +0.210 HD
ENDBRANCH  30  31
ENDBRANCH  22  30
ENDBRANCH  19  21
ENDBRANCH   1  19
TORSDOF 9
ENDMDL
MODEL 7
REMARK VINA RESULT:      -6.7      1.294      1.700
REMARK  Name = 
REMARK  10 active torsions:
REMARK  status: ('A' for Active; 'I' for Inactive)
REMARK    1  A    between atoms: C_1  and  C_2
REMARK    2  A    between atoms: C_2  and  C_3
REMARK    3  A    between atoms: C_3  and  C_4
REMARK    4  A    between atoms: C_4  and  C_5
REMARK    5  A    between atoms: C_9  and  C_10
REMARK    6  A    between atoms: C_10  and  O_11
REMARK    7  A    between atoms: N_12  and  C_13
REMARK    8  A    between atoms: C_13  and  C_14
REMARK    9  A    between atoms: C_17  and  C_20
REMARK   10  A    between atoms: C_25  and  C_26
REMARK                            x       y       z     vdW  Elec       q    Type
REMARK                         _______ _______ _______ _____ _____    ______ ____
ROOT
ATOM      1  C   UNL     1       8.747  -2.000  23.664  0.00  0.00    -0.028 A 
ATOM      2  C   UNL     1       9.498  -1.468  24.717  0.00  0.00    +0.006 A 
ATOM      3  C   UNL     1       9.717  -0.086  24.823  0.00  0.00    +0.009 A 
ATOM      4  C   UNL     1       9.173   0.826  23.897  0.00  0.00    -0.017 A 
ATOM      5  C   UNL     1       8.346   0.279  22.903  0.00  0.00    +0.009 A 
ATOM      6  C   UNL     1       8.164  -1.104  22.764  0.00  0.00    +0.006 A 
ENDROOT
BRANCH   4   7
ATOM      7  C   UNL     1       9.469   2.287  23.982  0.00  0.00    -0.007 A 
ATOM      8  C   UNL     1       8.635   3.241  24.628  0.00  0.00    +0.030 A 
ATOM      9  C   UNL     1       9.025   4.601  24.675  0.00  0.00    +0.012 A 
ATOM     10  C   UNL     1      10.197   5.044  24.066  0.00  0.00    +0.001 A 
ATOM     11  C   UNL     1      11.011   4.133  23.412  0.00  0.00    +0.001 A 
ATOM     12  C   UNL     1      10.656   2.778  23.386  0.00  0.00    +0.009 A 
BRANCH   8  13
ATOM     13  C   UNL     1       7.353   2.917  25.249  0.00  0.00    +0.205 A 
ATOM     14  N   UNL     1       7.201   2.577  26.574  0.00  0.00    -0.108 NA
ATOM     15  N   UNL     1       5.907   2.377  26.777  0.00  0.00    -0.049 NA
ATOM     16  N   UNL     1       5.349   2.559  25.578  0.00  0.00    -0.176 N 
ATOM     17  H   UNL     1       4.351   2.448  25.433  0.00  0.00    +0.214 HD
ATOM     18  N   UNL     1       6.182   2.896  24.583  0.00  0.00    -0.133 NA
ENDBRANCH   8  13
ENDBRANCH   4   7
BRANCH   1  19
ATOM     19  C   UNL     1       8.514  -3.482  23.532  0.00  0.00    +0.158 C 
BRANCH  19  21
ATOM     20  C   UNL     1       6.231  -3.945  24.542  0.00  0.00    +0.112 A 
ATOM     21  N   UNL     1       7.613  -4.053  24.532  0.00  0.00    -0.324 N 
ATOM     22  C   UNL     1       7.985  -4.585  25.759  0.00  0.00    +0.083 A 
ATOM     23  C   UNL     1       6.806  -4.736  26.455  0.00  0.00    +0.153 A 
ATOM     24 CL   UNL     1       6.617  -5.308  28.048  0.00  0.00    -0.060 Cl
ATOM     25  N   UNL     1       5.747  -4.323  25.706  0.00  0.00    -0.220 NA
BRANCH  20  26
ATOM     26  C   UNL     1       5.363  -3.448  23.427  0.00  0.00    +0.074 C 
BRANCH  26  27
ATOM     27  C   UNL     1       4.581  -4.560  22.727  0.00  0.00    +0.007 C 
BRANCH  27  29
ATOM     28  C   UNL     1       6.290  -5.563  21.154  0.00  0.00    +0.004 C 
ATOM     29  C   UNL     1       5.423  -5.795  22.382  0.00  0.00    -0.003 C 
ENDBRANCH  27  29
ENDBRANCH  26  27
ENDBRANCH  20  26
BRANCH  22  30
ATOM     30  C   UNL     1       9.367  -4.880  26.196  0.00  0.00    +0.212 C 
BRANCH  30  31
ATOM     31  O   UNL     1       9.791  -6.044  25.507  0.00  0.00    -0.389 OA
ATOM     32  H   UNL     1      10.703  -6.228  25.795  0.00  0.00    +0.210 HD
ENDBRANCH  30  31
ENDBRANCH  22  30
ENDBRANCH  19  21
ENDBRANCH   1  19
TORSDOF 9
ENDMDL
MODEL 8
REMARK VINA RESULT:      -6.7      3.071      7.689
REMARK  Name = 
REMARK  10 active torsions:
REMARK  status: ('A' for Active; 'I' for Inactive)
REMARK    1  A    between atoms: C_1  and  C_2
REMARK    2  A    between atoms: C_2  and  C_3
REMARK    3  A    between atoms: C_3  and  C_4
REMARK    4  A    between atoms: C_4  and  C_5
REMARK    5  A    between atoms: C_9  and  C_10
REMARK    6  A    between atoms: C_10  and  O_11
REMARK    7  A    between atoms: N_12  and  C_13
REMARK    8  A    between atoms: C_13  and  C_14
REMARK    9  A    between atoms: C_17  and  C_20
REMARK   10  A    between atoms: C_25  and  C_26
REMARK                            x       y       z     vdW  Elec       q    Type
REMARK                         _______ _______ _______ _____ _____    ______ ____
ROOT
ATOM      1  C   UNL     1       8.498  -0.006  24.786  0.00  0.00    -0.028 A 
ATOM      2  C   UNL     1       9.408  -0.892  24.202  0.00  0.00    +0.006 A 
ATOM      3  C   UNL     1       8.968  -2.048  23.539  0.00  0.00    +0.009 A 
ATOM      4  C   UNL     1       7.600  -2.354  23.408  0.00  0.00    -0.017 A 
ATOM      5  C   UNL     1       6.702  -1.404  23.919  0.00  0.00    +0.009 A 
ATOM      6  C   UNL     1       7.136  -0.273  24.625  0.00  0.00    +0.006 A 
ENDROOT
BRANCH   4   7
ATOM      7  C   UNL     1       7.147  -3.621  22.759  0.00  0.00    -0.007 A 
ATOM      8  C   UNL     1       7.362  -4.921  23.295  0.00  0.00    +0.030 A 
ATOM      9  C   UNL     1       6.867  -6.056  22.611  0.00  0.00    +0.012 A 
ATOM     10  C   UNL     1       6.200  -5.939  21.394  0.00  0.00    +0.001 A 
ATOM     11  C   UNL     1       6.001  -4.683  20.845  0.00  0.00    +0.001 A 
ATOM     12  C   UNL     1       6.455  -3.547  21.526  0.00  0.00    +0.009 A 
BRANCH   8  13
ATOM     13  C   UNL     1       8.100  -5.183  24.529  0.00  0.00    +0.205 A 
ATOM     14  N   UNL     1       7.540  -5.151  25.786  0.00  0.00    -0.108 NA
ATOM     15  N   UNL     1       8.499  -5.460  26.646  0.00  0.00    -0.049 NA
ATOM     16  N   UNL     1       9.587  -5.620  25.889  0.00  0.00    -0.176 N 
ATOM     17  H   UNL     1      10.489  -5.847  26.295  0.00  0.00    +0.214 HD
ATOM     18  N   UNL     1       9.417  -5.465  24.569  0.00  0.00    -0.133 NA
ENDBRANCH   8  13
ENDBRANCH   4   7
BRANCH   1  19
ATOM     19  C   UNL     1       8.958   1.232  25.510  0.00  0.00    +0.158 C 
BRANCH  19  21
ATOM     20  C   UNL     1       7.880   3.365  24.651  0.00  0.00    +0.112 A 
ATOM     21  N   UNL     1       7.978   2.317  25.553  0.00  0.00    -0.324 N 
ATOM     22  C   UNL     1       7.143   2.623  26.619  0.00  0.00    +0.083 A 
ATOM     23  C   UNL     1       6.614   3.859  26.315  0.00  0.00    +0.153 A 
ATOM     24 CL   UNL     1       5.546   4.783  27.266  0.00  0.00    -0.060 Cl
ATOM     25  N   UNL     1       7.088   4.305  25.120  0.00  0.00    -0.220 NA
BRANCH  20  26
ATOM     26  C   UNL     1       8.576   3.477  23.329  0.00  0.00    +0.074 C 
BRANCH  26  27
ATOM     27  C   UNL     1       7.656   3.216  22.136  0.00  0.00    +0.007 C 
BRANCH  27  29
ATOM     28  C   UNL     1       9.074   1.271  21.357  0.00  0.00    +0.004 C 
ATOM     29  C   UNL     1       7.664   1.763  21.646  0.00  0.00    -0.003 C 
ENDBRANCH  27  29
ENDBRANCH  26  27
ENDBRANCH  20  26
BRANCH  22  30
ATOM     30  C   UNL     1       6.925   1.788  27.820  0.00  0.00    +0.212 C 
BRANCH  30  31
ATOM     31  O   UNL     1       7.615   2.401  28.894  0.00  0.00    -0.389 OA
ATOM     32  H   UNL     1       8.268   3.008  28.503  0.00  0.00    +0.210 HD
ENDBRANCH  30  31
ENDBRANCH  22  30
ENDBRANCH  19  21
ENDBRANCH   1  19
TORSDOF 9
ENDMDL
MODEL 9
REMARK VINA RESULT:      -6.6      3.465      7.784
REMARK  Name = 
REMARK  10 active torsions:
REMARK  status: ('A' for Active; 'I' for Inactive)
REMARK    1  A    between atoms: C_1  and  C_2
REMARK    2  A    between atoms: C_2  and  C_3
REMARK    3  A    between atoms: C_3  and  C_4
REMARK    4  A    between atoms: C_4  and  C_5
REMARK    5  A    between atoms: C_9  and  C_10
REMARK    6  A    between atoms: C_10  and  O_11
REMARK    7  A    between atoms: N_12  and  C_13
REMARK    8  A    between atoms: C_13  and  C_14
REMARK    9  A    between atoms: C_17  and  C_20
REMARK   10  A    between atoms: C_25  and  C_26
REMARK                            x       y       z     vdW  Elec       q    Type
REMARK                         _______ _______ _______ _____ _____    ______ ____
ROOT
ATOM      1  C   UNL     1       7.251   0.952  22.570  0.00  0.00    -0.028 A 
ATOM      2  C   UNL     1       6.551   0.629  23.737  0.00  0.00    +0.006 A 
ATOM      3  C   UNL     1       6.795  -0.575  24.415  0.00  0.00    +0.009 A 
ATOM      4  C   UNL     1       7.764  -1.495  23.972  0.00  0.00    -0.017 A 
ATOM      5  C   UNL     1       8.519  -1.108  22.853  0.00  0.00    +0.009 A 
ATOM      6  C   UNL     1       8.247   0.070  22.144  0.00  0.00    +0.006 A 
ENDROOT
BRANCH   4   7
ATOM      7  C   UNL     1       7.966  -2.803  24.664  0.00  0.00    -0.007 A 
ATOM      8  C   UNL     1       7.590  -4.065  24.126  0.00  0.00    +0.030 A 
ATOM      9  C   UNL     1       7.852  -5.249  24.856  0.00  0.00    +0.012 A 
ATOM     10  C   UNL     1       8.439  -5.211  26.119  0.00  0.00    +0.001 A 
ATOM     11  C   UNL     1       8.791  -3.989  26.669  0.00  0.00    +0.001 A 
ATOM     12  C   UNL     1       8.569  -2.811  25.946  0.00  0.00    +0.009 A 
BRANCH   8  13
ATOM     13  C   UNL     1       6.912  -4.235  22.843  0.00  0.00    +0.205 A 
ATOM     14  N   UNL     1       5.893  -3.426  22.394  0.00  0.00    -0.108 NA
ATOM     15  N   UNL     1       5.548  -3.867  21.193  0.00  0.00    -0.049 NA
ATOM     16  N   UNL     1       6.329  -4.931  20.991  0.00  0.00    -0.176 N 
ATOM     17  H   UNL     1       6.264  -5.485  20.144  0.00  0.00    +0.214 HD
ATOM     18  N   UNL     1       7.199  -5.220  21.969  0.00  0.00    -0.133 NA
ENDBRANCH   8  13
ENDBRANCH   4   7
BRANCH   1  19
ATOM     19  C   UNL     1       6.991   2.236  21.825  0.00  0.00    +0.158 C 
BRANCH  19  21
ATOM     20  C   UNL     1       7.609   4.033  23.509  0.00  0.00    +0.112 A 
ATOM     21  N   UNL     1       6.707   3.391  22.676  0.00  0.00    -0.324 N 
ATOM     22  C   UNL     1       5.449   3.891  22.981  0.00  0.00    +0.083 A 
ATOM     23  C   UNL     1       5.660   4.783  24.010  0.00  0.00    +0.153 A 
ATOM     24 CL   UNL     1       4.483   5.688  24.844  0.00  0.00    -0.060 Cl
ATOM     25  N   UNL     1       6.980   4.844  24.333  0.00  0.00    -0.220 NA
BRANCH  20  26
ATOM     26  C   UNL     1       9.095   3.847  23.534  0.00  0.00    +0.074 C 
BRANCH  26  27
ATOM     27  C   UNL     1       9.550   2.731  24.477  0.00  0.00    +0.007 C 
BRANCH  27  29
ATOM     28  C   UNL     1      10.924   0.625  24.757  0.00  0.00    +0.004 C 
ATOM     29  C   UNL     1      10.704   1.882  23.929  0.00  0.00    -0.003 C 
ENDBRANCH  27  29
ENDBRANCH  26  27
ENDBRANCH  20  26
BRANCH  22  30
ATOM     30  C   UNL     1       4.177   3.497  22.338  0.00  0.00    +0.212 C 
BRANCH  30  31
ATOM     31  O   UNL     1       3.478   2.670  23.252  0.00  0.00    -0.389 OA
ATOM     32  H   UNL     1       2.590   2.523  22.880  0.00  0.00    +0.210 HD
ENDBRANCH  30  31
ENDBRANCH  22  30
ENDBRANCH  19  21
ENDBRANCH   1  19
TORSDOF 9
ENDMDL
