MODEL 1
REMARK VINA RESULT:      -6.9      0.000      0.000
REMARK  Name = 
REMARK  1 active torsions:
REMARK  status: ('A' for Active; 'I' for Inactive)
REMARK    1  A    between atoms: C_11  and  C_13
REMARK                            x       y       z     vdW  Elec       q    Type
REMARK                         _______ _______ _______ _____ _____    ______ ____
ROOT
ATOM      1  C   UNL     1       9.717   0.702  25.020  0.00  0.00    +0.075 C 
ATOM      2  C   UNL     1       9.800   1.238  23.631  0.00  0.00    +0.010 A 
ATOM      3  C   UNL     1       9.474   0.294  22.647  0.00  0.00    +0.097 A 
ATOM      4  N   UNL     1       9.552   0.758  21.412  0.00  0.00    -0.173 NA
ATOM      5  N   UNL     1       9.939   2.042  21.621  0.00  0.00    -0.276 N 
ATOM      6  H   UNL     1      10.052   2.638  20.809  0.00  0.00    +0.189 HD
ATOM      7  C   UNL     1       9.146  -0.943  23.268  0.00  0.00    +0.006 A 
ATOM      8  C   UNL     1       8.767  -2.155  22.734  0.00  0.00    +0.010 A 
ATOM      9  C   UNL     1       8.510  -3.193  23.631  0.00  0.00    +0.001 A 
ATOM     10  C   UNL     1       8.636  -2.998  25.022  0.00  0.00    +0.000 A 
ATOM     11  C   UNL     1       9.024  -1.759  25.548  0.00  0.00    +0.004 A 
ATOM     12  C   UNL     1      10.124   2.391  22.952  0.00  0.00    +0.070 A 
ATOM     13  C   UNL     1       9.281  -0.725  24.664  0.00  0.00    -0.034 A 
ENDROOT
BRANCH  12  14
ATOM     14  C   UNL     1      10.550   3.714  23.401  0.00  0.00    +0.003 A 
ATOM     15  C   UNL     1      11.878   4.129  23.278  0.00  0.00    +0.029 A 
ATOM     16  C   UNL     1      12.225   5.397  23.721  0.00  0.00    +0.111 A 
ATOM     17  N   UNL     1      11.353   6.266  24.270  0.00  0.00    -0.263 NA
ATOM     18  C   UNL     1      10.077   5.846  24.386  0.00  0.00    +0.111 A 
ATOM     19  C   UNL     1       9.634   4.599  23.974  0.00  0.00    +0.029 A 
ENDBRANCH  12  14
TORSDOF 1
ENDMDL
MODEL 2
REMARK VINA RESULT:      -6.9      3.076      7.213
REMARK  Name = 
REMARK  1 active torsions:
REMARK  status: ('A' for Active; 'I' for Inactive)
REMARK    1  A    between atoms: C_11  and  C_13
REMARK                            x       y       z     vdW  Elec       q    Type
REMARK                         _______ _______ _______ _____ _____    ______ ____
ROOT
ATOM      1  C   UNL     1       9.003  -0.953  25.165  0.00  0.00    +0.075 C 
ATOM      2  C   UNL     1       8.525  -1.921  24.136  0.00  0.00    +0.010 A 
ATOM      3  C   UNL     1       8.695  -1.466  22.821  0.00  0.00    +0.097 A 
ATOM      4  N   UNL     1       8.267  -2.313  21.901  0.00  0.00    -0.173 NA
ATOM      5  N   UNL     1       7.812  -3.342  22.660  0.00  0.00    -0.276 N 
ATOM      6  H   UNL     1       7.442  -4.154  22.181  0.00  0.00    +0.189 HD
ATOM      7  C   UNL     1       9.292  -0.175  22.839  0.00  0.00    +0.006 A 
ATOM      8  C   UNL     1       9.652   0.674  21.816  0.00  0.00    +0.010 A 
ATOM      9  C   UNL     1      10.229   1.894  22.174  0.00  0.00    +0.001 A 
ATOM     10  C   UNL     1      10.430   2.232  23.528  0.00  0.00    +0.000 A 
ATOM     11  C   UNL     1      10.057   1.357  24.557  0.00  0.00    +0.004 A 
ATOM     12  C   UNL     1       7.926  -3.155  24.032  0.00  0.00    +0.070 A 
ATOM     13  C   UNL     1       9.483   0.145  24.209  0.00  0.00    -0.034 A 
ENDROOT
BRANCH  12  14
ATOM     14  C   UNL     1       7.489  -4.128  25.030  0.00  0.00    +0.003 A 
ATOM     15  C   UNL     1       8.256  -4.395  26.167  0.00  0.00    +0.029 A 
ATOM     16  C   UNL     1       7.792  -5.329  27.081  0.00  0.00    +0.111 A 
ATOM     17  N   UNL     1       6.633  -6.005  26.942  0.00  0.00    -0.263 NA
ATOM     18  C   UNL     1       5.910  -5.739  25.836  0.00  0.00    +0.111 A 
ATOM     19  C   UNL     1       6.290  -4.825  24.866  0.00  0.00    +0.029 A 
ENDBRANCH  12  14
TORSDOF 1
ENDMDL
MODEL 3
REMARK VINA RESULT:      -6.6      3.731      7.611
REMARK  Name = 
REMARK  1 active torsions:
REMARK  status: ('A' for Active; 'I' for Inactive)
REMARK    1  A    between atoms: C_11  and  C_13
REMARK                            x       y       z     vdW  Elec       q    Type
REMARK                         _______ _______ _______ _____ _____    ______ ____
ROOT
ATOM      1  C   UNL     1       6.858  -1.333  23.897  0.00  0.00    +0.075 C 
ATOM      2  C   UNL     1       7.984  -2.288  24.111  0.00  0.00    +0.010 A 
ATOM      3  C   UNL     1       9.185  -1.876  23.517  0.00  0.00    +0.097 A 
ATOM      4  N   UNL     1      10.187  -2.720  23.695  0.00  0.00    -0.173 NA
ATOM      5  N   UNL     1       9.600  -3.698  24.429  0.00  0.00    -0.276 N 
ATOM      6  H   UNL     1      10.179  -4.476  24.726  0.00  0.00    +0.189 HD
ATOM      7  C   UNL     1       8.987  -0.630  22.860  0.00  0.00    +0.006 A 
ATOM      8  C   UNL     1       9.852   0.166  22.143  0.00  0.00    +0.010 A 
ATOM      9  C   UNL     1       9.336   1.352  21.616  0.00  0.00    +0.001 A 
ATOM     10  C   UNL     1       7.987   1.709  21.816  0.00  0.00    +0.000 A 
ATOM     11  C   UNL     1       7.120   0.886  22.547  0.00  0.00    +0.004 A 
ATOM     12  C   UNL     1       8.253  -3.501  24.701  0.00  0.00    +0.070 A 
ATOM     13  C   UNL     1       7.625  -0.292  23.072  0.00  0.00    -0.034 A 
ENDROOT
BRANCH  12  14
ATOM     14  C   UNL     1       7.427  -4.434  25.464  0.00  0.00    +0.003 A 
ATOM     15  C   UNL     1       6.349  -5.098  24.872  0.00  0.00    +0.029 A 
ATOM     16  C   UNL     1       5.599  -5.972  25.646  0.00  0.00    +0.111 A 
ATOM     17  N   UNL     1       5.844  -6.225  26.947  0.00  0.00    -0.263 NA
ATOM     18  C   UNL     1       6.884  -5.569  27.502  0.00  0.00    +0.111 A 
ATOM     19  C   UNL     1       7.690  -4.677  26.813  0.00  0.00    +0.029 A 
ENDBRANCH  12  14
TORSDOF 1
ENDMDL
MODEL 4
REMARK VINA RESULT:      -6.5      4.228      8.162
REMARK  Name = 
REMARK  1 active torsions:
REMARK  status: ('A' for Active; 'I' for Inactive)
REMARK    1  A    between atoms: C_11  and  C_13
REMARK                            x       y       z     vdW  Elec       q    Type
REMARK                         _______ _______ _______ _____ _____    ______ ____
ROOT
ATOM      1  C   UNL     1       8.567  -2.418  25.491  0.00  0.00    +0.075 C 
ATOM      2  C   UNL     1       7.899  -3.429  24.622  0.00  0.00    +0.010 A 
ATOM      3  C   UNL     1       8.072  -3.189  23.251  0.00  0.00    +0.097 A 
ATOM      4  N   UNL     1       7.476  -4.076  22.472  0.00  0.00    -0.173 NA
ATOM      5  N   UNL     1       6.908  -4.908  23.381  0.00  0.00    -0.276 N 
ATOM      6  H   UNL     1       6.397  -5.710  23.031  0.00  0.00    +0.189 HD
ATOM      7  C   UNL     1       8.857  -2.017  23.071  0.00  0.00    +0.006 A 
ATOM      8  C   UNL     1       9.291  -1.381  21.928  0.00  0.00    +0.010 A 
ATOM      9  C   UNL     1      10.062  -0.229  22.095  0.00  0.00    +0.001 A 
ATOM     10  C   UNL     1      10.377   0.253  23.382  0.00  0.00    +0.000 A 
ATOM     11  C   UNL     1       9.927  -0.405  24.533  0.00  0.00    +0.004 A 
ATOM     12  C   UNL     1       7.115  -4.557  24.709  0.00  0.00    +0.070 A 
ATOM     13  C   UNL     1       9.160  -1.549  24.375  0.00  0.00    -0.034 A 
ENDROOT
BRANCH  12  14
ATOM     14  C   UNL     1       6.585  -5.306  25.846  0.00  0.00    +0.003 A 
ATOM     15  C   UNL     1       5.427  -6.078  25.729  0.00  0.00    +0.029 A 
ATOM     16  C   UNL     1       4.969  -6.767  26.843  0.00  0.00    +0.111 A 
ATOM     17  N   UNL     1       5.577  -6.740  28.046  0.00  0.00    -0.263 NA
ATOM     18  C   UNL     1       6.690  -5.984  28.141  0.00  0.00    +0.111 A 
ATOM     19  C   UNL     1       7.223  -5.259  27.087  0.00  0.00    +0.029 A 
ENDBRANCH  12  14
TORSDOF 1
ENDMDL
MODEL 5
REMARK VINA RESULT:      -6.5      2.730      4.478
REMARK  Name = 
REMARK  1 active torsions:
REMARK  status: ('A' for Active; 'I' for Inactive)
REMARK    1  A    between atoms: C_11  and  C_13
REMARK                            x       y       z     vdW  Elec       q    Type
REMARK                         _______ _______ _______ _____ _____    ______ ____
ROOT
ATOM      1  C   UNL     1       6.510  -1.892  23.089  0.00  0.00    +0.075 C 
ATOM      2  C   UNL     1       7.930  -2.195  23.430  0.00  0.00    +0.010 A 
ATOM      3  C   UNL     1       8.144  -3.533  23.788  0.00  0.00    +0.097 A 
ATOM      4  N   UNL     1       9.399  -3.811  24.100  0.00  0.00    -0.173 NA
ATOM      5  N   UNL     1      10.000  -2.606  23.930  0.00  0.00    -0.276 N 
ATOM      6  H   UNL     1      11.000  -2.552  24.087  0.00  0.00    +0.189 HD
ATOM      7  C   UNL     1       6.914  -4.245  23.724  0.00  0.00    +0.006 A 
ATOM      8  C   UNL     1       6.613  -5.564  23.981  0.00  0.00    +0.010 A 
ATOM      9  C   UNL     1       5.282  -5.956  23.821  0.00  0.00    +0.001 A 
ATOM     10  C   UNL     1       4.298  -5.033  23.412  0.00  0.00    +0.000 A 
ATOM     11  C   UNL     1       4.622  -3.694  23.155  0.00  0.00    +0.004 A 
ATOM     12  C   UNL     1       9.154  -1.576  23.539  0.00  0.00    +0.070 A 
ATOM     13  C   UNL     1       5.940  -3.298  23.314  0.00  0.00    -0.034 A 
ENDROOT
BRANCH  12  14
ATOM     14  C   UNL     1       9.589  -0.200  23.312  0.00  0.00    +0.003 A 
ATOM     15  C   UNL     1       9.573   0.363  22.033  0.00  0.00    +0.029 A 
ATOM     16  C   UNL     1       9.997   1.675  21.877  0.00  0.00    +0.111 A 
ATOM     17  N   UNL     1      10.429   2.450  22.891  0.00  0.00    -0.263 NA
ATOM     18  C   UNL     1      10.444   1.888  24.116  0.00  0.00    +0.111 A 
ATOM     19  C   UNL     1      10.041   0.587  24.372  0.00  0.00    +0.029 A 
ENDBRANCH  12  14
TORSDOF 1
ENDMDL
MODEL 6
REMARK VINA RESULT:      -6.4      2.788      7.028
REMARK  Name = 
REMARK  1 active torsions:
REMARK  status: ('A' for Active; 'I' for Inactive)
REMARK    1  A    between atoms: C_11  and  C_13
REMARK                            x       y       z     vdW  Elec       q    Type
REMARK                         _______ _______ _______ _____ _____    ______ ____
ROOT
ATOM      1  C   UNL     1       7.987  -0.108  25.452  0.00  0.00    +0.075 C 
ATOM      2  C   UNL     1       8.799  -1.118  24.714  0.00  0.00    +0.010 A 
ATOM      3  C   UNL     1       9.746  -0.549  23.851  0.00  0.00    +0.097 A 
ATOM      4  N   UNL     1      10.466  -1.436  23.186  0.00  0.00    -0.173 NA
ATOM      5  N   UNL     1       9.959  -2.608  23.647  0.00  0.00    -0.276 N 
ATOM      6  H   UNL     1      10.369  -3.468  23.300  0.00  0.00    +0.189 HD
ATOM      7  C   UNL     1       9.664   0.869  23.924  0.00  0.00    +0.006 A 
ATOM      8  C   UNL     1      10.373   1.855  23.275  0.00  0.00    +0.010 A 
ATOM      9  C   UNL     1      10.044   3.178  23.575  0.00  0.00    +0.001 A 
ATOM     10  C   UNL     1       9.028   3.480  24.504  0.00  0.00    +0.000 A 
ATOM     11  C   UNL     1       8.315   2.465  25.155  0.00  0.00    +0.004 A 
ATOM     12  C   UNL     1       8.928  -2.480  24.568  0.00  0.00    +0.070 A 
ATOM     13  C   UNL     1       8.636   1.150  24.861  0.00  0.00    -0.034 A 
ENDROOT
BRANCH  12  14
ATOM     14  C   UNL     1       8.232  -3.609  25.181  0.00  0.00    +0.003 A 
ATOM     15  C   UNL     1       8.640  -4.130  26.412  0.00  0.00    +0.029 A 
ATOM     16  C   UNL     1       7.942  -5.203  26.946  0.00  0.00    +0.111 A 
ATOM     17  N   UNL     1       6.883  -5.784  26.347  0.00  0.00    -0.263 NA
ATOM     18  C   UNL     1       6.508  -5.272  25.158  0.00  0.00    +0.111 A 
ATOM     19  C   UNL     1       7.142  -4.204  24.543  0.00  0.00    +0.029 A 
ENDBRANCH  12  14
TORSDOF 1
ENDMDL
MODEL 7
REMARK VINA RESULT:      -6.4      2.441      3.776
REMARK  Name = 
REMARK  1 active torsions:
REMARK  status: ('A' for Active; 'I' for Inactive)
REMARK    1  A    between atoms: C_11  and  C_13
REMARK                            x       y       z     vdW  Elec       q    Type
REMARK                         _______ _______ _______ _____ _____    ______ ____
ROOT
ATOM      1  C   UNL     1       6.635  -1.521  23.125  0.00  0.00    +0.075 C 
ATOM      2  C   UNL     1       8.090  -1.581  23.449  0.00  0.00    +0.010 A 
ATOM      3  C   UNL     1       8.598  -2.887  23.497  0.00  0.00    +0.097 A 
ATOM      4  N   UNL     1       9.885  -2.951  23.791  0.00  0.00    -0.173 NA
ATOM      5  N   UNL     1      10.204  -1.639  23.931  0.00  0.00    -0.276 N 
ATOM      6  H   UNL     1      11.168  -1.409  24.140  0.00  0.00    +0.189 HD
ATOM      7  C   UNL     1       7.554  -3.812  23.216  0.00  0.00    +0.006 A 
ATOM      8  C   UNL     1       7.554  -5.188  23.147  0.00  0.00    +0.010 A 
ATOM      9  C   UNL     1       6.342  -5.809  22.842  0.00  0.00    +0.001 A 
ATOM     10  C   UNL     1       5.175  -5.051  22.614  0.00  0.00    +0.000 A 
ATOM     11  C   UNL     1       5.193  -3.653  22.689  0.00  0.00    +0.004 A 
ATOM     12  C   UNL     1       9.148  -0.755  23.752  0.00  0.00    +0.070 A 
ATOM     13  C   UNL     1       6.392  -3.029  22.993  0.00  0.00    -0.034 A 
ENDROOT
BRANCH  12  14
ATOM     14  C   UNL     1       9.266   0.696  23.868  0.00  0.00    +0.003 A 
ATOM     15  C   UNL     1      10.171   1.415  23.082  0.00  0.00    +0.029 A 
ATOM     16  C   UNL     1      10.240   2.792  23.236  0.00  0.00    +0.111 A 
ATOM     17  N   UNL     1       9.482   3.490  24.105  0.00  0.00    -0.263 NA
ATOM     18  C   UNL     1       8.621   2.779  24.860  0.00  0.00    +0.111 A 
ATOM     19  C   UNL     1       8.480   1.402  24.780  0.00  0.00    +0.029 A 
ENDBRANCH  12  14
TORSDOF 1
ENDMDL
MODEL 8
REMARK VINA RESULT:      -6.4      3.204      7.608
REMARK  Name = 
REMARK  1 active torsions:
REMARK  status: ('A' for Active; 'I' for Inactive)
REMARK    1  A    between atoms: C_11  and  C_13
REMARK                            x       y       z     vdW  Elec       q    Type
REMARK                         _______ _______ _______ _____ _____    ______ ____
ROOT
ATOM      1  C   UNL     1       8.316  -1.313  22.251  0.00  0.00    +0.075 C 
ATOM      2  C   UNL     1       8.251  -1.913  23.614  0.00  0.00    +0.010 A 
ATOM      3  C   UNL     1       8.903  -1.150  24.592  0.00  0.00    +0.097 A 
ATOM      4  N   UNL     1       8.858  -1.678  25.803  0.00  0.00    -0.173 NA
ATOM      5  N   UNL     1       8.150  -2.815  25.585  0.00  0.00    -0.276 N 
ATOM      6  H   UNL     1       7.950  -3.406  26.383  0.00  0.00    +0.189 HD
ATOM      7  C   UNL     1       9.458   0.015  23.993  0.00  0.00    +0.006 A 
ATOM      8  C   UNL     1      10.182   1.056  24.530  0.00  0.00    +0.010 A 
ATOM      9  C   UNL     1      10.588   2.067  23.656  0.00  0.00    +0.001 A 
ATOM     10  C   UNL     1      10.264   2.014  22.285  0.00  0.00    +0.000 A 
ATOM     11  C   UNL     1       9.528   0.946  21.755  0.00  0.00    +0.004 A 
ATOM     12  C   UNL     1       7.766  -3.024  24.267  0.00  0.00    +0.070 A 
ATOM     13  C   UNL     1       9.123  -0.061  22.616  0.00  0.00    -0.034 A 
ENDROOT
BRANCH  12  14
ATOM     14  C   UNL     1       7.009  -4.186  23.808  0.00  0.00    +0.003 A 
ATOM     15  C   UNL     1       7.372  -4.877  22.649  0.00  0.00    +0.029 A 
ATOM     16  C   UNL     1       6.616  -5.973  22.262  0.00  0.00    +0.111 A 
ATOM     17  N   UNL     1       5.540  -6.421  22.939  0.00  0.00    -0.263 NA
ATOM     18  C   UNL     1       5.201  -5.738  24.051  0.00  0.00    +0.111 A 
ATOM     19  C   UNL     1       5.892  -4.631  24.517  0.00  0.00    +0.029 A 
ENDBRANCH  12  14
TORSDOF 1
ENDMDL
MODEL 9
REMARK VINA RESULT:      -6.3      2.617      4.421
REMARK  Name = 
REMARK  1 active torsions:
REMARK  status: ('A' for Active; 'I' for Inactive)
REMARK    1  A    between atoms: C_11  and  C_13
REMARK                            x       y       z     vdW  Elec       q    Type
REMARK                         _______ _______ _______ _____ _____    ______ ____
ROOT
ATOM      1  C   UNL     1       7.313  -1.587  25.787  0.00  0.00    +0.075 C 
ATOM      2  C   UNL     1       8.483  -2.062  24.993  0.00  0.00    +0.010 A 
ATOM      3  C   UNL     1       8.727  -3.436  25.127  0.00  0.00    +0.097 A 
ATOM      4  N   UNL     1       9.767  -3.866  24.433  0.00  0.00    -0.173 NA
ATOM      5  N   UNL     1      10.194  -2.725  23.836  0.00  0.00    -0.276 N 
ATOM      6  H   UNL     1      10.990  -2.788  23.212  0.00  0.00    +0.189 HD
ATOM      7  C   UNL     1       7.765  -4.006  26.006  0.00  0.00    +0.006 A 
ATOM      8  C   UNL     1       7.590  -5.299  26.447  0.00  0.00    +0.010 A 
ATOM      9  C   UNL     1       6.528  -5.534  27.323  0.00  0.00    +0.001 A 
ATOM     10  C   UNL     1       5.678  -4.486  27.731  0.00  0.00    +0.000 A 
ATOM     11  C   UNL     1       5.871  -3.177  27.273  0.00  0.00    +0.004 A 
ATOM     12  C   UNL     1       9.463  -1.587  24.152  0.00  0.00    +0.070 A 
ATOM     13  C   UNL     1       6.923  -2.935  26.405  0.00  0.00    -0.034 A 
ENDROOT
BRANCH  12  14
ATOM     14  C   UNL     1       9.756  -0.254  23.631  0.00  0.00    +0.003 A 
ATOM     15  C   UNL     1       9.501   0.076  22.297  0.00  0.00    +0.029 A 
ATOM     16  C   UNL     1       9.800   1.357  21.858  0.00  0.00    +0.111 A 
ATOM     17  N   UNL     1      10.328   2.317  22.645  0.00  0.00    -0.263 NA
ATOM     18  C   UNL     1      10.572   1.979  23.927  0.00  0.00    +0.111 A 
ATOM     19  C   UNL     1      10.310   0.725  24.457  0.00  0.00    +0.029 A 
ENDBRANCH  12  14
TORSDOF 1
ENDMDL
