MODEL 1
REMARK VINA RESULT:      -6.0      0.000      0.000
REMARK  Name = 
REMARK  22 active torsions:
REMARK  status: ('A' for Active; 'I' for Inactive)
REMARK    1  A    between atoms: C_1  and  C_2
REMARK    2  A    between atoms: C_2  and  C_3
REMARK    3  A    between atoms: C_2  and  C_4
REMARK    4  A    between atoms: C_2  and  C_5
REMARK    5  A    between atoms: C_5  and  O_7
REMARK    6  A    between atoms: O_7  and  C_8
REMARK    7  A    between atoms: C_8  and  O_9
REMARK    8  A    between atoms: O_9  and  P_10
REMARK    9  A    between atoms: P_10  and  C_12
REMARK   10  A    between atoms: P_10  and  O_26
REMARK   11  A    between atoms: C_12  and  O_13
REMARK   12  A    between atoms: O_13  and  C_14
REMARK   13  A    between atoms: C_14  and  C_15
REMARK   14  A    between atoms: C_15  and  N_16
REMARK   15  A    between atoms: C_20  and  N_21
REMARK   16  A    between atoms: O_26  and  C_27
REMARK   17  A    between atoms: C_27  and  O_28
REMARK   18  A    between atoms: O_28  and  C_29
REMARK   19  A    between atoms: C_29  and  C_31
REMARK   20  A    between atoms: C_31  and  C_32
REMARK   21  A    between atoms: C_31  and  C_33
REMARK   22  A    between atoms: C_31  and  C_34
REMARK                            x       y       z     vdW  Elec       q    Type
REMARK                         _______ _______ _______ _____ _____    ______ ____
ROOT
ATOM      1  P   UNL     1       9.303  -2.283  23.486  0.00  0.00    +0.363 P 
ATOM      2  O   UNL     1      10.104  -3.384  24.110  0.00  0.00    -0.256 OA
ENDROOT
BRANCH   1   3
ATOM      3  O   UNL     1      10.143  -1.324  22.493  0.00  0.00    -0.268 OA
BRANCH   3   4
ATOM      4  C   UNL     1       9.443  -0.623  21.489  0.00  0.00    +0.407 C 
BRANCH   4   5
ATOM      5  O   UNL     1       9.573   0.804  21.654  0.00  0.00    -0.437 OA
BRANCH   5   6
ATOM      6  C   UNL     1       8.575   1.410  22.347  0.00  0.00    +0.314 C 
ATOM      7  O   UNL     1       7.387   1.125  22.235  0.00  0.00    -0.250 OA
BRANCH   6   8
ATOM      8  C   UNL     1       9.071   2.518  23.298  0.00  0.00    +0.059 C 
ATOM      9  C   UNL     1       8.768   2.085  24.739  0.00  0.00    +0.022 C 
ATOM     10  C   UNL     1       8.280   3.802  22.985  0.00  0.00    +0.022 C 
ATOM     11  C   UNL     1      10.568   2.834  23.179  0.00  0.00    +0.022 C 
ENDBRANCH   6   8
ENDBRANCH   5   6
ENDBRANCH   4   5
ENDBRANCH   3   4
ENDBRANCH   1   3
BRANCH   1  12
ATOM     12  O   UNL     1       8.667  -1.267  24.575  0.00  0.00    -0.268 OA
BRANCH  12  13
ATOM     13  C   UNL     1       8.820  -1.649  25.931  0.00  0.00    +0.407 C 
BRANCH  13  14
ATOM     14  O   UNL     1       7.563  -1.789  26.616  0.00  0.00    -0.437 OA
BRANCH  14  15
ATOM     15  C   UNL     1       6.998  -0.605  26.972  0.00  0.00    +0.314 C 
ATOM     16  O   UNL     1       7.577   0.254  27.629  0.00  0.00    -0.250 OA
BRANCH  15  18
ATOM     17  C   UNL     1       4.984  -1.857  26.211  0.00  0.00    +0.022 C 
ATOM     18  C   UNL     1       5.561  -0.450  26.449  0.00  0.00    +0.059 C 
ATOM     19  C   UNL     1       4.662   0.266  27.471  0.00  0.00    +0.022 C 
ATOM     20  C   UNL     1       5.565   0.322  25.124  0.00  0.00    +0.022 C 
ENDBRANCH  15  18
ENDBRANCH  14  15
ENDBRANCH  13  14
ENDBRANCH  12  13
ENDBRANCH   1  12
BRANCH   1  21
ATOM     21  C   UNL     1       7.925  -2.839  22.451  0.00  0.00    +0.286 C 
BRANCH  21  22
ATOM     22  O   UNL     1       6.731  -2.507  23.157  0.00  0.00    -0.366 OA
BRANCH  22  23
ATOM     23  C   UNL     1       5.631  -3.365  22.874  0.00  0.00    +0.182 C 
BRANCH  23  24
ATOM     24  C   UNL     1       6.140  -4.805  22.883  0.00  0.00    +0.153 C 
BRANCH  24  25
ATOM     25  N   UNL     1       5.672  -5.565  24.026  0.00  0.00    -0.313 N 
ATOM     26  C   UNL     1       6.230  -5.601  25.274  0.00  0.00    +0.165 A 
ATOM     27  C   UNL     1       5.369  -6.392  26.021  0.00  0.00    +0.147 A 
ATOM     28  C   UNL     1       5.699  -6.589  27.372  0.00  0.00    +0.147 A 
ATOM     29  N   UNL     1       6.826  -6.017  27.851  0.00  0.00    -0.219 NA
ATOM     30  C   UNL     1       7.567  -5.264  27.008  0.00  0.00    +0.225 A 
ATOM     31  N   UNL     1       4.318  -6.847  25.251  0.00  0.00    -0.231 NA
ATOM     32  N   UNL     1       7.353  -5.000  25.700  0.00  0.00    -0.216 NA
ATOM     33  C   UNL     1       4.527  -6.322  24.061  0.00  0.00    +0.201 A 
BRANCH  28  34
ATOM     34  N   UNL     1       4.927  -7.359  28.236  0.00  0.00    -0.341 N 
ATOM     35  H   UNL     1       5.091  -8.348  28.112  0.00  0.00    +0.144 HD
ATOM     36  H   UNL     1       3.965  -7.041  28.291  0.00  0.00    +0.144 HD
ENDBRANCH  28  34
ENDBRANCH  24  25
ENDBRANCH  23  24
ENDBRANCH  22  23
ENDBRANCH  21  22
ENDBRANCH   1  21
TORSDOF 16
ENDMDL
MODEL 2
REMARK VINA RESULT:      -6.0      1.429      4.351
REMARK  Name = 
REMARK  22 active torsions:
REMARK  status: ('A' for Active; 'I' for Inactive)
REMARK    1  A    between atoms: C_1  and  C_2
REMARK    2  A    between atoms: C_2  and  C_3
REMARK    3  A    between atoms: C_2  and  C_4
REMARK    4  A    between atoms: C_2  and  C_5
REMARK    5  A    between atoms: C_5  and  O_7
REMARK    6  A    between atoms: O_7  and  C_8
REMARK    7  A    between atoms: C_8  and  O_9
REMARK    8  A    between atoms: O_9  and  P_10
REMARK    9  A    between atoms: P_10  and  C_12
REMARK   10  A    between atoms: P_10  and  O_26
REMARK   11  A    between atoms: C_12  and  O_13
REMARK   12  A    between atoms: O_13  and  C_14
REMARK   13  A    between atoms: C_14  and  C_15
REMARK   14  A    between atoms: C_15  and  N_16
REMARK   15  A    between atoms: C_20  and  N_21
REMARK   16  A    between atoms: O_26  and  C_27
REMARK   17  A    between atoms: C_27  and  O_28
REMARK   18  A    between atoms: O_28  and  C_29
REMARK   19  A    between atoms: C_29  and  C_31
REMARK   20  A    between atoms: C_31  and  C_32
REMARK   21  A    between atoms: C_31  and  C_33
REMARK   22  A    between atoms: C_31  and  C_34
REMARK                            x       y       z     vdW  Elec       q    Type
REMARK                         _______ _______ _______ _____ _____    ______ ____
ROOT
ATOM      1  P   UNL     1       8.538  -2.382  22.917  0.00  0.00    +0.363 P 
ATOM      2  O   UNL     1       7.841  -3.535  22.264  0.00  0.00    -0.256 OA
ENDROOT
BRANCH   1   3
ATOM      3  O   UNL     1       7.565  -1.164  23.342  0.00  0.00    -0.268 OA
BRANCH   3   4
ATOM      4  C   UNL     1       6.220  -1.456  23.647  0.00  0.00    +0.407 C 
BRANCH   4   5
ATOM      5  O   UNL     1       5.653  -0.469  24.533  0.00  0.00    -0.437 OA
BRANCH   5   6
ATOM      6  C   UNL     1       5.741  -0.748  25.859  0.00  0.00    +0.314 C 
ATOM      7  O   UNL     1       5.803  -1.882  26.321  0.00  0.00    -0.250 OA
BRANCH   6   8
ATOM      8  C   UNL     1       5.745   0.508  26.753  0.00  0.00    +0.059 C 
ATOM      9  C   UNL     1       7.148   0.664  27.356  0.00  0.00    +0.022 C 
ATOM     10  C   UNL     1       4.732   0.285  27.892  0.00  0.00    +0.022 C 
ATOM     11  C   UNL     1       5.372   1.807  26.024  0.00  0.00    +0.022 C 
ENDBRANCH   6   8
ENDBRANCH   5   6
ENDBRANCH   4   5
ENDBRANCH   3   4
ENDBRANCH   1   3
BRANCH   1  12
ATOM     12  O   UNL     1       9.648  -1.689  21.963  0.00  0.00    -0.268 OA
BRANCH  12  13
ATOM     13  C   UNL     1       9.281  -0.438  21.406  0.00  0.00    +0.407 C 
BRANCH  13  14
ATOM     14  O   UNL     1      10.110   0.642  21.870  0.00  0.00    -0.437 OA
BRANCH  14  15
ATOM     15  C   UNL     1       9.411   1.690  22.381  0.00  0.00    +0.314 C 
ATOM     16  O   UNL     1       8.439   2.193  21.827  0.00  0.00    -0.250 OA
BRANCH  15  18
ATOM     17  C   UNL     1      10.946   3.315  23.476  0.00  0.00    +0.022 C 
ATOM     18  C   UNL     1       9.957   2.165  23.737  0.00  0.00    +0.059 C 
ATOM     19  C   UNL     1       8.835   2.699  24.642  0.00  0.00    +0.022 C 
ATOM     20  C   UNL     1      10.694   1.018  24.438  0.00  0.00    +0.022 C 
ENDBRANCH  15  18
ENDBRANCH  14  15
ENDBRANCH  13  14
ENDBRANCH  12  13
ENDBRANCH   1  12
BRANCH   1  21
ATOM     21  C   UNL     1       9.388  -2.786  24.465  0.00  0.00    +0.286 C 
BRANCH  21  22
ATOM     22  O   UNL     1       9.842  -4.132  24.335  0.00  0.00    -0.366 OA
BRANCH  22  23
ATOM     23  C   UNL     1       9.642  -4.928  25.498  0.00  0.00    +0.182 C 
BRANCH  23  24
ATOM     24  C   UNL     1       8.507  -4.305  26.308  0.00  0.00    +0.153 C 
BRANCH  24  25
ATOM     25  N   UNL     1       7.255  -5.024  26.176  0.00  0.00    -0.313 N 
ATOM     26  C   UNL     1       6.590  -5.706  27.158  0.00  0.00    +0.165 A 
ATOM     27  C   UNL     1       5.415  -6.132  26.556  0.00  0.00    +0.147 A 
ATOM     28  C   UNL     1       4.519  -6.860  27.358  0.00  0.00    +0.147 A 
ATOM     29  N   UNL     1       4.858  -7.109  28.642  0.00  0.00    -0.219 NA
ATOM     30  C   UNL     1       6.035  -6.623  29.097  0.00  0.00    +0.225 A 
ATOM     31  N   UNL     1       5.364  -5.741  25.235  0.00  0.00    -0.231 NA
ATOM     32  N   UNL     1       6.971  -5.913  28.430  0.00  0.00    -0.216 NA
ATOM     33  C   UNL     1       6.480  -5.069  25.044  0.00  0.00    +0.201 A 
BRANCH  28  34
ATOM     34  N   UNL     1       3.306  -7.349  26.884  0.00  0.00    -0.341 N 
ATOM     35  H   UNL     1       2.516  -6.879  27.304  0.00  0.00    +0.144 HD
ATOM     36  H   UNL     1       3.284  -8.362  26.836  0.00  0.00    +0.144 HD
ENDBRANCH  28  34
ENDBRANCH  24  25
ENDBRANCH  23  24
ENDBRANCH  22  23
ENDBRANCH  21  22
ENDBRANCH   1  21
TORSDOF 16
ENDMDL
MODEL 3
REMARK VINA RESULT:      -5.9      2.007      5.124
REMARK  Name = 
REMARK  22 active torsions:
REMARK  status: ('A' for Active; 'I' for Inactive)
REMARK    1  A    between atoms: C_1  and  C_2
REMARK    2  A    between atoms: C_2  and  C_3
REMARK    3  A    between atoms: C_2  and  C_4
REMARK    4  A    between atoms: C_2  and  C_5
REMARK    5  A    between atoms: C_5  and  O_7
REMARK    6  A    between atoms: O_7  and  C_8
REMARK    7  A    between atoms: C_8  and  O_9
REMARK    8  A    between atoms: O_9  and  P_10
REMARK    9  A    between atoms: P_10  and  C_12
REMARK   10  A    between atoms: P_10  and  O_26
REMARK   11  A    between atoms: C_12  and  O_13
REMARK   12  A    between atoms: O_13  and  C_14
REMARK   13  A    between atoms: C_14  and  C_15
REMARK   14  A    between atoms: C_15  and  N_16
REMARK   15  A    between atoms: C_20  and  N_21
REMARK   16  A    between atoms: O_26  and  C_27
REMARK   17  A    between atoms: C_27  and  O_28
REMARK   18  A    between atoms: O_28  and  C_29
REMARK   19  A    between atoms: C_29  and  C_31
REMARK   20  A    between atoms: C_31  and  C_32
REMARK   21  A    between atoms: C_31  and  C_33
REMARK   22  A    between atoms: C_31  and  C_34
REMARK                            x       y       z     vdW  Elec       q    Type
REMARK                         _______ _______ _______ _____ _____    ______ ____
ROOT
ATOM      1  P   UNL     1       9.613  -1.041  23.042  0.00  0.00    +0.363 P 
ATOM      2  O   UNL     1      10.267  -1.802  21.930  0.00  0.00    -0.256 OA
ENDROOT
BRANCH   1   3
ATOM      3  O   UNL     1       8.108  -0.549  22.722  0.00  0.00    -0.268 OA
BRANCH   3   4
ATOM      4  C   UNL     1       7.060  -1.488  22.821  0.00  0.00    +0.407 C 
BRANCH   4   5
ATOM      5  O   UNL     1       7.408  -2.736  22.188  0.00  0.00    -0.437 OA
BRANCH   5   6
ATOM      6  C   UNL     1       6.387  -3.614  22.017  0.00  0.00    +0.314 C 
ATOM      7  O   UNL     1       5.379  -3.378  21.360  0.00  0.00    -0.250 OA
BRANCH   6   8
ATOM      8  C   UNL     1       6.601  -4.957  22.745  0.00  0.00    +0.059 C 
ATOM      9  C   UNL     1       6.437  -6.089  21.721  0.00  0.00    +0.022 C 
ATOM     10  C   UNL     1       5.510  -5.094  23.822  0.00  0.00    +0.022 C 
ATOM     11  C   UNL     1       7.971  -5.098  23.425  0.00  0.00    +0.022 C 
ENDBRANCH   6   8
ENDBRANCH   5   6
ENDBRANCH   4   5
ENDBRANCH   3   4
ENDBRANCH   1   3
BRANCH   1  12
ATOM     12  O   UNL     1      10.402   0.319  23.429  0.00  0.00    -0.268 OA
BRANCH  12  13
ATOM     13  C   UNL     1       9.748   1.526  23.077  0.00  0.00    +0.407 C 
BRANCH  13  14
ATOM     14  O   UNL     1       9.621   2.434  24.186  0.00  0.00    -0.437 OA
BRANCH  14  15
ATOM     15  C   UNL     1      10.031   3.700  23.907  0.00  0.00    +0.314 C 
ATOM     16  O   UNL     1      11.131   3.970  23.433  0.00  0.00    -0.250 OA
BRANCH  15  18
ATOM     17  C   UNL     1       8.013   4.864  23.029  0.00  0.00    +0.022 C 
ATOM     18  C   UNL     1       8.965   4.758  24.234  0.00  0.00    +0.059 C 
ATOM     19  C   UNL     1       8.133   4.359  25.463  0.00  0.00    +0.022 C 
ATOM     20  C   UNL     1       9.630   6.119  24.470  0.00  0.00    +0.022 C 
ENDBRANCH  15  18
ENDBRANCH  14  15
ENDBRANCH  13  14
ENDBRANCH  12  13
ENDBRANCH   1  12
BRANCH   1  21
ATOM     21  C   UNL     1       9.420  -1.968  24.586  0.00  0.00    +0.286 C 
BRANCH  21  22
ATOM     22  O   UNL     1       9.158  -1.005  25.604  0.00  0.00    -0.366 OA
BRANCH  22  23
ATOM     23  C   UNL     1       8.478  -1.529  26.740  0.00  0.00    +0.182 C 
BRANCH  23  24
ATOM     24  C   UNL     1       7.229  -2.257  26.249  0.00  0.00    +0.153 C 
BRANCH  24  25
ATOM     25  N   UNL     1       7.075  -3.576  26.833  0.00  0.00    -0.313 N 
ATOM     26  C   UNL     1       5.935  -4.112  27.364  0.00  0.00    +0.165 A 
ATOM     27  C   UNL     1       6.281  -5.412  27.701  0.00  0.00    +0.147 A 
ATOM     28  C   UNL     1       5.273  -6.212  28.266  0.00  0.00    +0.147 A 
ATOM     29  N   UNL     1       4.051  -5.669  28.458  0.00  0.00    -0.219 NA
ATOM     30  C   UNL     1       3.853  -4.388  28.073  0.00  0.00    +0.225 A 
ATOM     31  N   UNL     1       7.604  -5.667  27.403  0.00  0.00    -0.231 NA
ATOM     32  N   UNL     1       4.735  -3.526  27.520  0.00  0.00    -0.216 NA
ATOM     33  C   UNL     1       8.046  -4.545  26.873  0.00  0.00    +0.201 A 
BRANCH  28  34
ATOM     34  N   UNL     1       5.482  -7.532  28.652  0.00  0.00    -0.341 N 
ATOM     35  H   UNL     1       4.658  -7.940  29.070  0.00  0.00    +0.144 HD
ATOM     36  H   UNL     1       6.370  -7.667  29.123  0.00  0.00    +0.144 HD
ENDBRANCH  28  34
ENDBRANCH  24  25
ENDBRANCH  23  24
ENDBRANCH  22  23
ENDBRANCH  21  22
ENDBRANCH   1  21
TORSDOF 16
ENDMDL
MODEL 4
REMARK VINA RESULT:      -5.9      1.473      4.477
REMARK  Name = 
REMARK  22 active torsions:
REMARK  status: ('A' for Active; 'I' for Inactive)
REMARK    1  A    between atoms: C_1  and  C_2
REMARK    2  A    between atoms: C_2  and  C_3
REMARK    3  A    between atoms: C_2  and  C_4
REMARK    4  A    between atoms: C_2  and  C_5
REMARK    5  A    between atoms: C_5  and  O_7
REMARK    6  A    between atoms: O_7  and  C_8
REMARK    7  A    between atoms: C_8  and  O_9
REMARK    8  A    between atoms: O_9  and  P_10
REMARK    9  A    between atoms: P_10  and  C_12
REMARK   10  A    between atoms: P_10  and  O_26
REMARK   11  A    between atoms: C_12  and  O_13
REMARK   12  A    between atoms: O_13  and  C_14
REMARK   13  A    between atoms: C_14  and  C_15
REMARK   14  A    between atoms: C_15  and  N_16
REMARK   15  A    between atoms: C_20  and  N_21
REMARK   16  A    between atoms: O_26  and  C_27
REMARK   17  A    between atoms: C_27  and  O_28
REMARK   18  A    between atoms: O_28  and  C_29
REMARK   19  A    between atoms: C_29  and  C_31
REMARK   20  A    between atoms: C_31  and  C_32
REMARK   21  A    between atoms: C_31  and  C_33
REMARK   22  A    between atoms: C_31  and  C_34
REMARK                            x       y       z     vdW  Elec       q    Type
REMARK                         _______ _______ _______ _____ _____    ______ ____
ROOT
ATOM      1  P   UNL     1       7.755  -2.082  22.847  0.00  0.00    +0.363 P 
ATOM      2  O   UNL     1       6.800  -0.948  22.637  0.00  0.00    -0.256 OA
ENDROOT
BRANCH   1   3
ATOM      3  O   UNL     1       8.119  -2.376  24.394  0.00  0.00    -0.268 OA
BRANCH   3   4
ATOM      4  C   UNL     1       7.390  -1.698  25.393  0.00  0.00    +0.407 C 
BRANCH   4   5
ATOM      5  O   UNL     1       6.147  -2.367  25.685  0.00  0.00    -0.437 OA
BRANCH   5   6
ATOM      6  C   UNL     1       5.066  -1.560  25.843  0.00  0.00    +0.314 C 
ATOM      7  O   UNL     1       4.975  -0.432  25.370  0.00  0.00    -0.250 OA
BRANCH   6   8
ATOM      8  C   UNL     1       3.946  -2.190  26.696  0.00  0.00    +0.059 C 
ATOM      9  C   UNL     1       3.070  -1.057  27.249  0.00  0.00    +0.022 C 
ATOM     10  C   UNL     1       4.605  -2.933  27.872  0.00  0.00    +0.022 C 
ATOM     11  C   UNL     1       3.053  -3.182  25.938  0.00  0.00    +0.022 C 
ENDBRANCH   6   8
ENDBRANCH   5   6
ENDBRANCH   4   5
ENDBRANCH   3   4
ENDBRANCH   1   3
BRANCH   1  12
ATOM     12  O   UNL     1       9.193  -1.838  22.141  0.00  0.00    -0.268 OA
BRANCH  12  13
ATOM     13  C   UNL     1      10.266  -1.552  23.022  0.00  0.00    +0.407 C 
BRANCH  13  14
ATOM     14  O   UNL     1      10.691  -0.180  22.954  0.00  0.00    -0.437 OA
BRANCH  14  15
ATOM     15  C   UNL     1      10.281   0.574  24.008  0.00  0.00    +0.314 C 
ATOM     16  O   UNL     1      10.386   0.220  25.179  0.00  0.00    -0.250 OA
BRANCH  15  18
ATOM     17  C   UNL     1      10.835   2.943  23.479  0.00  0.00    +0.022 C 
ATOM     18  C   UNL     1       9.686   1.925  23.580  0.00  0.00    +0.059 C 
ATOM     19  C   UNL     1       9.010   1.833  22.202  0.00  0.00    +0.022 C 
ATOM     20  C   UNL     1       8.676   2.410  24.627  0.00  0.00    +0.022 C 
ENDBRANCH  15  18
ENDBRANCH  14  15
ENDBRANCH  13  14
ENDBRANCH  12  13
ENDBRANCH   1  12
BRANCH   1  21
ATOM     21  C   UNL     1       7.169  -3.690  22.252  0.00  0.00    +0.286 C 
BRANCH  21  22
ATOM     22  O   UNL     1       5.773  -3.543  22.004  0.00  0.00    -0.366 OA
BRANCH  22  23
ATOM     23  C   UNL     1       4.941  -4.177  22.970  0.00  0.00    +0.182 C 
BRANCH  23  24
ATOM     24  C   UNL     1       5.443  -5.606  23.161  0.00  0.00    +0.153 C 
BRANCH  24  25
ATOM     25  N   UNL     1       5.091  -6.164  24.453  0.00  0.00    -0.313 N 
ATOM     26  C   UNL     1       5.779  -6.020  25.626  0.00  0.00    +0.165 A 
ATOM     27  C   UNL     1       4.992  -6.657  26.575  0.00  0.00    +0.147 A 
ATOM     28  C   UNL     1       5.463  -6.650  27.899  0.00  0.00    +0.147 A 
ATOM     29  N   UNL     1       6.642  -6.045  28.161  0.00  0.00    -0.219 NA
ATOM     30  C   UNL     1       7.299  -5.456  27.136  0.00  0.00    +0.225 A 
ATOM     31  N   UNL     1       3.859  -7.195  26.001  0.00  0.00    -0.231 NA
ATOM     32  N   UNL     1       6.949  -5.393  25.832  0.00  0.00    -0.216 NA
ATOM     33  C   UNL     1       3.946  -6.870  24.727  0.00  0.00    +0.201 A 
BRANCH  28  34
ATOM     34  N   UNL     1       4.777  -7.251  28.949  0.00  0.00    -0.341 N 
ATOM     35  H   UNL     1       5.192  -7.038  29.846  0.00  0.00    +0.144 HD
ATOM     36  H   UNL     1       4.534  -8.217  28.757  0.00  0.00    +0.144 HD
ENDBRANCH  28  34
ENDBRANCH  24  25
ENDBRANCH  23  24
ENDBRANCH  22  23
ENDBRANCH  21  22
ENDBRANCH   1  21
TORSDOF 16
ENDMDL
MODEL 5
REMARK VINA RESULT:      -5.8      2.114      4.290
REMARK  Name = 
REMARK  22 active torsions:
REMARK  status: ('A' for Active; 'I' for Inactive)
REMARK    1  A    between atoms: C_1  and  C_2
REMARK    2  A    between atoms: C_2  and  C_3
REMARK    3  A    between atoms: C_2  and  C_4
REMARK    4  A    between atoms: C_2  and  C_5
REMARK    5  A    between atoms: C_5  and  O_7
REMARK    6  A    between atoms: O_7  and  C_8
REMARK    7  A    between atoms: C_8  and  O_9
REMARK    8  A    between atoms: O_9  and  P_10
REMARK    9  A    between atoms: P_10  and  C_12
REMARK   10  A    between atoms: P_10  and  O_26
REMARK   11  A    between atoms: C_12  and  O_13
REMARK   12  A    between atoms: O_13  and  C_14
REMARK   13  A    between atoms: C_14  and  C_15
REMARK   14  A    between atoms: C_15  and  N_16
REMARK   15  A    between atoms: C_20  and  N_21
REMARK   16  A    between atoms: O_26  and  C_27
REMARK   17  A    between atoms: C_27  and  O_28
REMARK   18  A    between atoms: O_28  and  C_29
REMARK   19  A    between atoms: C_29  and  C_31
REMARK   20  A    between atoms: C_31  and  C_32
REMARK   21  A    between atoms: C_31  and  C_33
REMARK   22  A    between atoms: C_31  and  C_34
REMARK                            x       y       z     vdW  Elec       q    Type
REMARK                         _______ _______ _______ _____ _____    ______ ____
ROOT
ATOM      1  P   UNL     1       6.175  -0.642  25.754  0.00  0.00    +0.363 P 
ATOM      2  O   UNL     1       5.267   0.140  24.855  0.00  0.00    -0.256 OA
ENDROOT
BRANCH   1   3
ATOM      3  O   UNL     1       7.193   0.260  26.627  0.00  0.00    -0.268 OA
BRANCH   3   4
ATOM      4  C   UNL     1       6.943   1.644  26.728  0.00  0.00    +0.407 C 
BRANCH   4   5
ATOM      5  O   UNL     1       7.558   2.371  25.645  0.00  0.00    -0.437 OA
BRANCH   5   6
ATOM      6  C   UNL     1       6.806   3.362  25.099  0.00  0.00    +0.314 C 
ATOM      7  O   UNL     1       5.580   3.393  25.132  0.00  0.00    -0.250 OA
BRANCH   6   8
ATOM      8  C   UNL     1       7.641   4.460  24.410  0.00  0.00    +0.059 C 
ATOM      9  C   UNL     1       7.269   4.482  22.920  0.00  0.00    +0.022 C 
ATOM     10  C   UNL     1       9.128   4.084  24.548  0.00  0.00    +0.022 C 
ATOM     11  C   UNL     1       7.443   5.867  24.992  0.00  0.00    +0.022 C 
ENDBRANCH   6   8
ENDBRANCH   5   6
ENDBRANCH   4   5
ENDBRANCH   3   4
ENDBRANCH   1   3
BRANCH   1  12
ATOM     12  O   UNL     1       7.139  -1.663  24.949  0.00  0.00    -0.268 OA
BRANCH  12  13
ATOM     13  C   UNL     1       8.520  -1.572  25.257  0.00  0.00    +0.407 C 
BRANCH  13  14
ATOM     14  O   UNL     1       9.337  -1.350  24.095  0.00  0.00    -0.437 OA
BRANCH  14  15
ATOM     15  C   UNL     1       9.645  -0.042  23.883  0.00  0.00    +0.314 C 
ATOM     16  O   UNL     1      10.216   0.663  24.709  0.00  0.00    -0.250 OA
BRANCH  15  18
ATOM     17  C   UNL     1       9.441  -0.690  21.488  0.00  0.00    +0.022 C 
ATOM     18  C   UNL     1       9.217   0.454  22.493  0.00  0.00    +0.059 C 
ATOM     19  C   UNL     1       7.727   0.829  22.461  0.00  0.00    +0.022 C 
ATOM     20  C   UNL     1      10.070   1.659  22.080  0.00  0.00    +0.022 C 
ENDBRANCH  15  18
ENDBRANCH  14  15
ENDBRANCH  13  14
ENDBRANCH  12  13
ENDBRANCH   1  12
BRANCH   1  21
ATOM     21  C   UNL     1       5.328  -1.635  27.011  0.00  0.00    +0.286 C 
BRANCH  21  22
ATOM     22  O   UNL     1       4.534  -2.586  26.305  0.00  0.00    -0.366 OA
BRANCH  22  23
ATOM     23  C   UNL     1       3.904  -3.552  27.139  0.00  0.00    +0.182 C 
BRANCH  23  24
ATOM     24  C   UNL     1       4.275  -4.939  26.619  0.00  0.00    +0.153 C 
BRANCH  24  25
ATOM     25  N   UNL     1       5.703  -5.192  26.644  0.00  0.00    -0.313 N 
ATOM     26  C   UNL     1       6.568  -5.130  25.587  0.00  0.00    +0.165 A 
ATOM     27  C   UNL     1       7.818  -5.363  26.141  0.00  0.00    +0.147 A 
ATOM     28  C   UNL     1       8.915  -5.341  25.264  0.00  0.00    +0.147 A 
ATOM     29  N   UNL     1       8.688  -5.113  23.951  0.00  0.00    -0.219 NA
ATOM     30  C   UNL     1       7.415  -4.894  23.552  0.00  0.00    +0.225 A 
ATOM     31  N   UNL     1       7.726  -5.580  27.500  0.00  0.00    -0.231 NA
ATOM     32  N   UNL     1       6.286  -4.886  24.295  0.00  0.00    -0.216 NA
ATOM     33  C   UNL     1       6.443  -5.459  27.769  0.00  0.00    +0.201 A 
BRANCH  28  34
ATOM     34  N   UNL     1      10.224  -5.559  25.683  0.00  0.00    -0.341 N 
ATOM     35  H   UNL     1      10.438  -6.543  25.765  0.00  0.00    +0.144 HD
ATOM     36  H   UNL     1      10.498  -4.949  26.446  0.00  0.00    +0.144 HD
ENDBRANCH  28  34
ENDBRANCH  24  25
ENDBRANCH  23  24
ENDBRANCH  22  23
ENDBRANCH  21  22
ENDBRANCH   1  21
TORSDOF 16
ENDMDL
MODEL 6
REMARK VINA RESULT:      -5.8      2.020      5.336
REMARK  Name = 
REMARK  22 active torsions:
REMARK  status: ('A' for Active; 'I' for Inactive)
REMARK    1  A    between atoms: C_1  and  C_2
REMARK    2  A    between atoms: C_2  and  C_3
REMARK    3  A    between atoms: C_2  and  C_4
REMARK    4  A    between atoms: C_2  and  C_5
REMARK    5  A    between atoms: C_5  and  O_7
REMARK    6  A    between atoms: O_7  and  C_8
REMARK    7  A    between atoms: C_8  and  O_9
REMARK    8  A    between atoms: O_9  and  P_10
REMARK    9  A    between atoms: P_10  and  C_12
REMARK   10  A    between atoms: P_10  and  O_26
REMARK   11  A    between atoms: C_12  and  O_13
REMARK   12  A    between atoms: O_13  and  C_14
REMARK   13  A    between atoms: C_14  and  C_15
REMARK   14  A    between atoms: C_15  and  N_16
REMARK   15  A    between atoms: C_20  and  N_21
REMARK   16  A    between atoms: O_26  and  C_27
REMARK   17  A    between atoms: C_27  and  O_28
REMARK   18  A    between atoms: O_28  and  C_29
REMARK   19  A    between atoms: C_29  and  C_31
REMARK   20  A    between atoms: C_31  and  C_32
REMARK   21  A    between atoms: C_31  and  C_33
REMARK   22  A    between atoms: C_31  and  C_34
REMARK                            x       y       z     vdW  Elec       q    Type
REMARK                         _______ _______ _______ _____ _____    ______ ____
ROOT
ATOM      1  P   UNL     1       9.396  -0.012  23.641  0.00  0.00    +0.363 P 
ATOM      2  O   UNL     1       9.691  -0.009  25.110  0.00  0.00    -0.256 OA
ENDROOT
BRANCH   1   3
ATOM      3  O   UNL     1       9.660  -1.427  22.907  0.00  0.00    -0.268 OA
BRANCH   3   4
ATOM      4  C   UNL     1       8.603  -2.012  22.181  0.00  0.00    +0.407 C 
BRANCH   4   5
ATOM      5  O   UNL     1       8.053  -3.151  22.874  0.00  0.00    -0.437 OA
BRANCH   5   6
ATOM      6  C   UNL     1       6.789  -3.501  22.522  0.00  0.00    +0.314 C 
ATOM      7  O   UNL     1       5.931  -2.704  22.158  0.00  0.00    -0.250 OA
BRANCH   6   8
ATOM      8  C   UNL     1       6.515  -5.014  22.634  0.00  0.00    +0.059 C 
ATOM      9  C   UNL     1       5.406  -5.226  23.675  0.00  0.00    +0.022 C 
ATOM     10  C   UNL     1       7.804  -5.696  23.129  0.00  0.00    +0.022 C 
ATOM     11  C   UNL     1       6.092  -5.682  21.317  0.00  0.00    +0.022 C 
ENDBRANCH   6   8
ENDBRANCH   5   6
ENDBRANCH   4   5
ENDBRANCH   3   4
ENDBRANCH   1   3
BRANCH   1  12
ATOM     12  O   UNL     1      10.303   1.041  22.811  0.00  0.00    -0.268 OA
BRANCH  12  13
ATOM     13  C   UNL     1       9.763   2.345  22.679  0.00  0.00    +0.407 C 
BRANCH  13  14
ATOM     14  O   UNL     1      10.285   3.265  23.654  0.00  0.00    -0.437 OA
BRANCH  14  15
ATOM     15  C   UNL     1       9.343   4.083  24.195  0.00  0.00    +0.314 C 
ATOM     16  O   UNL     1       8.311   3.677  24.719  0.00  0.00    -0.250 OA
BRANCH  15  18
ATOM     17  C   UNL     1       9.527   6.205  25.484  0.00  0.00    +0.022 C 
ATOM     18  C   UNL     1       9.718   5.570  24.095  0.00  0.00    +0.059 C 
ATOM     19  C   UNL     1      11.188   5.756  23.686  0.00  0.00    +0.022 C 
ATOM     20  C   UNL     1       8.801   6.277  23.090  0.00  0.00    +0.022 C 
ENDBRANCH  15  18
ENDBRANCH  14  15
ENDBRANCH  13  14
ENDBRANCH  12  13
ENDBRANCH   1  12
BRANCH   1  21
ATOM     21  C   UNL     1       7.675   0.357  23.211  0.00  0.00    +0.286 C 
BRANCH  21  22
ATOM     22  O   UNL     1       6.999   0.613  24.440  0.00  0.00    -0.366 OA
BRANCH  22  23
ATOM     23  C   UNL     1       6.114  -0.425  24.844  0.00  0.00    +0.182 C 
BRANCH  23  24
ATOM     24  C   UNL     1       6.392  -0.739  26.313  0.00  0.00    +0.153 C 
BRANCH  24  25
ATOM     25  N   UNL     1       6.028  -2.093  26.683  0.00  0.00    -0.313 N 
ATOM     26  C   UNL     1       6.846  -3.188  26.702  0.00  0.00    +0.165 A 
ATOM     27  C   UNL     1       6.055  -4.209  27.209  0.00  0.00    +0.147 A 
ATOM     28  C   UNL     1       6.659  -5.469  27.353  0.00  0.00    +0.147 A 
ATOM     29  N   UNL     1       7.950  -5.612  26.981  0.00  0.00    -0.219 NA
ATOM     30  C   UNL     1       8.603  -4.525  26.510  0.00  0.00    +0.225 A 
ATOM     31  N   UNL     1       4.778  -3.761  27.477  0.00  0.00    -0.231 NA
ATOM     32  N   UNL     1       8.135  -3.271  26.330  0.00  0.00    -0.216 NA
ATOM     33  C   UNL     1       4.801  -2.483  27.160  0.00  0.00    +0.201 A 
BRANCH  28  34
ATOM     34  N   UNL     1       5.984  -6.581  27.846  0.00  0.00    -0.341 N 
ATOM     35  H   UNL     1       6.616  -7.272  28.226  0.00  0.00    +0.144 HD
ATOM     36  H   UNL     1       5.249  -6.901  27.225  0.00  0.00    +0.144 HD
ENDBRANCH  28  34
ENDBRANCH  24  25
ENDBRANCH  23  24
ENDBRANCH  22  23
ENDBRANCH  21  22
ENDBRANCH   1  21
TORSDOF 16
ENDMDL
MODEL 7
REMARK VINA RESULT:      -5.8      3.851      8.116
REMARK  Name = 
REMARK  22 active torsions:
REMARK  status: ('A' for Active; 'I' for Inactive)
REMARK    1  A    between atoms: C_1  and  C_2
REMARK    2  A    between atoms: C_2  and  C_3
REMARK    3  A    between atoms: C_2  and  C_4
REMARK    4  A    between atoms: C_2  and  C_5
REMARK    5  A    between atoms: C_5  and  O_7
REMARK    6  A    between atoms: O_7  and  C_8
REMARK    7  A    between atoms: C_8  and  O_9
REMARK    8  A    between atoms: O_9  and  P_10
REMARK    9  A    between atoms: P_10  and  C_12
REMARK   10  A    between atoms: P_10  and  O_26
REMARK   11  A    between atoms: C_12  and  O_13
REMARK   12  A    between atoms: O_13  and  C_14
REMARK   13  A    between atoms: C_14  and  C_15
REMARK   14  A    between atoms: C_15  and  N_16
REMARK   15  A    between atoms: C_20  and  N_21
REMARK   16  A    between atoms: O_26  and  C_27
REMARK   17  A    between atoms: C_27  and  O_28
REMARK   18  A    between atoms: O_28  and  C_29
REMARK   19  A    between atoms: C_29  and  C_31
REMARK   20  A    between atoms: C_31  and  C_32
REMARK   21  A    between atoms: C_31  and  C_33
REMARK   22  A    between atoms: C_31  and  C_34
REMARK                            x       y       z     vdW  Elec       q    Type
REMARK                         _______ _______ _______ _____ _____    ______ ____
ROOT
ATOM      1  P   UNL     1       9.011  -4.173  24.846  0.00  0.00    +0.363 P 
ATOM      2  O   UNL     1      10.328  -4.885  24.892  0.00  0.00    -0.256 OA
ENDROOT
BRANCH   1   3
ATOM      3  O   UNL     1       8.251  -4.078  26.269  0.00  0.00    -0.268 OA
BRANCH   3   4
ATOM      4  C   UNL     1       7.651  -5.244  26.787  0.00  0.00    +0.407 C 
BRANCH   4   5
ATOM      5  O   UNL     1       6.841  -4.952  27.944  0.00  0.00    -0.437 OA
BRANCH   5   6
ATOM      6  C   UNL     1       5.821  -5.816  28.182  0.00  0.00    +0.314 C 
ATOM      7  O   UNL     1       5.874  -7.021  27.962  0.00  0.00    -0.250 OA
BRANCH   6   8
ATOM      8  C   UNL     1       4.560  -5.137  28.753  0.00  0.00    +0.059 C 
ATOM      9  C   UNL     1       3.332  -5.745  28.061  0.00  0.00    +0.022 C 
ATOM     10  C   UNL     1       4.633  -3.636  28.415  0.00  0.00    +0.022 C 
ATOM     11  C   UNL     1       4.394  -5.281  30.273  0.00  0.00    +0.022 C 
ENDBRANCH   6   8
ENDBRANCH   5   6
ENDBRANCH   4   5
ENDBRANCH   3   4
ENDBRANCH   1   3
BRANCH   1  12
ATOM     12  O   UNL     1       7.937  -4.889  23.869  0.00  0.00    -0.268 OA
BRANCH  12  13
ATOM     13  C   UNL     1       7.488  -4.107  22.775  0.00  0.00    +0.407 C 
BRANCH  13  14
ATOM     14  O   UNL     1       6.083  -3.808  22.844  0.00  0.00    -0.437 OA
BRANCH  14  15
ATOM     15  C   UNL     1       5.282  -4.894  22.669  0.00  0.00    +0.314 C 
ATOM     16  O   UNL     1       5.315  -5.608  21.672  0.00  0.00    -0.250 OA
BRANCH  15  18
ATOM     17  C   UNL     1       4.441  -3.928  24.804  0.00  0.00    +0.022 C 
ATOM     18  C   UNL     1       4.344  -5.140  23.861  0.00  0.00    +0.059 C 
ATOM     19  C   UNL     1       2.880  -5.274  23.410  0.00  0.00    +0.022 C 
ATOM     20  C   UNL     1       4.776  -6.401  24.618  0.00  0.00    +0.022 C 
ENDBRANCH  15  18
ENDBRANCH  14  15
ENDBRANCH  13  14
ENDBRANCH  12  13
ENDBRANCH   1  12
BRANCH   1  21
ATOM     21  C   UNL     1       9.101  -2.444  24.314  0.00  0.00    +0.286 C 
BRANCH  21  22
ATOM     22  O   UNL     1       8.620  -1.661  25.405  0.00  0.00    -0.366 OA
BRANCH  22  23
ATOM     23  C   UNL     1       9.386  -0.490  25.663  0.00  0.00    +0.182 C 
BRANCH  23  24
ATOM     24  C   UNL     1      10.173  -0.152  24.399  0.00  0.00    +0.153 C 
BRANCH  24  25
ATOM     25  N   UNL     1       9.848   1.155  23.860  0.00  0.00    -0.313 N 
ATOM     26  C   UNL     1       8.674   1.534  23.272  0.00  0.00    +0.165 A 
ATOM     27  C   UNL     1       8.830   2.888  23.015  0.00  0.00    +0.147 A 
ATOM     28  C   UNL     1       7.745   3.550  22.414  0.00  0.00    +0.147 A 
ATOM     29  N   UNL     1       6.639   2.834  22.114  0.00  0.00    -0.219 NA
ATOM     30  C   UNL     1       6.624   1.519  22.430  0.00  0.00    +0.225 A 
ATOM     31  N   UNL     1      10.073   3.330  23.416  0.00  0.00    -0.231 NA
ATOM     32  N   UNL     1       7.595   0.778  23.008  0.00  0.00    -0.216 NA
ATOM     33  C   UNL     1      10.654   2.265  23.929  0.00  0.00    +0.201 A 
BRANCH  28  34
ATOM     34  N   UNL     1       7.766   4.904  22.099  0.00  0.00    -0.341 N 
ATOM     35  H   UNL     1       8.615   5.354  22.410  0.00  0.00    +0.144 HD
ATOM     36  H   UNL     1       6.885   5.366  22.297  0.00  0.00    +0.144 HD
ENDBRANCH  28  34
ENDBRANCH  24  25
ENDBRANCH  23  24
ENDBRANCH  22  23
ENDBRANCH  21  22
ENDBRANCH   1  21
TORSDOF 16
ENDMDL
MODEL 8
REMARK VINA RESULT:      -5.7      3.700      8.048
REMARK  Name = 
REMARK  22 active torsions:
REMARK  status: ('A' for Active; 'I' for Inactive)
REMARK    1  A    between atoms: C_1  and  C_2
REMARK    2  A    between atoms: C_2  and  C_3
REMARK    3  A    between atoms: C_2  and  C_4
REMARK    4  A    between atoms: C_2  and  C_5
REMARK    5  A    between atoms: C_5  and  O_7
REMARK    6  A    between atoms: O_7  and  C_8
REMARK    7  A    between atoms: C_8  and  O_9
REMARK    8  A    between atoms: O_9  and  P_10
REMARK    9  A    between atoms: P_10  and  C_12
REMARK   10  A    between atoms: P_10  and  O_26
REMARK   11  A    between atoms: C_12  and  O_13
REMARK   12  A    between atoms: O_13  and  C_14
REMARK   13  A    between atoms: C_14  and  C_15
REMARK   14  A    between atoms: C_15  and  N_16
REMARK   15  A    between atoms: C_20  and  N_21
REMARK   16  A    between atoms: O_26  and  C_27
REMARK   17  A    between atoms: C_27  and  O_28
REMARK   18  A    between atoms: O_28  and  C_29
REMARK   19  A    between atoms: C_29  and  C_31
REMARK   20  A    between atoms: C_31  and  C_32
REMARK   21  A    between atoms: C_31  and  C_33
REMARK   22  A    between atoms: C_31  and  C_34
REMARK                            x       y       z     vdW  Elec       q    Type
REMARK                         _______ _______ _______ _____ _____    ______ ____
ROOT
ATOM      1  P   UNL     1       6.980  -5.227  26.678  0.00  0.00    +0.363 P 
ATOM      2  O   UNL     1       7.056  -5.344  28.169  0.00  0.00    -0.256 OA
ENDROOT
BRANCH   1   3
ATOM      3  O   UNL     1       5.961  -6.267  25.975  0.00  0.00    -0.268 OA
BRANCH   3   4
ATOM      4  C   UNL     1       4.813  -6.666  26.690  0.00  0.00    +0.407 C 
BRANCH   4   5
ATOM      5  O   UNL     1       3.608  -6.174  26.069  0.00  0.00    -0.437 OA
BRANCH   5   6
ATOM      6  C   UNL     1       3.057  -6.984  25.128  0.00  0.00    +0.314 C 
ATOM      7  O   UNL     1       3.464  -8.112  24.869  0.00  0.00    -0.250 OA
BRANCH   6   8
ATOM      8  C   UNL     1       1.861  -6.348  24.392  0.00  0.00    +0.059 C 
ATOM      9  C   UNL     1       1.862  -4.841  24.688  0.00  0.00    +0.022 C 
ATOM     10  C   UNL     1       0.570  -6.969  24.957  0.00  0.00    +0.022 C 
ATOM     11  C   UNL     1       1.870  -6.555  22.870  0.00  0.00    +0.022 C 
ENDBRANCH   6   8
ENDBRANCH   5   6
ENDBRANCH   4   5
ENDBRANCH   3   4
ENDBRANCH   1   3
BRANCH   1  12
ATOM     12  O   UNL     1       8.398  -5.506  25.947  0.00  0.00    -0.268 OA
BRANCH  12  13
ATOM     13  C   UNL     1       8.648  -4.737  24.783  0.00  0.00    +0.407 C 
BRANCH  13  14
ATOM     14  O   UNL     1       8.236  -5.402  23.576  0.00  0.00    -0.437 OA
BRANCH  14  15
ATOM     15  C   UNL     1       7.470  -4.630  22.759  0.00  0.00    +0.314 C 
ATOM     16  O   UNL     1       7.789  -3.502  22.396  0.00  0.00    -0.250 OA
BRANCH  15  18
ATOM     17  C   UNL     1       6.191  -5.465  20.793  0.00  0.00    +0.022 C 
ATOM     18  C   UNL     1       6.171  -5.327  22.326  0.00  0.00    +0.059 C 
ATOM     19  C   UNL     1       6.058  -6.737  22.928  0.00  0.00    +0.022 C 
ATOM     20  C   UNL     1       4.959  -4.483  22.739  0.00  0.00    +0.022 C 
ENDBRANCH  15  18
ENDBRANCH  14  15
ENDBRANCH  13  14
ENDBRANCH  12  13
ENDBRANCH   1  12
BRANCH   1  21
ATOM     21  C   UNL     1       6.408  -3.619  26.069  0.00  0.00    +0.286 C 
BRANCH  21  22
ATOM     22  O   UNL     1       6.707  -2.672  27.093  0.00  0.00    -0.366 OA
BRANCH  22  23
ATOM     23  C   UNL     1       6.724  -1.321  26.647  0.00  0.00    +0.182 C 
BRANCH  23  24
ATOM     24  C   UNL     1       8.177  -0.852  26.614  0.00  0.00    +0.153 C 
BRANCH  24  25
ATOM     25  N   UNL     1       8.453   0.067  25.526  0.00  0.00    -0.313 N 
ATOM     26  C   UNL     1       9.130  -0.206  24.370  0.00  0.00    +0.165 A 
ATOM     27  C   UNL     1       9.044   0.962  23.627  0.00  0.00    +0.147 A 
ATOM     28  C   UNL     1       9.654   0.956  22.361  0.00  0.00    +0.147 A 
ATOM     29  N   UNL     1      10.292  -0.164  21.958  0.00  0.00    -0.219 NA
ATOM     30  C   UNL     1      10.289  -1.234  22.785  0.00  0.00    +0.225 A 
ATOM     31  N   UNL     1       8.348   1.936  24.312  0.00  0.00    -0.231 NA
ATOM     32  N   UNL     1       9.738  -1.351  24.013  0.00  0.00    -0.216 NA
ATOM     33  C   UNL     1       7.999   1.360  25.444  0.00  0.00    +0.201 A 
BRANCH  28  34
ATOM     34  N   UNL     1       9.646   2.058  21.513  0.00  0.00    -0.341 N 
ATOM     35  H   UNL     1       8.733   2.488  21.455  0.00  0.00    +0.144 HD
ATOM     36  H   UNL     1      10.145   1.890  20.646  0.00  0.00    +0.144 HD
ENDBRANCH  28  34
ENDBRANCH  24  25
ENDBRANCH  23  24
ENDBRANCH  22  23
ENDBRANCH  21  22
ENDBRANCH   1  21
TORSDOF 16
ENDMDL
MODEL 9
REMARK VINA RESULT:      -5.7      2.165      4.443
REMARK  Name = 
REMARK  22 active torsions:
REMARK  status: ('A' for Active; 'I' for Inactive)
REMARK    1  A    between atoms: C_1  and  C_2
REMARK    2  A    between atoms: C_2  and  C_3
REMARK    3  A    between atoms: C_2  and  C_4
REMARK    4  A    between atoms: C_2  and  C_5
REMARK    5  A    between atoms: C_5  and  O_7
REMARK    6  A    between atoms: O_7  and  C_8
REMARK    7  A    between atoms: C_8  and  O_9
REMARK    8  A    between atoms: O_9  and  P_10
REMARK    9  A    between atoms: P_10  and  C_12
REMARK   10  A    between atoms: P_10  and  O_26
REMARK   11  A    between atoms: C_12  and  O_13
REMARK   12  A    between atoms: O_13  and  C_14
REMARK   13  A    between atoms: C_14  and  C_15
REMARK   14  A    between atoms: C_15  and  N_16
REMARK   15  A    between atoms: C_20  and  N_21
REMARK   16  A    between atoms: O_26  and  C_27
REMARK   17  A    between atoms: C_27  and  O_28
REMARK   18  A    between atoms: O_28  and  C_29
REMARK   19  A    between atoms: C_29  and  C_31
REMARK   20  A    between atoms: C_31  and  C_32
REMARK   21  A    between atoms: C_31  and  C_33
REMARK   22  A    between atoms: C_31  and  C_34
REMARK                            x       y       z     vdW  Elec       q    Type
REMARK                         _______ _______ _______ _____ _____    ______ ____
ROOT
ATOM      1  P   UNL     1       5.069  -0.574  26.676  0.00  0.00    +0.363 P 
ATOM      2  O   UNL     1       4.894  -0.153  28.102  0.00  0.00    -0.256 OA
ENDROOT
BRANCH   1   3
ATOM      3  O   UNL     1       6.600  -0.860  26.245  0.00  0.00    -0.268 OA
BRANCH   3   4
ATOM      4  C   UNL     1       6.841  -1.489  25.007  0.00  0.00    +0.407 C 
BRANCH   4   5
ATOM      5  O   UNL     1       8.185  -1.245  24.544  0.00  0.00    -0.437 OA
BRANCH   5   6
ATOM      6  C   UNL     1       8.291  -0.572  23.369  0.00  0.00    +0.314 C 
ATOM      7  O   UNL     1       7.334  -0.247  22.674  0.00  0.00    -0.250 OA
BRANCH   6   8
ATOM      8  C   UNL     1       9.746  -0.254  22.970  0.00  0.00    +0.059 C 
ATOM      9  C   UNL     1       9.716   0.712  21.777  0.00  0.00    +0.022 C 
ATOM     10  C   UNL     1      10.417  -1.569  22.533  0.00  0.00    +0.022 C 
ATOM     11  C   UNL     1      10.590   0.369  24.091  0.00  0.00    +0.022 C 
ENDBRANCH   6   8
ENDBRANCH   5   6
ENDBRANCH   4   5
ENDBRANCH   3   4
ENDBRANCH   1   3
BRANCH   1  12
ATOM     12  O   UNL     1       4.562   0.542  25.618  0.00  0.00    -0.268 OA
BRANCH  12  13
ATOM     13  C   UNL     1       5.191   1.809  25.716  0.00  0.00    +0.407 C 
BRANCH  13  14
ATOM     14  O   UNL     1       5.970   2.134  24.551  0.00  0.00    -0.437 OA
BRANCH  14  15
ATOM     15  C   UNL     1       7.230   2.560  24.837  0.00  0.00    +0.314 C 
ATOM     16  O   UNL     1       7.924   2.079  25.727  0.00  0.00    -0.250 OA
BRANCH  15  18
ATOM     17  C   UNL     1       7.243   3.367  22.481  0.00  0.00    +0.022 C 
ATOM     18  C   UNL     1       7.698   3.696  23.914  0.00  0.00    +0.059 C 
ATOM     19  C   UNL     1       7.072   5.042  24.314  0.00  0.00    +0.022 C 
ATOM     20  C   UNL     1       9.228   3.801  23.944  0.00  0.00    +0.022 C 
ENDBRANCH  15  18
ENDBRANCH  14  15
ENDBRANCH  13  14
ENDBRANCH  12  13
ENDBRANCH   1  12
BRANCH   1  21
ATOM     21  C   UNL     1       4.224  -2.112  26.228  0.00  0.00    +0.286 C 
BRANCH  21  22
ATOM     22  O   UNL     1       4.555  -3.062  27.239  0.00  0.00    -0.366 OA
BRANCH  22  23
ATOM     23  C   UNL     1       3.638  -4.146  27.341  0.00  0.00    +0.182 C 
BRANCH  23  24
ATOM     24  C   UNL     1       4.178  -5.303  26.504  0.00  0.00    +0.153 C 
BRANCH  24  25
ATOM     25  N   UNL     1       5.620  -5.440  26.587  0.00  0.00    -0.313 N 
ATOM     26  C   UNL     1       6.521  -5.273  25.573  0.00  0.00    +0.165 A 
ATOM     27  C   UNL     1       7.761  -5.421  26.176  0.00  0.00    +0.147 A 
ATOM     28  C   UNL     1       8.890  -5.281  25.352  0.00  0.00    +0.147 A 
ATOM     29  N   UNL     1       8.702  -5.030  24.037  0.00  0.00    -0.219 NA
ATOM     30  C   UNL     1       7.433  -4.903  23.587  0.00  0.00    +0.225 A 
ATOM     31  N   UNL     1       7.629  -5.689  27.523  0.00  0.00    -0.231 NA
ATOM     32  N   UNL     1       6.277  -5.011  24.277  0.00  0.00    -0.216 NA
ATOM     33  C   UNL     1       6.330  -5.682  27.737  0.00  0.00    +0.201 A 
BRANCH  28  34
ATOM     34  N   UNL     1      10.193  -5.405  25.824  0.00  0.00    -0.341 N 
ATOM     35  H   UNL     1      10.638  -4.507  25.954  0.00  0.00    +0.144 HD
ATOM     36  H   UNL     1      10.717  -6.129  25.343  0.00  0.00    +0.144 HD
ENDBRANCH  28  34
ENDBRANCH  24  25
ENDBRANCH  23  24
ENDBRANCH  22  23
ENDBRANCH  21  22
ENDBRANCH   1  21
TORSDOF 16
ENDMDL
