MODEL 1
REMARK VINA RESULT:      -8.1      0.000      0.000
REMARK  Name = 
REMARK  5 active torsions:
REMARK  status: ('A' for Active; 'I' for Inactive)
REMARK    1  A    between atoms: N_6  and  C_12
REMARK    2  A    between atoms: C_9  and  O_10
REMARK    3  A    between atoms: C_14  and  C_18
REMARK    4  A    between atoms: N_20  and  C_21
REMARK    5  A    between atoms: C_21  and  C_22
REMARK                            x       y       z     vdW  Elec       q    Type
REMARK                         _______ _______ _______ _____ _____    ______ ____
ROOT
ATOM      1  C   UNL     1       9.488   0.777  23.064  0.00  0.00    +0.087 A 
ATOM      2  C   UNL     1       9.480   0.537  21.680  0.00  0.00    +0.029 A 
ATOM      3  C   UNL     1       9.442  -0.771  21.193  0.00  0.00    +0.003 A 
ATOM      4  C   UNL     1       9.416  -1.843  22.083  0.00  0.00    +0.013 A 
ATOM      5  C   UNL     1       9.409  -1.619  23.468  0.00  0.00    +0.039 A 
ATOM      6  C   UNL     1       9.449  -0.305  23.963  0.00  0.00    +0.042 A 
ENDROOT
BRANCH   1  16
ATOM      7  N   UNL     1       8.584   7.106  25.886  0.00  0.00    -0.327 N 
ATOM      8  H   UNL     1       9.266   7.844  25.990  0.00  0.00    +0.145 HD
ATOM      9  H   UNL     1       8.073   6.812  26.706  0.00  0.00    +0.145 HD
ATOM     10  C   UNL     1       9.119   6.041  25.190  0.00  0.00    +0.218 A 
ATOM     11  N   UNL     1      10.214   6.343  24.445  0.00  0.00    -0.178 NA
ATOM     12  C   UNL     1      10.777   5.382  23.689  0.00  0.00    +0.247 A 
ATOM     13  C   UNL     1      10.197   4.115  23.726  0.00  0.00    +0.193 A 
ATOM     14  C   UNL     1       9.062   3.881  24.561  0.00  0.00    +0.210 A 
ATOM     15  N   UNL     1       8.667   2.610  24.446  0.00  0.00    -0.127 NA
ATOM     16  N   UNL     1       9.549   2.118  23.538  0.00  0.00    -0.148 N 
ATOM     17  N   UNL     1      10.504   2.978  23.084  0.00  0.00    -0.140 NA
ATOM     18  N   UNL     1       8.502   4.844  25.331  0.00  0.00    -0.191 NA
BRANCH  12  19
ATOM     19  O   UNL     1      11.864   5.705  22.920  0.00  0.00    -0.491 OA
ATOM     20  H   UNL     1      11.504   6.212  22.170  0.00  0.00    +0.294 HD
ENDBRANCH  12  19
ENDBRANCH   1  16
BRANCH   5  21
ATOM     21  C   UNL     1       9.429  -2.810  24.365  0.00  0.00    +0.244 C 
ATOM     22  N   UNL     1       8.522  -2.818  25.402  0.00  0.00    -0.307 N 
ATOM     23  H   UNL     1       7.778  -2.137  25.426  0.00  0.00    +0.149 HD
ATOM     24  O   UNL     1      10.223  -3.721  24.157  0.00  0.00    -0.270 OA
BRANCH  22  25
ATOM     25  C   UNL     1       8.502  -3.881  26.382  0.00  0.00    +0.140 C 
BRANCH  25  26
ATOM     26  C   UNL     1       7.303  -4.780  26.231  0.00  0.00    -0.028 A 
ATOM     27  C   UNL     1       6.712  -4.985  24.975  0.00  0.00    +0.025 A 
ATOM     28  C   UNL     1       5.581  -5.797  24.853  0.00  0.00    +0.043 A 
ATOM     29 CL   UNL     1       4.862  -6.022  23.305  0.00  0.00    -0.083 Cl
ATOM     30  C   UNL     1       5.026  -6.417  25.968  0.00  0.00    +0.040 A 
ATOM     31  C   UNL     1       5.618  -6.228  27.214  0.00  0.00    +0.043 A 
ATOM     32 CL   UNL     1       4.937  -6.986  28.601  0.00  0.00    -0.083 Cl
ATOM     33  C   UNL     1       6.752  -5.425  27.350  0.00  0.00    +0.025 A 
ENDBRANCH  25  26
ENDBRANCH  22  25
ENDBRANCH   5  21
TORSDOF 5
ENDMDL
MODEL 2
REMARK VINA RESULT:      -8.1      0.110      1.674
REMARK  Name = 
REMARK  5 active torsions:
REMARK  status: ('A' for Active; 'I' for Inactive)
REMARK    1  A    between atoms: N_6  and  C_12
REMARK    2  A    between atoms: C_9  and  O_10
REMARK    3  A    between atoms: C_14  and  C_18
REMARK    4  A    between atoms: N_20  and  C_21
REMARK    5  A    between atoms: C_21  and  C_22
REMARK                            x       y       z     vdW  Elec       q    Type
REMARK                         _______ _______ _______ _____ _____    ______ ____
ROOT
ATOM      1  C   UNL     1       9.473   0.775  23.072  0.00  0.00    +0.087 A 
ATOM      2  C   UNL     1       9.446   0.533  21.688  0.00  0.00    +0.029 A 
ATOM      3  C   UNL     1       9.405  -0.775  21.203  0.00  0.00    +0.003 A 
ATOM      4  C   UNL     1       9.395  -1.847  22.095  0.00  0.00    +0.013 A 
ATOM      5  C   UNL     1       9.407  -1.621  23.479  0.00  0.00    +0.039 A 
ATOM      6  C   UNL     1       9.450  -0.305  23.972  0.00  0.00    +0.042 A 
ENDROOT
BRANCH   1  16
ATOM      7  N   UNL     1       8.585   7.108  25.889  0.00  0.00    -0.327 N 
ATOM      8  H   UNL     1       9.268   7.847  25.987  0.00  0.00    +0.145 HD
ATOM      9  H   UNL     1       8.081   6.816  26.713  0.00  0.00    +0.145 HD
ATOM     10  C   UNL     1       9.116   6.042  25.192  0.00  0.00    +0.218 A 
ATOM     11  N   UNL     1      10.205   6.344  24.438  0.00  0.00    -0.178 NA
ATOM     12  C   UNL     1      10.764   5.382  23.679  0.00  0.00    +0.247 A 
ATOM     13  C   UNL     1      10.185   4.115  23.723  0.00  0.00    +0.193 A 
ATOM     14  C   UNL     1       9.056   3.881  24.566  0.00  0.00    +0.210 A 
ATOM     15  N   UNL     1       8.661   2.610  24.457  0.00  0.00    -0.127 NA
ATOM     16  N   UNL     1       9.536   2.117  23.543  0.00  0.00    -0.148 N 
ATOM     17  N   UNL     1      10.488   2.976  23.080  0.00  0.00    -0.140 NA
ATOM     18  N   UNL     1       8.500   4.846  25.339  0.00  0.00    -0.191 NA
BRANCH  12  19
ATOM     19  O   UNL     1      11.845   5.705  22.902  0.00  0.00    -0.491 OA
ATOM     20  H   UNL     1      12.444   4.939  22.970  0.00  0.00    +0.294 HD
ENDBRANCH  12  19
ENDBRANCH   1  16
BRANCH   5  21
ATOM     21  C   UNL     1       9.444  -2.810  24.378  0.00  0.00    +0.244 C 
ATOM     22  N   UNL     1       8.570  -2.808  25.443  0.00  0.00    -0.307 N 
ATOM     23  H   UNL     1       7.834  -2.119  25.489  0.00  0.00    +0.149 HD
ATOM     24  O   UNL     1      10.222  -3.730  24.146  0.00  0.00    -0.270 OA
BRANCH  22  25
ATOM     25  C   UNL     1       8.571  -3.869  26.425  0.00  0.00    +0.140 C 
BRANCH  25  26
ATOM     26  C   UNL     1       7.346  -4.741  26.330  0.00  0.00    -0.028 A 
ATOM     27  C   UNL     1       6.761  -5.287  27.483  0.00  0.00    +0.025 A 
ATOM     28  C   UNL     1       5.643  -6.119  27.378  0.00  0.00    +0.043 A 
ATOM     29 CL   UNL     1       4.951  -6.791  28.804  0.00  0.00    -0.083 Cl
ATOM     30  C   UNL     1       5.091  -6.417  26.137  0.00  0.00    +0.040 A 
ATOM     31  C   UNL     1       5.660  -5.866  24.992  0.00  0.00    +0.043 A 
ATOM     32 CL   UNL     1       4.988  -6.233  23.450  0.00  0.00    -0.083 Cl
ATOM     33  C   UNL     1       6.772  -5.028  25.081  0.00  0.00    +0.025 A 
ENDBRANCH  25  26
ENDBRANCH  22  25
ENDBRANCH   5  21
TORSDOF 5
ENDMDL
MODEL 3
REMARK VINA RESULT:      -7.9      4.745      9.930
REMARK  Name = 
REMARK  5 active torsions:
REMARK  status: ('A' for Active; 'I' for Inactive)
REMARK    1  A    between atoms: N_6  and  C_12
REMARK    2  A    between atoms: C_9  and  O_10
REMARK    3  A    between atoms: C_14  and  C_18
REMARK    4  A    between atoms: N_20  and  C_21
REMARK    5  A    between atoms: C_21  and  C_22
REMARK                            x       y       z     vdW  Elec       q    Type
REMARK                         _______ _______ _______ _____ _____    ______ ____
ROOT
ATOM      1  C   UNL     1       6.045  -5.241  24.285  0.00  0.00    +0.087 A 
ATOM      2  C   UNL     1       5.543  -5.654  23.039  0.00  0.00    +0.029 A 
ATOM      3  C   UNL     1       6.117  -5.182  21.857  0.00  0.00    +0.003 A 
ATOM      4  C   UNL     1       7.190  -4.294  21.913  0.00  0.00    +0.013 A 
ATOM      5  C   UNL     1       7.711  -3.883  23.148  0.00  0.00    +0.039 A 
ATOM      6  C   UNL     1       7.135  -4.354  24.341  0.00  0.00    +0.042 A 
ENDROOT
BRANCH   1  16
ATOM      7  N   UNL     1       1.942  -6.971  29.670  0.00  0.00    -0.327 N 
ATOM      8  H   UNL     1       2.137  -7.623  30.417  0.00  0.00    +0.145 HD
ATOM      9  H   UNL     1       1.085  -7.089  29.149  0.00  0.00    +0.145 HD
ATOM     10  C   UNL     1       3.041  -6.826  28.848  0.00  0.00    +0.218 A 
ATOM     11  N   UNL     1       4.221  -7.200  29.408  0.00  0.00    -0.178 NA
ATOM     12  C   UNL     1       5.358  -7.047  28.703  0.00  0.00    +0.247 A 
ATOM     13  C   UNL     1       5.249  -6.515  27.419  0.00  0.00    +0.193 A 
ATOM     14  C   UNL     1       3.962  -6.176  26.900  0.00  0.00    +0.210 A 
ATOM     15  N   UNL     1       4.084  -5.685  25.664  0.00  0.00    -0.127 NA
ATOM     16  N   UNL     1       5.429  -5.718  25.476  0.00  0.00    -0.148 N 
ATOM     17  N   UNL     1       6.178  -6.226  26.495  0.00  0.00    -0.140 NA
ATOM     18  N   UNL     1       2.817  -6.340  27.605  0.00  0.00    -0.191 NA
BRANCH  12  19
ATOM     19  O   UNL     1       6.544  -7.402  29.288  0.00  0.00    -0.491 OA
ATOM     20  H   UNL     1       7.231  -6.946  28.768  0.00  0.00    +0.294 HD
ENDBRANCH  12  19
ENDBRANCH   1  16
BRANCH   5  21
ATOM     21  C   UNL     1       8.827  -2.894  23.138  0.00  0.00    +0.244 C 
ATOM     22  N   UNL     1       8.802  -1.943  22.140  0.00  0.00    -0.307 N 
ATOM     23  H   UNL     1       7.975  -1.831  21.573  0.00  0.00    +0.149 HD
ATOM     24  O   UNL     1       9.703  -2.948  23.994  0.00  0.00    -0.270 OA
BRANCH  22  25
ATOM     25  C   UNL     1       9.871  -0.983  21.982  0.00  0.00    +0.140 C 
BRANCH  25  26
ATOM     26  C   UNL     1       9.433   0.422  22.302  0.00  0.00    -0.028 A 
ATOM     27  C   UNL     1      10.369   1.400  22.673  0.00  0.00    +0.025 A 
ATOM     28  C   UNL     1       9.947   2.692  22.996  0.00  0.00    +0.043 A 
ATOM     29 CL   UNL     1      11.110   3.872  23.464  0.00  0.00    -0.083 Cl
ATOM     30  C   UNL     1       8.598   3.033  22.952  0.00  0.00    +0.040 A 
ATOM     31  C   UNL     1       7.668   2.069  22.571  0.00  0.00    +0.043 A 
ATOM     32 CL   UNL     1       5.996   2.477  22.519  0.00  0.00    -0.083 Cl
ATOM     33  C   UNL     1       8.076   0.776  22.239  0.00  0.00    +0.025 A 
ENDBRANCH  25  26
ENDBRANCH  22  25
ENDBRANCH   5  21
TORSDOF 5
ENDMDL
MODEL 4
REMARK VINA RESULT:      -7.9      1.819      2.517
REMARK  Name = 
REMARK  5 active torsions:
REMARK  status: ('A' for Active; 'I' for Inactive)
REMARK    1  A    between atoms: N_6  and  C_12
REMARK    2  A    between atoms: C_9  and  O_10
REMARK    3  A    between atoms: C_14  and  C_18
REMARK    4  A    between atoms: N_20  and  C_21
REMARK    5  A    between atoms: C_21  and  C_22
REMARK                            x       y       z     vdW  Elec       q    Type
REMARK                         _______ _______ _______ _____ _____    ______ ____
ROOT
ATOM      1  C   UNL     1       9.126   0.605  23.248  0.00  0.00    +0.087 A 
ATOM      2  C   UNL     1       9.877  -0.024  22.241  0.00  0.00    +0.029 A 
ATOM      3  C   UNL     1      10.228  -1.370  22.360  0.00  0.00    +0.003 A 
ATOM      4  C   UNL     1       9.835  -2.093  23.486  0.00  0.00    +0.013 A 
ATOM      5  C   UNL     1       9.072  -1.484  24.493  0.00  0.00    +0.039 A 
ATOM      6  C   UNL     1       8.719  -0.128  24.378  0.00  0.00    +0.042 A 
ENDROOT
BRANCH   1  16
ATOM      7  N   UNL     1       6.791   6.971  21.561  0.00  0.00    -0.327 N 
ATOM      8  H   UNL     1       6.882   7.828  22.090  0.00  0.00    +0.145 HD
ATOM      9  H   UNL     1       5.869   6.696  21.257  0.00  0.00    +0.145 HD
ATOM     10  C   UNL     1       7.470   5.941  22.180  0.00  0.00    +0.218 A 
ATOM     11  N   UNL     1       8.426   6.339  23.059  0.00  0.00    -0.178 NA
ATOM     12  C   UNL     1       9.179   5.408  23.675  0.00  0.00    +0.247 A 
ATOM     13  C   UNL     1       8.919   4.072  23.373  0.00  0.00    +0.193 A 
ATOM     14  C   UNL     1       7.874   3.744  22.456  0.00  0.00    +0.210 A 
ATOM     15  N   UNL     1       7.795   2.419  22.309  0.00  0.00    -0.127 NA
ATOM     16  N   UNL     1       8.799   1.984  23.115  0.00  0.00    -0.148 N 
ATOM     17  N   UNL     1       9.497   2.937  23.795  0.00  0.00    -0.140 NA
ATOM     18  N   UNL     1       7.108   4.680  21.845  0.00  0.00    -0.191 NA
BRANCH  12  19
ATOM     19  O   UNL     1      10.158   5.822  24.539  0.00  0.00    -0.491 OA
ATOM     20  H   UNL     1       9.845   5.559  25.423  0.00  0.00    +0.294 HD
ENDBRANCH  12  19
ENDBRANCH   1  16
BRANCH   5  21
ATOM     21  C   UNL     1       8.727  -2.299  25.692  0.00  0.00    +0.244 C 
ATOM     22  N   UNL     1       8.935  -3.658  25.597  0.00  0.00    -0.307 N 
ATOM     23  H   UNL     1       9.460  -4.034  24.822  0.00  0.00    +0.149 HD
ATOM     24  O   UNL     1       8.287  -1.753  26.699  0.00  0.00    -0.270 OA
BRANCH  22  25
ATOM     25  C   UNL     1       8.563  -4.557  26.666  0.00  0.00    +0.140 C 
BRANCH  25  26
ATOM     26  C   UNL     1       7.213  -5.188  26.443  0.00  0.00    -0.028 A 
ATOM     27  C   UNL     1       6.468  -5.691  27.520  0.00  0.00    +0.025 A 
ATOM     28  C   UNL     1       5.231  -6.302  27.297  0.00  0.00    +0.043 A 
ATOM     29 CL   UNL     1       4.340  -6.926  28.631  0.00  0.00    -0.083 Cl
ATOM     30  C   UNL     1       4.716  -6.417  26.009  0.00  0.00    +0.040 A 
ATOM     31  C   UNL     1       5.446  -5.907  24.939  0.00  0.00    +0.043 A 
ATOM     32 CL   UNL     1       4.822  -6.050  23.341  0.00  0.00    -0.083 Cl
ATOM     33  C   UNL     1       6.680  -5.288  25.148  0.00  0.00    +0.025 A 
ENDBRANCH  25  26
ENDBRANCH  22  25
ENDBRANCH   5  21
TORSDOF 5
ENDMDL
MODEL 5
REMARK VINA RESULT:      -7.7      4.717     10.040
REMARK  Name = 
REMARK  5 active torsions:
REMARK  status: ('A' for Active; 'I' for Inactive)
REMARK    1  A    between atoms: N_6  and  C_12
REMARK    2  A    between atoms: C_9  and  O_10
REMARK    3  A    between atoms: C_14  and  C_18
REMARK    4  A    between atoms: N_20  and  C_21
REMARK    5  A    between atoms: C_21  and  C_22
REMARK                            x       y       z     vdW  Elec       q    Type
REMARK                         _______ _______ _______ _____ _____    ______ ____
ROOT
ATOM      1  C   UNL     1       7.263  -4.652  24.333  0.00  0.00    +0.087 A 
ATOM      2  C   UNL     1       8.165  -5.191  25.265  0.00  0.00    +0.029 A 
ATOM      3  C   UNL     1       9.439  -4.639  25.413  0.00  0.00    +0.003 A 
ATOM      4  C   UNL     1       9.819  -3.551  24.629  0.00  0.00    +0.013 A 
ATOM      5  C   UNL     1       8.925  -2.993  23.703  0.00  0.00    +0.039 A 
ATOM      6  C   UNL     1       7.642  -3.547  23.550  0.00  0.00    +0.042 A 
ENDROOT
BRANCH   1  16
ATOM      7  N   UNL     1       0.839  -6.754  22.560  0.00  0.00    -0.327 N 
ATOM      8  H   UNL     1       0.320  -7.543  22.922  0.00  0.00    +0.145 HD
ATOM      9  H   UNL     1       0.947  -6.676  21.560  0.00  0.00    +0.145 HD
ATOM     10  C   UNL     1       2.036  -6.608  23.231  0.00  0.00    +0.218 A 
ATOM     11  N   UNL     1       2.082  -7.213  24.447  0.00  0.00    -0.178 NA
ATOM     12  C   UNL     1       3.190  -7.084  25.201  0.00  0.00    +0.247 A 
ATOM     13  C   UNL     1       4.239  -6.333  24.675  0.00  0.00    +0.193 A 
ATOM     14  C   UNL     1       4.114  -5.755  23.374  0.00  0.00    +0.210 A 
ATOM     15  N   UNL     1       5.224  -5.080  23.066  0.00  0.00    -0.127 NA
ATOM     16  N   UNL     1       5.977  -5.246  24.185  0.00  0.00    -0.148 N 
ATOM     17  N   UNL     1       5.440  -6.007  25.179  0.00  0.00    -0.140 NA
ATOM     18  N   UNL     1       3.004  -5.894  22.610  0.00  0.00    -0.191 NA
BRANCH  12  19
ATOM     19  O   UNL     1       3.214  -7.675  26.437  0.00  0.00    -0.491 OA
ATOM     20  H   UNL     1       4.116  -7.522  26.774  0.00  0.00    +0.294 HD
ENDBRANCH  12  19
ENDBRANCH   1  16
BRANCH   5  21
ATOM     21  C   UNL     1       9.411  -1.862  22.862  0.00  0.00    +0.244 C 
ATOM     22  N   UNL     1       8.541  -0.808  22.681  0.00  0.00    -0.307 N 
ATOM     23  H   UNL     1       7.703  -0.745  23.240  0.00  0.00    +0.149 HD
ATOM     24  O   UNL     1      10.536  -1.898  22.377  0.00  0.00    -0.270 OA
BRANCH  22  25
ATOM     25  C   UNL     1       8.871   0.306  21.821  0.00  0.00    +0.140 C 
BRANCH  25  26
ATOM     26  C   UNL     1       9.068   1.587  22.590  0.00  0.00    -0.028 A 
ATOM     27  C   UNL     1      10.314   2.233  22.603  0.00  0.00    +0.025 A 
ATOM     28  C   UNL     1      10.492   3.403  23.345  0.00  0.00    +0.043 A 
ATOM     29 CL   UNL     1      12.033   4.171  23.360  0.00  0.00    -0.083 Cl
ATOM     30  C   UNL     1       9.442   3.949  24.078  0.00  0.00    +0.040 A 
ATOM     31  C   UNL     1       8.201   3.319  24.056  0.00  0.00    +0.043 A 
ATOM     32 CL   UNL     1       6.897   3.982  24.963  0.00  0.00    -0.083 Cl
ATOM     33  C   UNL     1       8.006   2.153  23.314  0.00  0.00    +0.025 A 
ENDBRANCH  25  26
ENDBRANCH  22  25
ENDBRANCH   5  21
TORSDOF 5
ENDMDL
MODEL 6
REMARK VINA RESULT:      -7.6      4.750     10.287
REMARK  Name = 
REMARK  5 active torsions:
REMARK  status: ('A' for Active; 'I' for Inactive)
REMARK    1  A    between atoms: N_6  and  C_12
REMARK    2  A    between atoms: C_9  and  O_10
REMARK    3  A    between atoms: C_14  and  C_18
REMARK    4  A    between atoms: N_20  and  C_21
REMARK    5  A    between atoms: C_21  and  C_22
REMARK                            x       y       z     vdW  Elec       q    Type
REMARK                         _______ _______ _______ _____ _____    ______ ____
ROOT
ATOM      1  C   UNL     1       6.766  -5.114  25.453  0.00  0.00    +0.087 A 
ATOM      2  C   UNL     1       7.869  -5.377  26.282  0.00  0.00    +0.029 A 
ATOM      3  C   UNL     1       9.111  -4.801  26.006  0.00  0.00    +0.003 A 
ATOM      4  C   UNL     1       9.258  -3.966  24.899  0.00  0.00    +0.013 A 
ATOM      5  C   UNL     1       8.162  -3.683  24.070  0.00  0.00    +0.039 A 
ATOM      6  C   UNL     1       6.911  -4.262  24.344  0.00  0.00    +0.042 A 
ENDROOT
BRANCH   1  16
ATOM      7  N   UNL     1       0.878  -7.764  28.125  0.00  0.00    -0.327 N 
ATOM      8  H   UNL     1       0.077  -8.128  27.627  0.00  0.00    +0.145 HD
ATOM      9  H   UNL     1       0.720  -7.054  28.825  0.00  0.00    +0.145 HD
ATOM     10  C   UNL     1       1.885  -7.422  27.246  0.00  0.00    +0.218 A 
ATOM     11  N   UNL     1       1.797  -8.012  26.026  0.00  0.00    -0.178 NA
ATOM     12  C   UNL     1       2.762  -7.781  25.115  0.00  0.00    +0.247 A 
ATOM     13  C   UNL     1       3.803  -6.932  25.486  0.00  0.00    +0.193 A 
ATOM     14  C   UNL     1       3.800  -6.333  26.784  0.00  0.00    +0.210 A 
ATOM     15  N   UNL     1       4.881  -5.562  26.932  0.00  0.00    -0.127 NA
ATOM     16  N   UNL     1       5.515  -5.729  25.743  0.00  0.00    -0.148 N 
ATOM     17  N   UNL     1       4.901  -6.530  24.827  0.00  0.00    -0.140 NA
ATOM     18  N   UNL     1       2.823  -6.555  27.696  0.00  0.00    -0.191 NA
BRANCH  12  19
ATOM     19  O   UNL     1       2.677  -8.403  23.898  0.00  0.00    -0.491 OA
ATOM     20  H   UNL     1       2.074  -7.848  23.370  0.00  0.00    +0.294 HD
ENDBRANCH  12  19
ENDBRANCH   1  16
BRANCH   5  21
ATOM     21  C   UNL     1       8.398  -2.822  22.876  0.00  0.00    +0.244 C 
ATOM     22  N   UNL     1       9.486  -1.977  22.928  0.00  0.00    -0.307 N 
ATOM     23  H   UNL     1      10.170  -2.082  23.662  0.00  0.00    +0.149 HD
ATOM     24  O   UNL     1       7.646  -2.893  21.910  0.00  0.00    -0.270 OA
BRANCH  22  25
ATOM     25  C   UNL     1       9.768  -1.040  21.864  0.00  0.00    +0.140 C 
BRANCH  25  26
ATOM     26  C   UNL     1       9.390   0.372  22.226  0.00  0.00    -0.028 A 
ATOM     27  C   UNL     1      10.368   1.301  22.612  0.00  0.00    +0.025 A 
ATOM     28  C   UNL     1      10.000   2.600  22.976  0.00  0.00    +0.043 A 
ATOM     29 CL   UNL     1      11.215   3.720  23.461  0.00  0.00    -0.083 Cl
ATOM     30  C   UNL     1       8.666   2.995  22.957  0.00  0.00    +0.040 A 
ATOM     31  C   UNL     1       7.695   2.080  22.561  0.00  0.00    +0.043 A 
ATOM     32 CL   UNL     1       6.040   2.555  22.540  0.00  0.00    -0.083 Cl
ATOM     33  C   UNL     1       8.047   0.781  22.189  0.00  0.00    +0.025 A 
ENDBRANCH  25  26
ENDBRANCH  22  25
ENDBRANCH   5  21
TORSDOF 5
ENDMDL
MODEL 7
REMARK VINA RESULT:      -7.6      4.712      9.679
REMARK  Name = 
REMARK  5 active torsions:
REMARK  status: ('A' for Active; 'I' for Inactive)
REMARK    1  A    between atoms: N_6  and  C_12
REMARK    2  A    between atoms: C_9  and  O_10
REMARK    3  A    between atoms: C_14  and  C_18
REMARK    4  A    between atoms: N_20  and  C_21
REMARK    5  A    between atoms: C_21  and  C_22
REMARK                            x       y       z     vdW  Elec       q    Type
REMARK                         _______ _______ _______ _____ _____    ______ ____
ROOT
ATOM      1  C   UNL     1       5.872  -5.584  24.240  0.00  0.00    +0.087 A 
ATOM      2  C   UNL     1       5.490  -6.242  23.059  0.00  0.00    +0.029 A 
ATOM      3  C   UNL     1       6.032  -5.858  21.831  0.00  0.00    +0.003 A 
ATOM      4  C   UNL     1       6.954  -4.814  21.776  0.00  0.00    +0.013 A 
ATOM      5  C   UNL     1       7.356  -4.155  22.947  0.00  0.00    +0.039 A 
ATOM      6  C   UNL     1       6.812  -4.538  24.185  0.00  0.00    +0.042 A 
ENDROOT
BRANCH   1  16
ATOM      7  N   UNL     1       1.895  -7.016  29.804  0.00  0.00    -0.327 N 
ATOM      8  H   UNL     1       2.131  -7.582  30.608  0.00  0.00    +0.145 HD
ATOM      9  H   UNL     1       1.044  -7.231  29.305  0.00  0.00    +0.145 HD
ATOM     10  C   UNL     1       2.981  -6.890  28.961  0.00  0.00    +0.218 A 
ATOM     11  N   UNL     1       4.183  -7.142  29.543  0.00  0.00    -0.178 NA
ATOM     12  C   UNL     1       5.307  -6.995  28.817  0.00  0.00    +0.247 A 
ATOM     13  C   UNL     1       5.163  -6.595  27.489  0.00  0.00    +0.193 A 
ATOM     14  C   UNL     1       3.857  -6.379  26.952  0.00  0.00    +0.210 A 
ATOM     15  N   UNL     1       3.946  -6.002  25.674  0.00  0.00    -0.127 NA
ATOM     16  N   UNL     1       5.290  -5.978  25.478  0.00  0.00    -0.148 N 
ATOM     17  N   UNL     1       6.070  -6.344  26.533  0.00  0.00    -0.140 NA
ATOM     18  N   UNL     1       2.725  -6.538  27.680  0.00  0.00    -0.191 NA
BRANCH  12  19
ATOM     19  O   UNL     1       6.514  -7.225  29.422  0.00  0.00    -0.491 OA
ATOM     20  H   UNL     1       6.974  -6.366  29.405  0.00  0.00    +0.294 HD
ENDBRANCH  12  19
ENDBRANCH   1  16
BRANCH   5  21
ATOM     21  C   UNL     1       8.308  -3.015  22.813  0.00  0.00    +0.244 C 
ATOM     22  N   UNL     1       9.268  -2.892  23.794  0.00  0.00    -0.307 N 
ATOM     23  H   UNL     1       9.413  -3.642  24.453  0.00  0.00    +0.149 HD
ATOM     24  O   UNL     1       8.216  -2.249  21.860  0.00  0.00    -0.270 OA
BRANCH  22  25
ATOM     25  C   UNL     1      10.193  -1.782  23.812  0.00  0.00    +0.140 C 
BRANCH  25  26
ATOM     26  C   UNL     1       9.561  -0.514  24.325  0.00  0.00    -0.028 A 
ATOM     27  C   UNL     1       8.511  -0.560  25.255  0.00  0.00    +0.025 A 
ATOM     28  C   UNL     1       7.913   0.621  25.700  0.00  0.00    +0.043 A 
ATOM     29 CL   UNL     1       6.616   0.541  26.830  0.00  0.00    -0.083 Cl
ATOM     30  C   UNL     1       8.346   1.859  25.235  0.00  0.00    +0.040 A 
ATOM     31  C   UNL     1       9.397   1.909  24.323  0.00  0.00    +0.043 A 
ATOM     32 CL   UNL     1       9.937   3.434  23.735  0.00  0.00    -0.083 Cl
ATOM     33  C   UNL     1      10.009   0.738  23.874  0.00  0.00    +0.025 A 
ENDBRANCH  25  26
ENDBRANCH  22  25
ENDBRANCH   5  21
TORSDOF 5
ENDMDL
MODEL 8
REMARK VINA RESULT:      -7.6      2.125      2.663
REMARK  Name = 
REMARK  5 active torsions:
REMARK  status: ('A' for Active; 'I' for Inactive)
REMARK    1  A    between atoms: N_6  and  C_12
REMARK    2  A    between atoms: C_9  and  O_10
REMARK    3  A    between atoms: C_14  and  C_18
REMARK    4  A    between atoms: N_20  and  C_21
REMARK    5  A    between atoms: C_21  and  C_22
REMARK                            x       y       z     vdW  Elec       q    Type
REMARK                         _______ _______ _______ _____ _____    ______ ____
ROOT
ATOM      1  C   UNL     1       8.896   0.590  23.091  0.00  0.00    +0.087 A 
ATOM      2  C   UNL     1      10.216   0.152  22.898  0.00  0.00    +0.029 A 
ATOM      3  C   UNL     1      10.477  -1.182  22.578  0.00  0.00    +0.003 A 
ATOM      4  C   UNL     1       9.421  -2.084  22.454  0.00  0.00    +0.013 A 
ATOM      5  C   UNL     1       8.096  -1.659  22.629  0.00  0.00    +0.039 A 
ATOM      6  C   UNL     1       7.830  -0.317  22.953  0.00  0.00    +0.042 A 
ENDROOT
BRANCH   1  16
ATOM      7  N   UNL     1       7.732   6.816  26.042  0.00  0.00    -0.327 N 
ATOM      8  H   UNL     1       7.746   7.727  25.602  0.00  0.00    +0.145 HD
ATOM      9  H   UNL     1       8.297   6.679  26.867  0.00  0.00    +0.145 HD
ATOM     10  C   UNL     1       7.914   5.819  25.106  0.00  0.00    +0.218 A 
ATOM     11  N   UNL     1       7.644   6.185  23.826  0.00  0.00    -0.178 NA
ATOM     12  C   UNL     1       7.742   5.267  22.847  0.00  0.00    +0.247 A 
ATOM     13  C   UNL     1       8.129   3.979  23.213  0.00  0.00    +0.193 A 
ATOM     14  C   UNL     1       8.420   3.689  24.582  0.00  0.00    +0.210 A 
ATOM     15  N   UNL     1       8.767   2.406  24.712  0.00  0.00    -0.127 NA
ATOM     16  N   UNL     1       8.657   1.950  23.438  0.00  0.00    -0.148 N 
ATOM     17  N   UNL     1       8.293   2.860  22.490  0.00  0.00    -0.140 NA
ATOM     18  N   UNL     1       8.333   4.616  25.566  0.00  0.00    -0.191 NA
BRANCH  12  19
ATOM     19  O   UNL     1       7.441   5.641  21.564  0.00  0.00    -0.491 OA
ATOM     20  H   UNL     1       7.747   4.903  21.005  0.00  0.00    +0.294 HD
ENDBRANCH  12  19
ENDBRANCH   1  16
BRANCH   5  21
ATOM     21  C   UNL     1       7.018  -2.684  22.531  0.00  0.00    +0.244 C 
ATOM     22  N   UNL     1       7.413  -4.004  22.584  0.00  0.00    -0.307 N 
ATOM     23  H   UNL     1       8.356  -4.236  22.856  0.00  0.00    +0.149 HD
ATOM     24  O   UNL     1       5.848  -2.335  22.415  0.00  0.00    -0.270 OA
BRANCH  22  25
ATOM     25  C   UNL     1       6.467  -5.084  22.419  0.00  0.00    +0.140 C 
BRANCH  25  26
ATOM     26  C   UNL     1       5.940  -5.593  23.735  0.00  0.00    -0.028 A 
ATOM     27  C   UNL     1       6.592  -5.283  24.938  0.00  0.00    +0.025 A 
ATOM     28  C   UNL     1       6.111  -5.787  26.150  0.00  0.00    +0.043 A 
ATOM     29 CL   UNL     1       6.935  -5.406  27.613  0.00  0.00    -0.083 Cl
ATOM     30  C   UNL     1       4.981  -6.598  26.185  0.00  0.00    +0.040 A 
ATOM     31  C   UNL     1       4.323  -6.897  24.995  0.00  0.00    +0.043 A 
ATOM     32 CL   UNL     1       2.928  -7.905  25.026  0.00  0.00    -0.083 Cl
ATOM     33  C   UNL     1       4.788  -6.395  23.778  0.00  0.00    +0.025 A 
ENDBRANCH  25  26
ENDBRANCH  22  25
ENDBRANCH   5  21
TORSDOF 5
ENDMDL
MODEL 9
REMARK VINA RESULT:      -7.5      1.536      2.611
REMARK  Name = 
REMARK  5 active torsions:
REMARK  status: ('A' for Active; 'I' for Inactive)
REMARK    1  A    between atoms: N_6  and  C_12
REMARK    2  A    between atoms: C_9  and  O_10
REMARK    3  A    between atoms: C_14  and  C_18
REMARK    4  A    between atoms: N_20  and  C_21
REMARK    5  A    between atoms: C_21  and  C_22
REMARK                            x       y       z     vdW  Elec       q    Type
REMARK                         _______ _______ _______ _____ _____    ______ ____
ROOT
ATOM      1  C   UNL     1       9.274   0.351  23.429  0.00  0.00    +0.087 A 
ATOM      2  C   UNL     1       9.113  -0.274  22.182  0.00  0.00    +0.029 A 
ATOM      3  C   UNL     1       8.680  -1.600  22.109  0.00  0.00    +0.003 A 
ATOM      4  C   UNL     1       8.411  -2.307  23.280  0.00  0.00    +0.013 A 
ATOM      5  C   UNL     1       8.554  -1.693  24.532  0.00  0.00    +0.039 A 
ATOM      6  C   UNL     1       8.992  -0.359  24.610  0.00  0.00    +0.042 A 
ENDROOT
BRANCH   1  16
ATOM      7  N   UNL     1      12.755   6.403  23.725  0.00  0.00    -0.327 N 
ATOM      8  H   UNL     1      12.393   7.337  23.586  0.00  0.00    +0.145 HD
ATOM      9  H   UNL     1      13.557   6.120  23.183  0.00  0.00    +0.145 HD
ATOM     10  C   UNL     1      11.736   5.473  23.682  0.00  0.00    +0.218 A 
ATOM     11  N   UNL     1      10.495   5.981  23.901  0.00  0.00    -0.178 NA
ATOM     12  C   UNL     1       9.440   5.145  23.931  0.00  0.00    +0.247 A 
ATOM     13  C   UNL     1       9.692   3.790  23.724  0.00  0.00    +0.193 A 
ATOM     14  C   UNL     1      11.027   3.347  23.473  0.00  0.00    +0.210 A 
ATOM     15  N   UNL     1      11.045   2.022  23.306  0.00  0.00    -0.127 NA
ATOM     16  N   UNL     1       9.738   1.696  23.479  0.00  0.00    -0.148 N 
ATOM     17  N   UNL     1       8.875   2.725  23.716  0.00  0.00    -0.140 NA
ATOM     18  N   UNL     1      12.087   4.190  23.432  0.00  0.00    -0.191 NA
BRANCH  12  19
ATOM     19  O   UNL     1       8.198   5.665  24.179  0.00  0.00    -0.491 OA
ATOM     20  H   UNL     1       7.588   5.138  23.631  0.00  0.00    +0.294 HD
ENDBRANCH  12  19
ENDBRANCH   1  16
BRANCH   5  21
ATOM     21  C   UNL     1       8.298  -2.520  25.746  0.00  0.00    +0.244 C 
ATOM     22  N   UNL     1       8.614  -3.859  25.660  0.00  0.00    -0.307 N 
ATOM     23  H   UNL     1       9.153  -4.199  24.878  0.00  0.00    +0.149 HD
ATOM     24  O   UNL     1       7.835  -2.000  26.756  0.00  0.00    -0.270 OA
BRANCH  22  25
ATOM     25  C   UNL     1       8.336  -4.773  26.745  0.00  0.00    +0.140 C 
BRANCH  25  26
ATOM     26  C   UNL     1       6.973  -5.405  26.629  0.00  0.00    -0.028 A 
ATOM     27  C   UNL     1       6.283  -5.839  27.771  0.00  0.00    +0.025 A 
ATOM     28  C   UNL     1       5.033  -6.452  27.647  0.00  0.00    +0.043 A 
ATOM     29 CL   UNL     1       4.210  -6.991  29.060  0.00  0.00    -0.083 Cl
ATOM     30  C   UNL     1       4.451  -6.638  26.397  0.00  0.00    +0.040 A 
ATOM     31  C   UNL     1       5.127  -6.196  25.263  0.00  0.00    +0.043 A 
ATOM     32 CL   UNL     1       4.420  -6.426  23.710  0.00  0.00    -0.083 Cl
ATOM     33  C   UNL     1       6.373  -5.576  25.371  0.00  0.00    +0.025 A 
ENDBRANCH  25  26
ENDBRANCH  22  25
ENDBRANCH   5  21
TORSDOF 5
ENDMDL
