MODEL 1
REMARK VINA RESULT:      -6.5      0.000      0.000
REMARK  Name = 
REMARK  3 active torsions:
REMARK  status: ('A' for Active; 'I' for Inactive)
REMARK    1  A    between atoms: C_4  and  C_16
REMARK    2  A    between atoms: C_5  and  N_8
REMARK    3  A    between atoms: N_9  and  C_10
REMARK                            x       y       z     vdW  Elec       q    Type
REMARK                         _______ _______ _______ _____ _____    ______ ____
ROOT
ATOM      1  N   UNL     1       8.082  -3.522  23.275  0.00  0.00    -0.327 N 
ATOM      2  H   UNL     1       8.705  -4.174  23.732  0.00  0.00    +0.145 HD
ATOM      3  H   UNL     1       7.101  -3.585  23.513  0.00  0.00    +0.145 HD
ATOM      4  C   UNL     1       8.522  -2.233  23.504  0.00  0.00    +0.213 A 
ATOM      5  N   UNL     1       9.803  -2.071  23.818  0.00  0.00    -0.221 NA
ATOM      6  C   UNL     1      10.181  -0.808  24.097  0.00  0.00    +0.146 A 
ATOM      7  C   UNL     1       9.337   0.294  24.121  0.00  0.00    +0.130 A 
ATOM      8  C   UNL     1       8.011   0.011  23.775  0.00  0.00    +0.105 A 
ATOM      9  N   UNL     1       7.623  -1.251  23.456  0.00  0.00    -0.212 NA
ENDROOT
BRANCH   8  10
ATOM     10  C   UNL     1       6.920   1.031  23.678  0.00  0.00    +0.021 A 
ATOM     11  C   UNL     1       5.966   1.158  24.716  0.00  0.00    +0.013 A 
ATOM     12  C   UNL     1       4.919   2.088  24.668  0.00  0.00    +0.021 A 
ATOM     13  C   UNL     1       4.822   2.960  23.596  0.00  0.00    +0.042 A 
ATOM     14 CL   UNL     1       3.548   4.114  23.542  0.00  0.00    -0.083 Cl
ATOM     15  C   UNL     1       5.753   2.902  22.569  0.00  0.00    +0.040 A 
ATOM     16  C   UNL     1       6.779   1.940  22.597  0.00  0.00    +0.052 A 
ATOM     17 CL   UNL     1       7.806   1.938  21.196  0.00  0.00    -0.083 Cl
ENDBRANCH   8  10
BRANCH   7  18
ATOM     18  N   UNL     1       9.812   1.599  24.371  0.00  0.00    -0.146 NA
ATOM     19  N   UNL     1      10.272   2.158  23.354  0.00  0.00    -0.149 NA
BRANCH  19  20
ATOM     20  C   UNL     1      10.519   3.530  23.590  0.00  0.00    +0.086 A 
ATOM     21  C   UNL     1       9.467   4.319  24.074  0.00  0.00    +0.029 A 
ATOM     22  C   UNL     1       9.659   5.674  24.359  0.00  0.00    +0.002 A 
ATOM     23  C   UNL     1      10.908   6.257  24.153  0.00  0.00    +0.000 A 
ATOM     24  C   UNL     1      11.959   5.491  23.648  0.00  0.00    +0.002 A 
ATOM     25  C   UNL     1      11.762   4.138  23.360  0.00  0.00    +0.029 A 
ENDBRANCH  19  20
ENDBRANCH   7  18
TORSDOF 3
ENDMDL
MODEL 2
REMARK VINA RESULT:      -6.3      4.703      7.042
REMARK  Name = 
REMARK  3 active torsions:
REMARK  status: ('A' for Active; 'I' for Inactive)
REMARK    1  A    between atoms: C_4  and  C_16
REMARK    2  A    between atoms: C_5  and  N_8
REMARK    3  A    between atoms: N_9  and  C_10
REMARK                            x       y       z     vdW  Elec       q    Type
REMARK                         _______ _______ _______ _____ _____    ______ ____
ROOT
ATOM      1  N   UNL     1       5.287  -7.523  28.699  0.00  0.00    -0.327 N 
ATOM      2  H   UNL     1       4.862  -7.289  29.585  0.00  0.00    +0.145 HD
ATOM      3  H   UNL     1       4.744  -8.101  28.070  0.00  0.00    +0.145 HD
ATOM      4  C   UNL     1       5.652  -6.362  28.046  0.00  0.00    +0.213 A 
ATOM      5  N   UNL     1       5.834  -5.275  28.787  0.00  0.00    -0.221 NA
ATOM      6  C   UNL     1       6.127  -4.147  28.109  0.00  0.00    +0.146 A 
ATOM      7  C   UNL     1       6.204  -4.041  26.727  0.00  0.00    +0.130 A 
ATOM      8  C   UNL     1       5.998  -5.245  26.045  0.00  0.00    +0.105 A 
ATOM      9  N   UNL     1       5.737  -6.397  26.717  0.00  0.00    -0.212 NA
ENDROOT
BRANCH   8  10
ATOM     10  C   UNL     1       6.077  -5.406  24.559  0.00  0.00    +0.021 A 
ATOM     11  C   UNL     1       4.898  -5.572  23.794  0.00  0.00    +0.013 A 
ATOM     12  C   UNL     1       4.919  -5.739  22.403  0.00  0.00    +0.021 A 
ATOM     13  C   UNL     1       6.125  -5.694  21.723  0.00  0.00    +0.042 A 
ATOM     14 CL   UNL     1       6.153  -5.881  20.014  0.00  0.00    -0.083 Cl
ATOM     15  C   UNL     1       7.308  -5.498  22.422  0.00  0.00    +0.040 A 
ATOM     16  C   UNL     1       7.290  -5.372  23.823  0.00  0.00    +0.052 A 
ATOM     17 CL   UNL     1       8.858  -5.223  24.555  0.00  0.00    -0.083 Cl
ENDBRANCH   8  10
BRANCH   7  18
ATOM     18  N   UNL     1       6.568  -2.838  26.087  0.00  0.00    -0.146 NA
ATOM     19  N   UNL     1       7.774  -2.549  26.230  0.00  0.00    -0.149 NA
BRANCH  19  20
ATOM     20  C   UNL     1       8.148  -1.476  25.389  0.00  0.00    +0.086 A 
ATOM     21  C   UNL     1       7.773  -1.529  24.041  0.00  0.00    +0.029 A 
ATOM     22  C   UNL     1       8.084  -0.482  23.168  0.00  0.00    +0.002 A 
ATOM     23  C   UNL     1       8.783   0.628  23.636  0.00  0.00    +0.000 A 
ATOM     24  C   UNL     1       9.186   0.685  24.970  0.00  0.00    +0.002 A 
ATOM     25  C   UNL     1       8.877  -0.365  25.838  0.00  0.00    +0.029 A 
ENDBRANCH  19  20
ENDBRANCH   7  18
TORSDOF 3
ENDMDL
MODEL 3
REMARK VINA RESULT:      -6.2      3.006      6.051
REMARK  Name = 
REMARK  3 active torsions:
REMARK  status: ('A' for Active; 'I' for Inactive)
REMARK    1  A    between atoms: C_4  and  C_16
REMARK    2  A    between atoms: C_5  and  N_8
REMARK    3  A    between atoms: N_9  and  C_10
REMARK                            x       y       z     vdW  Elec       q    Type
REMARK                         _______ _______ _______ _____ _____    ______ ____
ROOT
ATOM      1  N   UNL     1      13.316   5.223  23.113  0.00  0.00    -0.327 N 
ATOM      2  H   UNL     1      13.557   6.106  23.543  0.00  0.00    +0.145 HD
ATOM      3  H   UNL     1      13.882   4.422  23.366  0.00  0.00    +0.145 HD
ATOM      4  C   UNL     1      11.989   4.938  23.368  0.00  0.00    +0.213 A 
ATOM      5  N   UNL     1      11.191   5.958  23.665  0.00  0.00    -0.221 NA
ATOM      6  C   UNL     1       9.918   5.635  23.969  0.00  0.00    +0.146 A 
ATOM      7  C   UNL     1       9.414   4.343  24.035  0.00  0.00    +0.130 A 
ATOM      8  C   UNL     1      10.338   3.346  23.704  0.00  0.00    +0.105 A 
ATOM      9  N   UNL     1      11.614   3.660  23.360  0.00  0.00    -0.212 NA
ENDROOT
BRANCH   8  10
ATOM     10  C   UNL     1      10.030   1.882  23.652  0.00  0.00    +0.021 A 
ATOM     11  C   UNL     1      10.606   0.997  24.593  0.00  0.00    +0.013 A 
ATOM     12  C   UNL     1      10.359  -0.382  24.580  0.00  0.00    +0.021 A 
ATOM     13  C   UNL     1       9.484  -0.915  23.648  0.00  0.00    +0.042 A 
ATOM     14 CL   UNL     1       9.165  -2.605  23.639  0.00  0.00    -0.083 Cl
ATOM     15  C   UNL     1       8.864  -0.085  22.724  0.00  0.00    +0.040 A 
ATOM     16  C   UNL     1       9.144   1.293  22.712  0.00  0.00    +0.052 A 
ATOM     17 CL   UNL     1       8.361   2.178  21.439  0.00  0.00    -0.083 Cl
ENDBRANCH   8  10
BRANCH   7  18
ATOM     18  N   UNL     1       8.055   4.081  24.310  0.00  0.00    -0.146 NA
ATOM     19  N   UNL     1       7.273   4.770  23.624  0.00  0.00    -0.149 NA
BRANCH  19  20
ATOM     20  C   UNL     1       5.939   4.318  23.757  0.00  0.00    +0.086 A 
ATOM     21  C   UNL     1       5.294   3.816  22.619  0.00  0.00    +0.029 A 
ATOM     22  C   UNL     1       3.987   3.324  22.695  0.00  0.00    +0.002 A 
ATOM     23  C   UNL     1       3.309   3.337  23.912  0.00  0.00    +0.000 A 
ATOM     24  C   UNL     1       3.929   3.857  25.048  0.00  0.00    +0.002 A 
ATOM     25  C   UNL     1       5.233   4.352  24.968  0.00  0.00    +0.029 A 
ENDBRANCH  19  20
ENDBRANCH   7  18
TORSDOF 3
ENDMDL
MODEL 4
REMARK VINA RESULT:      -6.2      3.224      6.591
REMARK  Name = 
REMARK  3 active torsions:
REMARK  status: ('A' for Active; 'I' for Inactive)
REMARK    1  A    between atoms: C_4  and  C_16
REMARK    2  A    between atoms: C_5  and  N_8
REMARK    3  A    between atoms: N_9  and  C_10
REMARK                            x       y       z     vdW  Elec       q    Type
REMARK                         _______ _______ _______ _____ _____    ______ ____
ROOT
ATOM      1  N   UNL     1      10.155   2.178  21.659  0.00  0.00    -0.327 N 
ATOM      2  H   UNL     1      10.370   2.035  20.682  0.00  0.00    +0.145 HD
ATOM      3  H   UNL     1       9.611   2.999  21.892  0.00  0.00    +0.145 HD
ATOM      4  C   UNL     1       9.517   1.058  22.156  0.00  0.00    +0.213 A 
ATOM      5  N   UNL     1       9.703  -0.088  21.510  0.00  0.00    -0.221 NA
ATOM      6  C   UNL     1       9.015  -1.146  21.985  0.00  0.00    +0.146 A 
ATOM      7  C   UNL     1       8.117  -1.107  23.044  0.00  0.00    +0.130 A 
ATOM      8  C   UNL     1       7.998   0.148  23.651  0.00  0.00    +0.105 A 
ATOM      9  N   UNL     1       8.713   1.214  23.206  0.00  0.00    -0.212 NA
ENDROOT
BRANCH   8  10
ATOM     10  C   UNL     1       7.135   0.440  24.839  0.00  0.00    +0.021 A 
ATOM     11  C   UNL     1       5.867   1.044  24.670  0.00  0.00    +0.013 A 
ATOM     12  C   UNL     1       5.028   1.349  25.750  0.00  0.00    +0.021 A 
ATOM     13  C   UNL     1       5.413   1.011  27.037  0.00  0.00    +0.042 A 
ATOM     14 CL   UNL     1       4.378   1.368  28.364  0.00  0.00    -0.083 Cl
ATOM     15  C   UNL     1       6.632   0.385  27.255  0.00  0.00    +0.040 A 
ATOM     16  C   UNL     1       7.492   0.116  26.174  0.00  0.00    +0.052 A 
ATOM     17 CL   UNL     1       9.016  -0.587  26.622  0.00  0.00    -0.083 Cl
ENDBRANCH   8  10
BRANCH   7  18
ATOM     18  N   UNL     1       7.471  -2.266  23.521  0.00  0.00    -0.146 NA
ATOM     19  N   UNL     1       8.191  -2.957  24.271  0.00  0.00    -0.149 NA
BRANCH  19  20
ATOM     20  C   UNL     1       7.441  -3.972  24.909  0.00  0.00    +0.086 A 
ATOM     21  C   UNL     1       7.779  -4.318  26.224  0.00  0.00    +0.029 A 
ATOM     22  C   UNL     1       7.053  -5.290  26.919  0.00  0.00    +0.002 A 
ATOM     23  C   UNL     1       5.984  -5.934  26.299  0.00  0.00    +0.000 A 
ATOM     24  C   UNL     1       5.651  -5.619  24.982  0.00  0.00    +0.002 A 
ATOM     25  C   UNL     1       6.381  -4.650  24.289  0.00  0.00    +0.029 A 
ENDBRANCH  19  20
ENDBRANCH   7  18
TORSDOF 3
ENDMDL
MODEL 5
REMARK VINA RESULT:      -6.0      4.745      8.291
REMARK  Name = 
REMARK  3 active torsions:
REMARK  status: ('A' for Active; 'I' for Inactive)
REMARK    1  A    between atoms: C_4  and  C_16
REMARK    2  A    between atoms: C_5  and  N_8
REMARK    3  A    between atoms: N_9  and  C_10
REMARK                            x       y       z     vdW  Elec       q    Type
REMARK                         _______ _______ _______ _____ _____    ______ ____
ROOT
ATOM      1  N   UNL     1      10.208   0.795  24.283  0.00  0.00    -0.327 N 
ATOM      2  H   UNL     1      10.871   1.171  24.948  0.00  0.00    +0.145 HD
ATOM      3  H   UNL     1      10.585   0.438  23.415  0.00  0.00    +0.145 HD
ATOM      4  C   UNL     1       9.460  -0.193  24.893  0.00  0.00    +0.213 A 
ATOM      5  N   UNL     1       9.375  -0.165  26.219  0.00  0.00    -0.221 NA
ATOM      6  C   UNL     1       8.690  -1.180  26.782  0.00  0.00    +0.146 A 
ATOM      7  C   UNL     1       8.124  -2.244  26.092  0.00  0.00    +0.130 A 
ATOM      8  C   UNL     1       8.271  -2.173  24.703  0.00  0.00    +0.105 A 
ATOM      9  N   UNL     1       8.928  -1.137  24.119  0.00  0.00    -0.212 NA
ENDROOT
BRANCH   8  10
ATOM     10  C   UNL     1       7.710  -3.168  23.735  0.00  0.00    +0.021 A 
ATOM     11  C   UNL     1       6.767  -2.763  22.761  0.00  0.00    +0.013 A 
ATOM     12  C   UNL     1       6.203  -3.657  21.841  0.00  0.00    +0.021 A 
ATOM     13  C   UNL     1       6.606  -4.982  21.835  0.00  0.00    +0.042 A 
ATOM     14 CL   UNL     1       5.928  -6.079  20.696  0.00  0.00    -0.083 Cl
ATOM     15  C   UNL     1       7.554  -5.423  22.747  0.00  0.00    +0.040 A 
ATOM     16  C   UNL     1       8.089  -4.535  23.697  0.00  0.00    +0.052 A 
ATOM     17 CL   UNL     1       9.195  -5.261  24.823  0.00  0.00    -0.083 Cl
ENDBRANCH   8  10
BRANCH   7  18
ATOM     18  N   UNL     1       7.375  -3.246  26.744  0.00  0.00    -0.146 NA
ATOM     19  N   UNL     1       6.141  -3.090  26.630  0.00  0.00    -0.149 NA
BRANCH  19  20
ATOM     20  C   UNL     1       5.436  -4.226  27.089  0.00  0.00    +0.086 A 
ATOM     21  C   UNL     1       5.593  -5.430  26.390  0.00  0.00    +0.029 A 
ATOM     22  C   UNL     1       4.948  -6.596  26.815  0.00  0.00    +0.002 A 
ATOM     23  C   UNL     1       4.131  -6.566  27.943  0.00  0.00    +0.000 A 
ATOM     24  C   UNL     1       3.944  -5.369  28.635  0.00  0.00    +0.002 A 
ATOM     25  C   UNL     1       4.586  -4.206  28.205  0.00  0.00    +0.029 A 
ENDBRANCH  19  20
ENDBRANCH   7  18
TORSDOF 3
ENDMDL
MODEL 6
REMARK VINA RESULT:      -5.9      3.573      5.084
REMARK  Name = 
REMARK  3 active torsions:
REMARK  status: ('A' for Active; 'I' for Inactive)
REMARK    1  A    between atoms: C_4  and  C_16
REMARK    2  A    between atoms: C_5  and  N_8
REMARK    3  A    between atoms: N_9  and  C_10
REMARK                            x       y       z     vdW  Elec       q    Type
REMARK                         _______ _______ _______ _____ _____    ______ ____
ROOT
ATOM      1  N   UNL     1       4.374  -6.392  22.610  0.00  0.00    -0.327 N 
ATOM      2  H   UNL     1       4.779  -7.178  22.119  0.00  0.00    +0.145 HD
ATOM      3  H   UNL     1       3.978  -6.578  23.522  0.00  0.00    +0.145 HD
ATOM      4  C   UNL     1       5.316  -5.388  22.722  0.00  0.00    +0.213 A 
ATOM      5  N   UNL     1       6.318  -5.390  21.849  0.00  0.00    -0.221 NA
ATOM      6  C   UNL     1       7.251  -4.434  22.029  0.00  0.00    +0.146 A 
ATOM      7  C   UNL     1       7.258  -3.504  23.060  0.00  0.00    +0.130 A 
ATOM      8  C   UNL     1       6.157  -3.591  23.920  0.00  0.00    +0.105 A 
ATOM      9  N   UNL     1       5.190  -4.527  23.730  0.00  0.00    -0.212 NA
ENDROOT
BRANCH   8  10
ATOM     10  C   UNL     1       5.906  -2.675  25.077  0.00  0.00    +0.021 A 
ATOM     11  C   UNL     1       5.553  -1.324  24.854  0.00  0.00    +0.013 A 
ATOM     12  C   UNL     1       5.320  -0.423  25.903  0.00  0.00    +0.021 A 
ATOM     13  C   UNL     1       5.384  -0.863  27.214  0.00  0.00    +0.042 A 
ATOM     14 CL   UNL     1       5.082   0.235  28.503  0.00  0.00    -0.083 Cl
ATOM     15  C   UNL     1       5.692  -2.188  27.487  0.00  0.00    +0.040 A 
ATOM     16  C   UNL     1       5.966  -3.082  26.436  0.00  0.00    +0.052 A 
ATOM     17 CL   UNL     1       6.423  -4.679  26.945  0.00  0.00    -0.083 Cl
ENDBRANCH   8  10
BRANCH   7  18
ATOM     18  N   UNL     1       8.240  -2.497  23.157  0.00  0.00    -0.146 NA
ATOM     19  N   UNL     1       8.106  -1.596  22.303  0.00  0.00    -0.149 NA
BRANCH  19  20
ATOM     20  C   UNL     1       8.957  -0.500  22.576  0.00  0.00    +0.086 A 
ATOM     21  C   UNL     1       9.032   0.532  21.632  0.00  0.00    +0.029 A 
ATOM     22  C   UNL     1       9.829   1.658  21.861  0.00  0.00    +0.002 A 
ATOM     23  C   UNL     1      10.567   1.758  23.037  0.00  0.00    +0.000 A 
ATOM     24  C   UNL     1      10.523   0.728  23.977  0.00  0.00    +0.002 A 
ATOM     25  C   UNL     1       9.730  -0.398  23.742  0.00  0.00    +0.029 A 
ENDBRANCH  19  20
ENDBRANCH   7  18
TORSDOF 3
ENDMDL
MODEL 7
REMARK VINA RESULT:      -5.9      2.652      6.313
REMARK  Name = 
REMARK  3 active torsions:
REMARK  status: ('A' for Active; 'I' for Inactive)
REMARK    1  A    between atoms: C_4  and  C_16
REMARK    2  A    between atoms: C_5  and  N_8
REMARK    3  A    between atoms: N_9  and  C_10
REMARK                            x       y       z     vdW  Elec       q    Type
REMARK                         _______ _______ _______ _____ _____    ______ ____
ROOT
ATOM      1  N   UNL     1      10.650   3.837  23.289  0.00  0.00    -0.327 N 
ATOM      2  H   UNL     1      10.998   4.150  22.393  0.00  0.00    +0.145 HD
ATOM      3  H   UNL     1      10.054   4.478  23.797  0.00  0.00    +0.145 HD
ATOM      4  C   UNL     1       9.989   2.635  23.128  0.00  0.00    +0.213 A 
ATOM      5  N   UNL     1      10.296   1.906  22.061  0.00  0.00    -0.221 NA
ATOM      6  C   UNL     1       9.586   0.771  21.904  0.00  0.00    +0.146 A 
ATOM      7  C   UNL     1       8.555   0.350  22.733  0.00  0.00    +0.130 A 
ATOM      8  C   UNL     1       8.315   1.191  23.825  0.00  0.00    +0.105 A 
ATOM      9  N   UNL     1       9.048   2.319  24.017  0.00  0.00    -0.212 NA
ENDROOT
BRANCH   8  10
ATOM     10  C   UNL     1       7.294   0.935  24.889  0.00  0.00    +0.021 A 
ATOM     11  C   UNL     1       6.012   1.527  24.807  0.00  0.00    +0.013 A 
ATOM     12  C   UNL     1       5.025   1.329  25.782  0.00  0.00    +0.021 A 
ATOM     13  C   UNL     1       5.276   0.486  26.852  0.00  0.00    +0.042 A 
ATOM     14 CL   UNL     1       4.062   0.227  28.042  0.00  0.00    -0.083 Cl
ATOM     15  C   UNL     1       6.505  -0.149  26.962  0.00  0.00    +0.040 A 
ATOM     16  C   UNL     1       7.509   0.083  26.004  0.00  0.00    +0.052 A 
ATOM     17 CL   UNL     1       9.018  -0.712  26.332  0.00  0.00    -0.083 Cl
ENDBRANCH   8  10
BRANCH   7  18
ATOM     18  N   UNL     1       7.888  -0.877  22.537  0.00  0.00    -0.146 NA
ATOM     19  N   UNL     1       8.554  -1.864  22.913  0.00  0.00    -0.149 NA
BRANCH  19  20
ATOM     20  C   UNL     1       7.770  -3.041  22.918  0.00  0.00    +0.086 A 
ATOM     21  C   UNL     1       6.611  -3.067  22.132  0.00  0.00    +0.029 A 
ATOM     22  C   UNL     1       5.812  -4.213  22.069  0.00  0.00    +0.002 A 
ATOM     23  C   UNL     1       6.163  -5.345  22.802  0.00  0.00    +0.000 A 
ATOM     24  C   UNL     1       7.300  -5.326  23.610  0.00  0.00    +0.002 A 
ATOM     25  C   UNL     1       8.093  -4.177  23.673  0.00  0.00    +0.029 A 
ENDBRANCH  19  20
ENDBRANCH   7  18
TORSDOF 3
ENDMDL
MODEL 8
REMARK VINA RESULT:      -5.7      3.857      6.967
REMARK  Name = 
REMARK  3 active torsions:
REMARK  status: ('A' for Active; 'I' for Inactive)
REMARK    1  A    between atoms: C_4  and  C_16
REMARK    2  A    between atoms: C_5  and  N_8
REMARK    3  A    between atoms: N_9  and  C_10
REMARK                            x       y       z     vdW  Elec       q    Type
REMARK                         _______ _______ _______ _____ _____    ______ ____
ROOT
ATOM      1  N   UNL     1       9.817   1.892  21.485  0.00  0.00    -0.327 N 
ATOM      2  H   UNL     1      10.445   2.591  21.858  0.00  0.00    +0.145 HD
ATOM      3  H   UNL     1      10.224   1.183  20.889  0.00  0.00    +0.145 HD
ATOM      4  C   UNL     1       9.147   1.278  22.525  0.00  0.00    +0.213 A 
ATOM      5  N   UNL     1       9.055   1.944  23.671  0.00  0.00    -0.221 NA
ATOM      6  C   UNL     1       8.451   1.289  24.682  0.00  0.00    +0.146 A 
ATOM      7  C   UNL     1       7.972  -0.014  24.619  0.00  0.00    +0.130 A 
ATOM      8  C   UNL     1       8.119  -0.620  23.367  0.00  0.00    +0.105 A 
ATOM      9  N   UNL     1       8.693   0.041  22.329  0.00  0.00    -0.212 NA
ENDROOT
BRANCH   8  10
ATOM     10  C   UNL     1       7.642  -1.998  23.028  0.00  0.00    +0.021 A 
ATOM     11  C   UNL     1       6.439  -2.180  22.305  0.00  0.00    +0.013 A 
ATOM     12  C   UNL     1       5.943  -3.448  21.973  0.00  0.00    +0.021 A 
ATOM     13  C   UNL     1       6.666  -4.579  22.314  0.00  0.00    +0.042 A 
ATOM     14 CL   UNL     1       6.069  -6.137  21.894  0.00  0.00    -0.083 Cl
ATOM     15  C   UNL     1       7.870  -4.455  22.992  0.00  0.00    +0.040 A 
ATOM     16  C   UNL     1       8.346  -3.184  23.361  0.00  0.00    +0.052 A 
ATOM     17 CL   UNL     1       9.819  -3.204  24.283  0.00  0.00    -0.083 Cl
ENDBRANCH   8  10
BRANCH   7  18
ATOM     18  N   UNL     1       7.302  -0.620  25.702  0.00  0.00    -0.146 NA
ATOM     19  N   UNL     1       6.068  -0.438  25.681  0.00  0.00    -0.149 NA
BRANCH  19  20
ATOM     20  C   UNL     1       5.413  -1.246  26.639  0.00  0.00    +0.086 A 
ATOM     21  C   UNL     1       5.510  -2.638  26.508  0.00  0.00    +0.029 A 
ATOM     22  C   UNL     1       4.913  -3.489  27.443  0.00  0.00    +0.002 A 
ATOM     23  C   UNL     1       4.204  -2.955  28.516  0.00  0.00    +0.000 A 
ATOM     24  C   UNL     1       4.077  -1.572  28.646  0.00  0.00    +0.002 A 
ATOM     25  C   UNL     1       4.671  -0.724  27.708  0.00  0.00    +0.029 A 
ENDBRANCH  19  20
ENDBRANCH   7  18
TORSDOF 3
ENDMDL
MODEL 9
REMARK VINA RESULT:      -5.6      2.010      5.623
REMARK  Name = 
REMARK  3 active torsions:
REMARK  status: ('A' for Active; 'I' for Inactive)
REMARK    1  A    between atoms: C_4  and  C_16
REMARK    2  A    between atoms: C_5  and  N_8
REMARK    3  A    between atoms: N_9  and  C_10
REMARK                            x       y       z     vdW  Elec       q    Type
REMARK                         _______ _______ _______ _____ _____    ______ ____
ROOT
ATOM      1  N   UNL     1      11.010   5.677  23.392  0.00  0.00    -0.327 N 
ATOM      2  H   UNL     1      11.918   5.619  22.949  0.00  0.00    +0.145 HD
ATOM      3  H   UNL     1      10.343   6.318  22.983  0.00  0.00    +0.145 HD
ATOM      4  C   UNL     1      10.449   4.416  23.452  0.00  0.00    +0.213 A 
ATOM      5  N   UNL     1      11.273   3.376  23.392  0.00  0.00    -0.221 NA
ATOM      6  C   UNL     1      10.685   2.163  23.388  0.00  0.00    +0.146 A 
ATOM      7  C   UNL     1       9.315   1.938  23.397  0.00  0.00    +0.130 A 
ATOM      8  C   UNL     1       8.541   3.101  23.462  0.00  0.00    +0.105 A 
ATOM      9  N   UNL     1       9.121   4.329  23.503  0.00  0.00    -0.212 NA
ENDROOT
BRANCH   8  10
ATOM     10  C   UNL     1       7.046   3.126  23.533  0.00  0.00    +0.021 A 
ATOM     11  C   UNL     1       6.279   3.354  22.366  0.00  0.00    +0.013 A 
ATOM     12  C   UNL     1       4.878   3.399  22.382  0.00  0.00    +0.021 A 
ATOM     13  C   UNL     1       4.196   3.165  23.564  0.00  0.00    +0.042 A 
ATOM     14 CL   UNL     1       2.476   3.203  23.584  0.00  0.00    -0.083 Cl
ATOM     15  C   UNL     1       4.899   2.901  24.730  0.00  0.00    +0.040 A 
ATOM     16  C   UNL     1       6.306   2.897  24.723  0.00  0.00    +0.052 A 
ATOM     17 CL   UNL     1       7.037   2.640  26.278  0.00  0.00    -0.083 Cl
ENDBRANCH   8  10
BRANCH   7  18
ATOM     18  N   UNL     1       8.770   0.638  23.446  0.00  0.00    -0.146 NA
ATOM     19  N   UNL     1       9.473  -0.213  22.862  0.00  0.00    -0.149 NA
BRANCH  19  20
ATOM     20  C   UNL     1       9.019  -1.525  23.131  0.00  0.00    +0.086 A 
ATOM     21  C   UNL     1       9.679  -2.265  24.120  0.00  0.00    +0.029 A 
ATOM     22  C   UNL     1       9.255  -3.555  24.454  0.00  0.00    +0.002 A 
ATOM     23  C   UNL     1       8.168  -4.122  23.792  0.00  0.00    +0.000 A 
ATOM     24  C   UNL     1       7.516  -3.408  22.787  0.00  0.00    +0.002 A 
ATOM     25  C   UNL     1       7.945  -2.121  22.453  0.00  0.00    +0.029 A 
ENDBRANCH  19  20
ENDBRANCH   7  18
TORSDOF 3
ENDMDL
