MODEL 1
REMARK VINA RESULT:      -5.2      0.000      0.000
REMARK  Name = 
REMARK  8 active torsions:
REMARK  status: ('A' for Active; 'I' for Inactive)
REMARK    1  A    between atoms: C_2  and  N_8
REMARK    2  A    between atoms: C_9  and  C_11
REMARK    3  A    between atoms: C_11  and  C_12
REMARK    4  A    between atoms: C_12  and  C_13
REMARK    5  A    between atoms: C_13  and  C_14
REMARK    6  A    between atoms: C_14  and  C_15
REMARK    7  A    between atoms: C_15  and  C_16
REMARK    8  A    between atoms: C_16  and  C_17
REMARK                            x       y       z     vdW  Elec       q    Type
REMARK                         _______ _______ _______ _____ _____    ______ ____
ROOT
ATOM      1  N   UNL     1       7.578  -3.284  23.847  0.00  0.00    -0.302 N 
ATOM      2  H   UNL     1       6.725  -2.958  24.293  0.00  0.00    +0.150 HD
ATOM      3  C   UNL     1       8.797  -2.801  24.251  0.00  0.00    +0.214 C 
ATOM      4  O   UNL     1       9.831  -3.041  23.631  0.00  0.00    -0.276 OA
ENDROOT
BRANCH   1   5
ATOM      5  C   UNL     1       7.468  -4.037  22.609  0.00  0.00    +0.185 C 
ATOM      6  C   UNL     1       6.129  -3.862  21.924  0.00  0.00    +0.328 C 
ATOM      7  O   UNL     1       5.489  -2.822  21.863  0.00  0.00    -0.249 OA
ATOM      8  O   UNL     1       5.733  -5.045  21.369  0.00  0.00    -0.463 OA
ATOM      9  C   UNL     1       6.709  -6.049  21.654  0.00  0.00    +0.234 C 
ATOM     10  C   UNL     1       7.502  -5.534  22.826  0.00  0.00    +0.075 C 
ENDBRANCH   1   5
BRANCH   3  11
ATOM     11  C   UNL     1       8.749  -1.958  25.511  0.00  0.00    +0.096 C 
BRANCH  11  12
ATOM     12  C   UNL     1       8.692  -0.474  25.153  0.00  0.00    +0.009 C 
BRANCH  12  13
ATOM     13  C   UNL     1      10.042   0.224  25.294  0.00  0.00    +0.000 C 
BRANCH  13  14
ATOM     14  C   UNL     1      10.702   0.369  23.921  0.00  0.00    +0.000 C 
BRANCH  14  15
ATOM     15  C   UNL     1      10.327   1.685  23.244  0.00  0.00    -0.000 C 
BRANCH  15  16
ATOM     16  C   UNL     1       9.607   1.434  21.919  0.00  0.00    -0.003 C 
ATOM     17  C   UNL     1       9.623  -0.039  21.550  0.00  0.00    +0.004 C 
ENDBRANCH  15  16
ENDBRANCH  14  15
ENDBRANCH  13  14
ENDBRANCH  12  13
ENDBRANCH  11  12
ENDBRANCH   3  11
TORSDOF 7
ENDMDL
MODEL 2
REMARK VINA RESULT:      -5.2      1.442      2.596
REMARK  Name = 
REMARK  8 active torsions:
REMARK  status: ('A' for Active; 'I' for Inactive)
REMARK    1  A    between atoms: C_2  and  N_8
REMARK    2  A    between atoms: C_9  and  C_11
REMARK    3  A    between atoms: C_11  and  C_12
REMARK    4  A    between atoms: C_12  and  C_13
REMARK    5  A    between atoms: C_13  and  C_14
REMARK    6  A    between atoms: C_14  and  C_15
REMARK    7  A    between atoms: C_15  and  C_16
REMARK    8  A    between atoms: C_16  and  C_17
REMARK                            x       y       z     vdW  Elec       q    Type
REMARK                         _______ _______ _______ _____ _____    ______ ____
ROOT
ATOM      1  N   UNL     1       7.980  -2.942  22.251  0.00  0.00    -0.302 N 
ATOM      2  H   UNL     1       8.131  -3.058  21.253  0.00  0.00    +0.150 HD
ATOM      3  C   UNL     1       8.892  -2.257  23.013  0.00  0.00    +0.214 C 
ATOM      4  O   UNL     1       8.832  -2.238  24.241  0.00  0.00    -0.276 OA
ENDROOT
BRANCH   1   5
ATOM      5  C   UNL     1       6.950  -3.742  22.893  0.00  0.00    +0.185 C 
ATOM      6  C   UNL     1       6.510  -4.925  22.057  0.00  0.00    +0.328 C 
ATOM      7  O   UNL     1       7.240  -5.622  21.366  0.00  0.00    -0.249 OA
ATOM      8  O   UNL     1       5.164  -5.114  22.190  0.00  0.00    -0.463 OA
ATOM      9  C   UNL     1       4.631  -4.106  23.051  0.00  0.00    +0.234 C 
ATOM     10  C   UNL     1       5.647  -2.994  23.065  0.00  0.00    +0.075 C 
ENDBRANCH   1   5
BRANCH   3  11
ATOM     11  C   UNL     1       9.962  -1.539  22.213  0.00  0.00    +0.096 C 
BRANCH  11  12
ATOM     12  C   UNL     1       9.324  -0.515  21.276  0.00  0.00    +0.009 C 
BRANCH  12  13
ATOM     13  C   UNL     1       8.879   0.754  21.997  0.00  0.00    +0.000 C 
BRANCH  13  14
ATOM     14  C   UNL     1      10.014   1.781  22.001  0.00  0.00    +0.000 C 
BRANCH  14  15
ATOM     15  C   UNL     1      10.218   2.400  23.381  0.00  0.00    -0.000 C 
BRANCH  15  16
ATOM     16  C   UNL     1       9.781   1.435  24.484  0.00  0.00    -0.003 C 
ATOM     17  C   UNL     1      10.931   0.551  24.934  0.00  0.00    +0.004 C 
ENDBRANCH  15  16
ENDBRANCH  14  15
ENDBRANCH  13  14
ENDBRANCH  12  13
ENDBRANCH  11  12
ENDBRANCH   3  11
TORSDOF 7
ENDMDL
MODEL 3
REMARK VINA RESULT:      -5.1      1.429      1.808
REMARK  Name = 
REMARK  8 active torsions:
REMARK  status: ('A' for Active; 'I' for Inactive)
REMARK    1  A    between atoms: C_2  and  N_8
REMARK    2  A    between atoms: C_9  and  C_11
REMARK    3  A    between atoms: C_11  and  C_12
REMARK    4  A    between atoms: C_12  and  C_13
REMARK    5  A    between atoms: C_13  and  C_14
REMARK    6  A    between atoms: C_14  and  C_15
REMARK    7  A    between atoms: C_15  and  C_16
REMARK    8  A    between atoms: C_16  and  C_17
REMARK                            x       y       z     vdW  Elec       q    Type
REMARK                         _______ _______ _______ _____ _____    ______ ____
ROOT
ATOM      1  N   UNL     1       8.027  -3.627  23.650  0.00  0.00    -0.302 N 
ATOM      2  H   UNL     1       7.582  -2.984  23.000  0.00  0.00    +0.150 HD
ATOM      3  C   UNL     1       9.314  -3.404  24.070  0.00  0.00    +0.214 C 
ATOM      4  O   UNL     1       9.941  -4.239  24.719  0.00  0.00    -0.276 OA
ENDROOT
BRANCH   1   5
ATOM      5  C   UNL     1       7.393  -4.911  23.897  0.00  0.00    +0.185 C 
ATOM      6  C   UNL     1       6.790  -5.526  22.652  0.00  0.00    +0.328 C 
ATOM      7  O   UNL     1       7.273  -5.484  21.529  0.00  0.00    -0.249 OA
ATOM      8  O   UNL     1       5.616  -6.149  22.963  0.00  0.00    -0.463 OA
ATOM      9  C   UNL     1       5.347  -5.979  24.356  0.00  0.00    +0.234 C 
ATOM     10  C   UNL     1       6.182  -4.806  24.797  0.00  0.00    +0.075 C 
ENDBRANCH   1   5
BRANCH   3  11
ATOM     11  C   UNL     1       9.879  -2.056  23.666  0.00  0.00    +0.096 C 
BRANCH  11  12
ATOM     12  C   UNL     1       9.437  -0.979  24.655  0.00  0.00    +0.009 C 
BRANCH  12  13
ATOM     13  C   UNL     1      10.432   0.172  24.765  0.00  0.00    +0.000 C 
BRANCH  13  14
ATOM     14  C   UNL     1       9.729   1.502  24.481  0.00  0.00    +0.000 C 
BRANCH  14  15
ATOM     15  C   UNL     1      10.356   2.237  23.299  0.00  0.00    -0.000 C 
BRANCH  15  16
ATOM     16  C   UNL     1      10.000   1.552  21.978  0.00  0.00    -0.003 C 
ATOM     17  C   UNL     1       8.499   1.545  21.745  0.00  0.00    +0.004 C 
ENDBRANCH  15  16
ENDBRANCH  14  15
ENDBRANCH  13  14
ENDBRANCH  12  13
ENDBRANCH  11  12
ENDBRANCH   3  11
TORSDOF 7
ENDMDL
MODEL 4
REMARK VINA RESULT:      -5.1      2.536      3.570
REMARK  Name = 
REMARK  8 active torsions:
REMARK  status: ('A' for Active; 'I' for Inactive)
REMARK    1  A    between atoms: C_2  and  N_8
REMARK    2  A    between atoms: C_9  and  C_11
REMARK    3  A    between atoms: C_11  and  C_12
REMARK    4  A    between atoms: C_12  and  C_13
REMARK    5  A    between atoms: C_13  and  C_14
REMARK    6  A    between atoms: C_14  and  C_15
REMARK    7  A    between atoms: C_15  and  C_16
REMARK    8  A    between atoms: C_16  and  C_17
REMARK                            x       y       z     vdW  Elec       q    Type
REMARK                         _______ _______ _______ _____ _____    ______ ____
ROOT
ATOM      1  N   UNL     1       8.001  -2.950  24.229  0.00  0.00    -0.302 N 
ATOM      2  H   UNL     1       7.065  -3.022  23.839  0.00  0.00    +0.150 HD
ATOM      3  C   UNL     1       9.026  -2.438  23.475  0.00  0.00    +0.214 C 
ATOM      4  O   UNL     1      10.197  -2.488  23.846  0.00  0.00    -0.276 OA
ENDROOT
BRANCH   1   5
ATOM      5  C   UNL     1       8.290  -3.650  25.469  0.00  0.00    +0.185 C 
ATOM      6  C   UNL     1       8.547  -5.129  25.272  0.00  0.00    +0.328 C 
ATOM      7  O   UNL     1       9.153  -5.629  24.335  0.00  0.00    -0.249 OA
ATOM      8  O   UNL     1       8.005  -5.838  26.305  0.00  0.00    -0.463 OA
ATOM      9  C   UNL     1       7.355  -4.936  27.203  0.00  0.00    +0.234 C 
ATOM     10  C   UNL     1       7.112  -3.674  26.419  0.00  0.00    +0.075 C 
ENDBRANCH   1   5
BRANCH   3  11
ATOM     11  C   UNL     1       8.587  -1.815  22.164  0.00  0.00    +0.096 C 
BRANCH  11  12
ATOM     12  C   UNL     1       9.694  -0.922  21.606  0.00  0.00    +0.009 C 
BRANCH  12  13
ATOM     13  C   UNL     1       9.198   0.470  21.222  0.00  0.00    +0.000 C 
BRANCH  13  14
ATOM     14  C   UNL     1       9.920   1.531  22.055  0.00  0.00    +0.000 C 
BRANCH  14  15
ATOM     15  C   UNL     1       8.997   2.166  23.092  0.00  0.00    -0.000 C 
BRANCH  15  16
ATOM     16  C   UNL     1       9.598   2.064  24.495  0.00  0.00    -0.003 C 
ATOM     17  C   UNL     1      10.625   0.948  24.578  0.00  0.00    +0.004 C 
ENDBRANCH  15  16
ENDBRANCH  14  15
ENDBRANCH  13  14
ENDBRANCH  12  13
ENDBRANCH  11  12
ENDBRANCH   3  11
TORSDOF 7
ENDMDL
MODEL 5
REMARK VINA RESULT:      -5.1      1.651      2.412
REMARK  Name = 
REMARK  8 active torsions:
REMARK  status: ('A' for Active; 'I' for Inactive)
REMARK    1  A    between atoms: C_2  and  N_8
REMARK    2  A    between atoms: C_9  and  C_11
REMARK    3  A    between atoms: C_11  and  C_12
REMARK    4  A    between atoms: C_12  and  C_13
REMARK    5  A    between atoms: C_13  and  C_14
REMARK    6  A    between atoms: C_14  and  C_15
REMARK    7  A    between atoms: C_15  and  C_16
REMARK    8  A    between atoms: C_16  and  C_17
REMARK                            x       y       z     vdW  Elec       q    Type
REMARK                         _______ _______ _______ _____ _____    ______ ____
ROOT
ATOM      1  N   UNL     1       7.965  -3.772  23.651  0.00  0.00    -0.302 N 
ATOM      2  H   UNL     1       7.550  -3.121  22.990  0.00  0.00    +0.150 HD
ATOM      3  C   UNL     1       9.240  -3.568  24.113  0.00  0.00    +0.214 C 
ATOM      4  O   UNL     1       9.835  -4.415  24.778  0.00  0.00    -0.276 OA
ENDROOT
BRANCH   1   5
ATOM      5  C   UNL     1       7.305  -5.047  23.874  0.00  0.00    +0.185 C 
ATOM      6  C   UNL     1       6.753  -5.660  22.604  0.00  0.00    +0.328 C 
ATOM      7  O   UNL     1       7.289  -5.629  21.505  0.00  0.00    -0.249 OA
ATOM      8  O   UNL     1       5.558  -6.269  22.862  0.00  0.00    -0.463 OA
ATOM      9  C   UNL     1       5.228  -6.089  24.241  0.00  0.00    +0.234 C 
ATOM     10  C   UNL     1       6.054  -4.924  24.716  0.00  0.00    +0.075 C 
ENDBRANCH   1   5
BRANCH   3  11
ATOM     11  C   UNL     1       9.838  -2.228  23.732  0.00  0.00    +0.096 C 
BRANCH  11  12
ATOM     12  C   UNL     1       9.186  -1.702  22.454  0.00  0.00    +0.009 C 
BRANCH  12  13
ATOM     13  C   UNL     1      10.030  -0.644  21.748  0.00  0.00    +0.000 C 
BRANCH  13  14
ATOM     14  C   UNL     1       9.214   0.637  21.561  0.00  0.00    +0.000 C 
BRANCH  14  15
ATOM     15  C   UNL     1       9.936   1.860  22.122  0.00  0.00    -0.000 C 
BRANCH  15  16
ATOM     16  C   UNL     1      10.406   1.608  23.555  0.00  0.00    -0.003 C 
ATOM     17  C   UNL     1       9.277   1.804  24.552  0.00  0.00    +0.004 C 
ENDBRANCH  15  16
ENDBRANCH  14  15
ENDBRANCH  13  14
ENDBRANCH  12  13
ENDBRANCH  11  12
ENDBRANCH   3  11
TORSDOF 7
ENDMDL
MODEL 6
REMARK VINA RESULT:      -5.1      1.648      3.287
REMARK  Name = 
REMARK  8 active torsions:
REMARK  status: ('A' for Active; 'I' for Inactive)
REMARK    1  A    between atoms: C_2  and  N_8
REMARK    2  A    between atoms: C_9  and  C_11
REMARK    3  A    between atoms: C_11  and  C_12
REMARK    4  A    between atoms: C_12  and  C_13
REMARK    5  A    between atoms: C_13  and  C_14
REMARK    6  A    between atoms: C_14  and  C_15
REMARK    7  A    between atoms: C_15  and  C_16
REMARK    8  A    between atoms: C_16  and  C_17
REMARK                            x       y       z     vdW  Elec       q    Type
REMARK                         _______ _______ _______ _____ _____    ______ ____
ROOT
ATOM      1  N   UNL     1       8.739  -2.184  22.396  0.00  0.00    -0.302 N 
ATOM      2  H   UNL     1       9.673  -2.490  22.136  0.00  0.00    +0.150 HD
ATOM      3  C   UNL     1       8.361  -0.880  22.203  0.00  0.00    +0.214 C 
ATOM      4  O   UNL     1       7.308  -0.433  22.654  0.00  0.00    -0.276 OA
ENDROOT
BRANCH   1   5
ATOM      5  C   UNL     1       7.927  -3.062  23.222  0.00  0.00    +0.185 C 
ATOM      6  C   UNL     1       8.747  -4.060  24.012  0.00  0.00    +0.328 C 
ATOM      7  O   UNL     1       9.828  -3.837  24.539  0.00  0.00    -0.249 OA
ATOM      8  O   UNL     1       8.098  -5.260  24.062  0.00  0.00    -0.463 OA
ATOM      9  C   UNL     1       6.880  -5.166  23.322  0.00  0.00    +0.234 C 
ATOM     10  C   UNL     1       7.040  -3.979  22.409  0.00  0.00    +0.075 C 
ENDBRANCH   1   5
BRANCH   3  11
ATOM     11  C   UNL     1       9.346  -0.055  21.396  0.00  0.00    +0.096 C 
BRANCH  11  12
ATOM     12  C   UNL     1       9.155   1.432  21.688  0.00  0.00    +0.009 C 
BRANCH  12  13
ATOM     13  C   UNL     1      10.306   2.032  22.491  0.00  0.00    +0.000 C 
BRANCH  13  14
ATOM     14  C   UNL     1      10.013   1.923  23.989  0.00  0.00    +0.000 C 
BRANCH  14  15
ATOM     15  C   UNL     1      10.779   0.772  24.637  0.00  0.00    -0.000 C 
BRANCH  15  16
ATOM     16  C   UNL     1       9.826  -0.183  25.356  0.00  0.00    -0.003 C 
ATOM     17  C   UNL     1       8.503   0.491  25.677  0.00  0.00    +0.004 C 
ENDBRANCH  15  16
ENDBRANCH  14  15
ENDBRANCH  13  14
ENDBRANCH  12  13
ENDBRANCH  11  12
ENDBRANCH   3  11
TORSDOF 7
ENDMDL
MODEL 7
REMARK VINA RESULT:      -5.1      2.467      5.413
REMARK  Name = 
REMARK  8 active torsions:
REMARK  status: ('A' for Active; 'I' for Inactive)
REMARK    1  A    between atoms: C_2  and  N_8
REMARK    2  A    between atoms: C_9  and  C_11
REMARK    3  A    between atoms: C_11  and  C_12
REMARK    4  A    between atoms: C_12  and  C_13
REMARK    5  A    between atoms: C_13  and  C_14
REMARK    6  A    between atoms: C_14  and  C_15
REMARK    7  A    between atoms: C_15  and  C_16
REMARK    8  A    between atoms: C_16  and  C_17
REMARK                            x       y       z     vdW  Elec       q    Type
REMARK                         _______ _______ _______ _____ _____    ______ ____
ROOT
ATOM      1  N   UNL     1       9.057  -2.639  24.854  0.00  0.00    -0.302 N 
ATOM      2  H   UNL     1       8.582  -1.980  25.465  0.00  0.00    +0.150 HD
ATOM      3  C   UNL     1       9.311  -3.917  25.282  0.00  0.00    +0.214 C 
ATOM      4  O   UNL     1      10.025  -4.689  24.643  0.00  0.00    -0.276 OA
ENDROOT
BRANCH   1   5
ATOM      5  C   UNL     1       9.701  -2.132  23.655  0.00  0.00    +0.185 C 
ATOM      6  C   UNL     1      10.080  -0.669  23.757  0.00  0.00    +0.328 C 
ATOM      7  O   UNL     1      10.511  -0.112  24.757  0.00  0.00    -0.249 OA
ATOM      8  O   UNL     1       9.876  -0.050  22.557  0.00  0.00    -0.463 OA
ATOM      9  C   UNL     1       9.345  -0.995  21.626  0.00  0.00    +0.234 C 
ATOM     10  C   UNL     1       8.783  -2.120  22.453  0.00  0.00    +0.075 C 
ENDBRANCH   1   5
BRANCH   3  11
ATOM     11  C   UNL     1       8.643  -4.283  26.593  0.00  0.00    +0.096 C 
BRANCH  11  12
ATOM     12  C   UNL     1       7.656  -5.430  26.382  0.00  0.00    +0.009 C 
BRANCH  12  13
ATOM     13  C   UNL     1       6.254  -4.948  26.017  0.00  0.00    +0.000 C 
BRANCH  13  14
ATOM     14  C   UNL     1       5.812  -5.577  24.694  0.00  0.00    +0.000 C 
BRANCH  14  15
ATOM     15  C   UNL     1       6.248  -4.742  23.492  0.00  0.00    -0.000 C 
BRANCH  15  16
ATOM     16  C   UNL     1       7.204  -5.531  22.596  0.00  0.00    -0.003 C 
ATOM     17  C   UNL     1       6.620  -5.738  21.209  0.00  0.00    +0.004 C 
ENDBRANCH  15  16
ENDBRANCH  14  15
ENDBRANCH  13  14
ENDBRANCH  12  13
ENDBRANCH  11  12
ENDBRANCH   3  11
TORSDOF 7
ENDMDL
MODEL 8
REMARK VINA RESULT:      -4.9      1.426      2.934
REMARK  Name = 
REMARK  8 active torsions:
REMARK  status: ('A' for Active; 'I' for Inactive)
REMARK    1  A    between atoms: C_2  and  N_8
REMARK    2  A    between atoms: C_9  and  C_11
REMARK    3  A    between atoms: C_11  and  C_12
REMARK    4  A    between atoms: C_12  and  C_13
REMARK    5  A    between atoms: C_13  and  C_14
REMARK    6  A    between atoms: C_14  and  C_15
REMARK    7  A    between atoms: C_15  and  C_16
REMARK    8  A    between atoms: C_16  and  C_17
REMARK                            x       y       z     vdW  Elec       q    Type
REMARK                         _______ _______ _______ _____ _____    ______ ____
ROOT
ATOM      1  N   UNL     1       7.923  -1.626  22.182  0.00  0.00    -0.302 N 
ATOM      2  H   UNL     1       7.045  -1.141  22.019  0.00  0.00    +0.150 HD
ATOM      3  C   UNL     1       9.111  -1.043  21.823  0.00  0.00    +0.214 C 
ATOM      4  O   UNL     1      10.175  -1.660  21.850  0.00  0.00    -0.276 OA
ENDROOT
BRANCH   1   5
ATOM      5  C   UNL     1       7.881  -3.036  22.532  0.00  0.00    +0.185 C 
ATOM      6  C   UNL     1       6.521  -3.664  22.306  0.00  0.00    +0.328 C 
ATOM      7  O   UNL     1       5.768  -3.420  21.374  0.00  0.00    -0.249 OA
ATOM      8  O   UNL     1       6.251  -4.560  23.301  0.00  0.00    -0.463 OA
ATOM      9  C   UNL     1       7.337  -4.572  24.229  0.00  0.00    +0.234 C 
ATOM     10  C   UNL     1       8.084  -3.282  24.010  0.00  0.00    +0.075 C 
ENDBRANCH   1   5
BRANCH   3  11
ATOM     11  C   UNL     1       8.993   0.408  21.398  0.00  0.00    +0.096 C 
BRANCH  11  12
ATOM     12  C   UNL     1      10.081   1.246  22.066  0.00  0.00    +0.009 C 
BRANCH  12  13
ATOM     13  C   UNL     1       9.731   1.642  23.498  0.00  0.00    +0.000 C 
BRANCH  13  14
ATOM     14  C   UNL     1      10.688   0.961  24.479  0.00  0.00    +0.000 C 
BRANCH  14  15
ATOM     15  C   UNL     1       9.988  -0.119  25.301  0.00  0.00    -0.000 C 
BRANCH  15  16
ATOM     16  C   UNL     1       8.487   0.154  25.397  0.00  0.00    -0.003 C 
ATOM     17  C   UNL     1       7.922  -0.315  26.726  0.00  0.00    +0.004 C 
ENDBRANCH  15  16
ENDBRANCH  14  15
ENDBRANCH  13  14
ENDBRANCH  12  13
ENDBRANCH  11  12
ENDBRANCH   3  11
TORSDOF 7
ENDMDL
MODEL 9
REMARK VINA RESULT:      -4.9      1.679      2.643
REMARK  Name = 
REMARK  8 active torsions:
REMARK  status: ('A' for Active; 'I' for Inactive)
REMARK    1  A    between atoms: C_2  and  N_8
REMARK    2  A    between atoms: C_9  and  C_11
REMARK    3  A    between atoms: C_11  and  C_12
REMARK    4  A    between atoms: C_12  and  C_13
REMARK    5  A    between atoms: C_13  and  C_14
REMARK    6  A    between atoms: C_14  and  C_15
REMARK    7  A    between atoms: C_15  and  C_16
REMARK    8  A    between atoms: C_16  and  C_17
REMARK                            x       y       z     vdW  Elec       q    Type
REMARK                         _______ _______ _______ _____ _____    ______ ____
ROOT
ATOM      1  N   UNL     1       8.749  -1.817  24.029  0.00  0.00    -0.302 N 
ATOM      2  H   UNL     1       9.620  -1.897  23.512  0.00  0.00    +0.150 HD
ATOM      3  C   UNL     1       8.668  -0.993  25.123  0.00  0.00    +0.214 C 
ATOM      4  O   UNL     1       7.691  -0.994  25.869  0.00  0.00    -0.276 OA
ENDROOT
BRANCH   1   5
ATOM      5  C   UNL     1       7.697  -2.785  23.768  0.00  0.00    +0.185 C 
ATOM      6  C   UNL     1       8.209  -4.206  23.665  0.00  0.00    +0.328 C 
ATOM      7  O   UNL     1       9.097  -4.696  24.349  0.00  0.00    -0.249 OA
ATOM      8  O   UNL     1       7.527  -4.877  22.692  0.00  0.00    -0.463 OA
ATOM      9  C   UNL     1       6.582  -3.993  22.085  0.00  0.00    +0.234 C 
ATOM     10  C   UNL     1       7.050  -2.600  22.414  0.00  0.00    +0.075 C 
ENDBRANCH   1   5
BRANCH   3  11
ATOM     11  C   UNL     1       9.876  -0.098  25.322  0.00  0.00    +0.096 C 
BRANCH  11  12
ATOM     12  C   UNL     1      10.514   0.238  23.975  0.00  0.00    +0.009 C 
BRANCH  12  13
ATOM     13  C   UNL     1      10.525   1.735  23.680  0.00  0.00    +0.000 C 
BRANCH  13  14
ATOM     14  C   UNL     1      10.252   1.978  22.193  0.00  0.00    +0.000 C 
BRANCH  14  15
ATOM     15  C   UNL     1       9.177   1.040  21.651  0.00  0.00    -0.000 C 
BRANCH  15  16
ATOM     16  C   UNL     1       7.814   1.732  21.616  0.00  0.00    -0.003 C 
ATOM     17  C   UNL     1       6.894   1.200  22.702  0.00  0.00    +0.004 C 
ENDBRANCH  15  16
ENDBRANCH  14  15
ENDBRANCH  13  14
ENDBRANCH  12  13
ENDBRANCH  11  12
ENDBRANCH   3  11
TORSDOF 7
ENDMDL
