MODEL 1
REMARK VINA RESULT:      -6.5      0.000      0.000
REMARK  Name = 
REMARK  9 active torsions:
REMARK  status: ('A' for Active; 'I' for Inactive)
REMARK    1  A    between atoms: C_1  and  C_2
REMARK    2  A    between atoms: C_2  and  C_3
REMARK    3  A    between atoms: C_3  and  C_4
REMARK    4  A    between atoms: C_4  and  N_5
REMARK    5  A    between atoms: C_6  and  C_7
REMARK    6  A    between atoms: C_7  and  C_8
REMARK    7  A    between atoms: C_12  and  O_13
REMARK    8  A    between atoms: O_13  and  C_14
REMARK    9  A    between atoms: C_18  and  N_19
REMARK                            x       y       z     vdW  Elec       q    Type
REMARK                         _______ _______ _______ _____ _____    ______ ____
ROOT
ATOM      1  N   UNL     1       8.306  -1.557  24.333  0.00  0.00    -0.312 N 
ATOM      2  C   UNL     1       9.140  -0.479  24.163  0.00  0.00    +0.166 A 
ATOM      3  C   UNL     1       8.617   0.210  23.086  0.00  0.00    +0.148 A 
ATOM      4  C   UNL     1       9.343   1.325  22.635  0.00  0.00    +0.147 A 
ATOM      5  N   UNL     1      10.438   1.705  23.332  0.00  0.00    -0.219 NA
ATOM      6  C   UNL     1      10.809   0.960  24.396  0.00  0.00    +0.225 A 
ATOM      7  N   UNL     1       7.438  -0.359  22.676  0.00  0.00    -0.227 NA
ATOM      8  N   UNL     1      10.236  -0.164  24.872  0.00  0.00    -0.216 NA
ATOM      9  C   UNL     1       7.252  -1.422  23.444  0.00  0.00    +0.116 A 
ENDROOT
BRANCH   4  10
ATOM     10  N   UNL     1       8.992   2.059  21.512  0.00  0.00    -0.341 N 
ATOM     11  H   UNL     1       9.377   1.677  20.659  0.00  0.00    +0.144 HD
ATOM     12  H   UNL     1       9.017   3.061  21.651  0.00  0.00    +0.144 HD
ENDBRANCH   4  10
BRANCH   1  13
ATOM     13  C   UNL     1       8.556  -2.631  25.277  0.00  0.00    +0.125 C 
BRANCH  13  14
ATOM     14  C   UNL     1       9.471  -3.713  24.698  0.00  0.00    +0.021 C 
BRANCH  14  16
ATOM     15  C   UNL     1       8.149  -5.072  26.348  0.00  0.00    +0.004 C 
ATOM     16  C   UNL     1       9.004  -5.113  25.091  0.00  0.00    -0.002 C 
ENDBRANCH  14  16
ENDBRANCH  13  14
ENDBRANCH   1  13
BRANCH   9  17
ATOM     17  C   UNL     1       6.013  -2.288  23.434  0.00  0.00    +0.109 C 
BRANCH  17  18
ATOM     18  C   UNL     1       6.187  -3.765  23.102  0.00  0.00    -0.037 A 
ATOM     19  C   UNL     1       5.420  -4.723  23.801  0.00  0.00    +0.049 A 
ATOM     20  C   UNL     1       5.432  -6.072  23.425  0.00  0.00    +0.120 A 
ATOM     21  C   UNL     1       6.197  -6.472  22.330  0.00  0.00    +0.045 A 
ATOM     22  C   UNL     1       6.973  -5.549  21.639  0.00  0.00    +0.004 A 
ATOM     23  C   UNL     1       6.969  -4.208  22.024  0.00  0.00    +0.004 A 
BRANCH  20  24
ATOM     24  O   UNL     1       4.734  -7.088  24.017  0.00  0.00    -0.495 OA
ATOM     25  C   UNL     1       4.411  -6.948  25.393  0.00  0.00    +0.277 C 
ENDBRANCH  20  24
ENDBRANCH  17  18
ENDBRANCH   9  17
TORSDOF 7
ENDMDL
MODEL 2
REMARK VINA RESULT:      -6.3      3.546      6.774
REMARK  Name = 
REMARK  9 active torsions:
REMARK  status: ('A' for Active; 'I' for Inactive)
REMARK    1  A    between atoms: C_1  and  C_2
REMARK    2  A    between atoms: C_2  and  C_3
REMARK    3  A    between atoms: C_3  and  C_4
REMARK    4  A    between atoms: C_4  and  N_5
REMARK    5  A    between atoms: C_6  and  C_7
REMARK    6  A    between atoms: C_7  and  C_8
REMARK    7  A    between atoms: C_12  and  O_13
REMARK    8  A    between atoms: O_13  and  C_14
REMARK    9  A    between atoms: C_18  and  N_19
REMARK                            x       y       z     vdW  Elec       q    Type
REMARK                         _______ _______ _______ _____ _____    ______ ____
ROOT
ATOM      1  N   UNL     1       7.565  -3.948  25.213  0.00  0.00    -0.312 N 
ATOM      2  C   UNL     1       6.591  -4.872  24.925  0.00  0.00    +0.166 A 
ATOM      3  C   UNL     1       6.762  -5.165  23.585  0.00  0.00    +0.148 A 
ATOM      4  C   UNL     1       5.822  -6.030  23.002  0.00  0.00    +0.147 A 
ATOM      5  N   UNL     1       4.882  -6.590  23.797  0.00  0.00    -0.219 NA
ATOM      6  C   UNL     1       4.861  -6.247  25.103  0.00  0.00    +0.225 A 
ATOM      7  N   UNL     1       7.872  -4.529  23.091  0.00  0.00    -0.227 NA
ATOM      8  N   UNL     1       5.661  -5.376  25.752  0.00  0.00    -0.216 NA
ATOM      9  C   UNL     1       8.359  -3.803  24.087  0.00  0.00    +0.116 A 
ENDROOT
BRANCH   4  10
ATOM     10  N   UNL     1       5.811  -6.342  21.651  0.00  0.00    -0.341 N 
ATOM     11  H   UNL     1       5.608  -7.316  21.476  0.00  0.00    +0.144 HD
ATOM     12  H   UNL     1       6.549  -5.896  21.120  0.00  0.00    +0.144 HD
ENDBRANCH   4  10
BRANCH   1  13
ATOM     13  C   UNL     1       7.673  -3.258  26.486  0.00  0.00    +0.125 C 
BRANCH  13  14
ATOM     14  C   UNL     1       6.595  -2.186  26.659  0.00  0.00    +0.021 C 
BRANCH  14  16
ATOM     15  C   UNL     1       6.227  -0.721  24.650  0.00  0.00    +0.004 C 
ATOM     16  C   UNL     1       6.981  -0.883  25.961  0.00  0.00    -0.002 C 
ENDBRANCH  14  16
ENDBRANCH  13  14
ENDBRANCH   1  13
BRANCH   9  17
ATOM     17  C   UNL     1       9.657  -3.030  24.037  0.00  0.00    +0.109 C 
BRANCH  17  18
ATOM     18  C   UNL     1       9.628  -1.646  23.398  0.00  0.00    -0.037 A 
ATOM     19  C   UNL     1      10.103  -0.538  24.135  0.00  0.00    +0.049 A 
ATOM     20  C   UNL     1      10.241   0.721  23.537  0.00  0.00    +0.120 A 
ATOM     21  C   UNL     1       9.925   0.878  22.188  0.00  0.00    +0.045 A 
ATOM     22  C   UNL     1       9.440  -0.195  21.449  0.00  0.00    +0.004 A 
ATOM     23  C   UNL     1       9.291  -1.445  22.051  0.00  0.00    +0.004 A 
BRANCH  20  24
ATOM     24  O   UNL     1      10.690   1.863  24.139  0.00  0.00    -0.495 OA
ATOM     25  C   UNL     1      10.759   3.039  23.346  0.00  0.00    +0.277 C 
ENDBRANCH  20  24
ENDBRANCH  17  18
ENDBRANCH   9  17
TORSDOF 7
ENDMDL
MODEL 3
REMARK VINA RESULT:      -6.2      3.579      6.700
REMARK  Name = 
REMARK  9 active torsions:
REMARK  status: ('A' for Active; 'I' for Inactive)
REMARK    1  A    between atoms: C_1  and  C_2
REMARK    2  A    between atoms: C_2  and  C_3
REMARK    3  A    between atoms: C_3  and  C_4
REMARK    4  A    between atoms: C_4  and  N_5
REMARK    5  A    between atoms: C_6  and  C_7
REMARK    6  A    between atoms: C_7  and  C_8
REMARK    7  A    between atoms: C_12  and  O_13
REMARK    8  A    between atoms: O_13  and  C_14
REMARK    9  A    between atoms: C_18  and  N_19
REMARK                            x       y       z     vdW  Elec       q    Type
REMARK                         _______ _______ _______ _____ _____    ______ ____
ROOT
ATOM      1  N   UNL     1       7.657  -2.356  23.854  0.00  0.00    -0.312 N 
ATOM      2  C   UNL     1       7.705  -3.226  24.915  0.00  0.00    +0.166 A 
ATOM      3  C   UNL     1       8.953  -3.814  24.837  0.00  0.00    +0.148 A 
ATOM      4  C   UNL     1       9.233  -4.829  25.767  0.00  0.00    +0.147 A 
ATOM      5  N   UNL     1       8.317  -5.095  26.726  0.00  0.00    -0.219 NA
ATOM      6  C   UNL     1       7.155  -4.407  26.708  0.00  0.00    +0.225 A 
ATOM      7  N   UNL     1       9.692  -3.247  23.830  0.00  0.00    -0.227 NA
ATOM      8  N   UNL     1       6.750  -3.471  25.826  0.00  0.00    -0.216 NA
ATOM      9  C   UNL     1       8.902  -2.357  23.247  0.00  0.00    +0.116 A 
ENDROOT
BRANCH   4  10
ATOM     10  N   UNL     1      10.405  -5.572  25.754  0.00  0.00    -0.341 N 
ATOM     11  H   UNL     1      10.536  -6.079  24.890  0.00  0.00    +0.144 HD
ATOM     12  H   UNL     1      10.605  -6.040  26.629  0.00  0.00    +0.144 HD
ENDBRANCH   4  10
BRANCH   1  13
ATOM     13  C   UNL     1       6.468  -1.616  23.470  0.00  0.00    +0.125 C 
BRANCH  13  14
ATOM     14  C   UNL     1       5.882  -0.813  24.634  0.00  0.00    +0.021 C 
BRANCH  14  16
ATOM     15  C   UNL     1       7.547   0.581  25.899  0.00  0.00    +0.004 C 
ATOM     16  C   UNL     1       6.541   0.559  24.758  0.00  0.00    -0.002 C 
ENDBRANCH  14  16
ENDBRANCH  13  14
ENDBRANCH   1  13
BRANCH   9  17
ATOM     17  C   UNL     1       9.336  -1.398  22.162  0.00  0.00    +0.109 C 
BRANCH  17  18
ATOM     18  C   UNL     1       9.577   0.054  22.559  0.00  0.00    -0.037 A 
ATOM     19  C   UNL     1       8.729   1.058  22.041  0.00  0.00    +0.049 A 
ATOM     20  C   UNL     1       8.813   2.380  22.496  0.00  0.00    +0.120 A 
ATOM     21  C   UNL     1       9.733   2.705  23.492  0.00  0.00    +0.045 A 
ATOM     22  C   UNL     1      10.588   1.736  24.004  0.00  0.00    +0.004 A 
ATOM     23  C   UNL     1      10.511   0.423  23.538  0.00  0.00    +0.004 A 
BRANCH  20  24
ATOM     24  O   UNL     1       8.051   3.435  22.078  0.00  0.00    -0.495 OA
ATOM     25  C   UNL     1       6.640   3.269  22.087  0.00  0.00    +0.277 C 
ENDBRANCH  20  24
ENDBRANCH  17  18
ENDBRANCH   9  17
TORSDOF 7
ENDMDL
MODEL 4
REMARK VINA RESULT:      -6.2      3.210      6.628
REMARK  Name = 
REMARK  9 active torsions:
REMARK  status: ('A' for Active; 'I' for Inactive)
REMARK    1  A    between atoms: C_1  and  C_2
REMARK    2  A    between atoms: C_2  and  C_3
REMARK    3  A    between atoms: C_3  and  C_4
REMARK    4  A    between atoms: C_4  and  N_5
REMARK    5  A    between atoms: C_6  and  C_7
REMARK    6  A    between atoms: C_7  and  C_8
REMARK    7  A    between atoms: C_12  and  O_13
REMARK    8  A    between atoms: O_13  and  C_14
REMARK    9  A    between atoms: C_18  and  N_19
REMARK                            x       y       z     vdW  Elec       q    Type
REMARK                         _______ _______ _______ _____ _____    ______ ____
ROOT
ATOM      1  N   UNL     1       7.504  -2.812  23.604  0.00  0.00    -0.312 N 
ATOM      2  C   UNL     1       7.548  -3.673  24.672  0.00  0.00    +0.166 A 
ATOM      3  C   UNL     1       8.868  -4.072  24.754  0.00  0.00    +0.148 A 
ATOM      4  C   UNL     1       9.177  -5.043  25.722  0.00  0.00    +0.147 A 
ATOM      5  N   UNL     1       8.200  -5.446  26.564  0.00  0.00    -0.219 NA
ATOM      6  C   UNL     1       6.960  -4.935  26.397  0.00  0.00    +0.225 A 
ATOM      7  N   UNL     1       9.634  -3.395  23.839  0.00  0.00    -0.227 NA
ATOM      8  N   UNL     1       6.534  -4.062  25.462  0.00  0.00    -0.216 NA
ATOM      9  C   UNL     1       8.800  -2.625  23.155  0.00  0.00    +0.116 A 
ENDROOT
BRANCH   4  10
ATOM     10  N   UNL     1      10.437  -5.606  25.859  0.00  0.00    -0.341 N 
ATOM     11  H   UNL     1      11.151  -5.093  25.362  0.00  0.00    +0.144 HD
ATOM     12  H   UNL     1      10.443  -6.617  25.812  0.00  0.00    +0.144 HD
ENDBRANCH   4  10
BRANCH   1  13
ATOM     13  C   UNL     1       6.275  -2.250  23.070  0.00  0.00    +0.125 C 
BRANCH  13  14
ATOM     14  C   UNL     1       5.788  -2.996  21.826  0.00  0.00    +0.021 C 
BRANCH  14  16
ATOM     15  C   UNL     1       6.392  -5.393  21.376  0.00  0.00    +0.004 C 
ATOM     16  C   UNL     1       5.467  -4.456  22.136  0.00  0.00    -0.002 C 
ENDBRANCH  14  16
ENDBRANCH  13  14
ENDBRANCH   1  13
BRANCH   9  17
ATOM     17  C   UNL     1       9.220  -1.605  22.121  0.00  0.00    +0.109 C 
BRANCH  17  18
ATOM     18  C   UNL     1       9.490  -0.184  22.603  0.00  0.00    -0.037 A 
ATOM     19  C   UNL     1       8.694   0.873  22.107  0.00  0.00    +0.049 A 
ATOM     20  C   UNL     1       8.803   2.166  22.634  0.00  0.00    +0.120 A 
ATOM     21  C   UNL     1       9.693   2.409  23.679  0.00  0.00    +0.045 A 
ATOM     22  C   UNL     1      10.497   1.387  24.171  0.00  0.00    +0.004 A 
ATOM     23  C   UNL     1      10.397   0.103  23.634  0.00  0.00    +0.004 A 
BRANCH  20  24
ATOM     24  O   UNL     1       8.090   3.266  22.244  0.00  0.00    -0.495 OA
ATOM     25  C   UNL     1       6.677   3.145  22.185  0.00  0.00    +0.277 C 
ENDBRANCH  20  24
ENDBRANCH  17  18
ENDBRANCH   9  17
TORSDOF 7
ENDMDL
MODEL 5
REMARK VINA RESULT:      -6.0      3.737      7.233
REMARK  Name = 
REMARK  9 active torsions:
REMARK  status: ('A' for Active; 'I' for Inactive)
REMARK    1  A    between atoms: C_1  and  C_2
REMARK    2  A    between atoms: C_2  and  C_3
REMARK    3  A    between atoms: C_3  and  C_4
REMARK    4  A    between atoms: C_4  and  N_5
REMARK    5  A    between atoms: C_6  and  C_7
REMARK    6  A    between atoms: C_7  and  C_8
REMARK    7  A    between atoms: C_12  and  O_13
REMARK    8  A    between atoms: O_13  and  C_14
REMARK    9  A    between atoms: C_18  and  N_19
REMARK                            x       y       z     vdW  Elec       q    Type
REMARK                         _______ _______ _______ _____ _____    ______ ____
ROOT
ATOM      1  N   UNL     1       5.920  -4.562  25.068  0.00  0.00    -0.312 N 
ATOM      2  C   UNL     1       4.996  -5.031  25.969  0.00  0.00    +0.166 A 
ATOM      3  C   UNL     1       5.699  -5.899  26.782  0.00  0.00    +0.148 A 
ATOM      4  C   UNL     1       4.959  -6.599  27.750  0.00  0.00    +0.147 A 
ATOM      5  N   UNL     1       3.645  -6.312  27.888  0.00  0.00    -0.219 NA
ATOM      6  C   UNL     1       3.097  -5.404  27.050  0.00  0.00    +0.225 A 
ATOM      7  N   UNL     1       7.034  -5.882  26.466  0.00  0.00    -0.227 NA
ATOM      8  N   UNL     1       3.689  -4.731  26.043  0.00  0.00    -0.216 NA
ATOM      9  C   UNL     1       7.160  -5.061  25.433  0.00  0.00    +0.116 A 
ENDROOT
BRANCH   4  10
ATOM     10  N   UNL     1       5.510  -7.569  28.574  0.00  0.00    -0.341 N 
ATOM     11  H   UNL     1       6.347  -7.253  29.044  0.00  0.00    +0.144 HD
ATOM     12  H   UNL     1       5.497  -8.501  28.179  0.00  0.00    +0.144 HD
ENDBRANCH   4  10
BRANCH   1  13
ATOM     13  C   UNL     1       5.587  -3.717  23.935  0.00  0.00    +0.125 C 
BRANCH  13  14
ATOM     14  C   UNL     1       5.256  -4.530  22.681  0.00  0.00    +0.021 C 
BRANCH  14  16
ATOM     15  C   UNL     1       7.042  -5.975  21.661  0.00  0.00    +0.004 C 
ATOM     16  C   UNL     1       6.439  -4.580  21.716  0.00  0.00    -0.002 C 
ENDBRANCH  14  16
ENDBRANCH  13  14
ENDBRANCH   1  13
BRANCH   9  17
ATOM     17  C   UNL     1       8.476  -4.636  24.825  0.00  0.00    +0.109 C 
BRANCH  17  18
ATOM     18  C   UNL     1       8.905  -3.185  25.014  0.00  0.00    -0.037 A 
ATOM     19  C   UNL     1       9.610  -2.536  23.976  0.00  0.00    +0.049 A 
ATOM     20  C   UNL     1       9.888  -1.164  24.041  0.00  0.00    +0.120 A 
ATOM     21  C   UNL     1       9.442  -0.425  25.136  0.00  0.00    +0.045 A 
ATOM     22  C   UNL     1       8.761  -1.047  26.175  0.00  0.00    +0.004 A 
ATOM     23  C   UNL     1       8.498  -2.416  26.114  0.00  0.00    +0.004 A 
BRANCH  20  24
ATOM     24  O   UNL     1      10.556  -0.424  23.105  0.00  0.00    -0.495 OA
ATOM     25  C   UNL     1       9.789   0.159  22.062  0.00  0.00    +0.277 C 
ENDBRANCH  20  24
ENDBRANCH  17  18
ENDBRANCH   9  17
TORSDOF 7
ENDMDL
MODEL 6
REMARK VINA RESULT:      -5.9      3.221      6.552
REMARK  Name = 
REMARK  9 active torsions:
REMARK  status: ('A' for Active; 'I' for Inactive)
REMARK    1  A    between atoms: C_1  and  C_2
REMARK    2  A    between atoms: C_2  and  C_3
REMARK    3  A    between atoms: C_3  and  C_4
REMARK    4  A    between atoms: C_4  and  N_5
REMARK    5  A    between atoms: C_6  and  C_7
REMARK    6  A    between atoms: C_7  and  C_8
REMARK    7  A    between atoms: C_12  and  O_13
REMARK    8  A    between atoms: O_13  and  C_14
REMARK    9  A    between atoms: C_18  and  N_19
REMARK                            x       y       z     vdW  Elec       q    Type
REMARK                         _______ _______ _______ _____ _____    ______ ____
ROOT
ATOM      1  N   UNL     1       7.781  -3.682  25.153  0.00  0.00    -0.312 N 
ATOM      2  C   UNL     1       6.819  -4.644  24.970  0.00  0.00    +0.166 A 
ATOM      3  C   UNL     1       6.813  -4.888  23.610  0.00  0.00    +0.148 A 
ATOM      4  C   UNL     1       5.840  -5.782  23.131  0.00  0.00    +0.147 A 
ATOM      5  N   UNL     1       5.047  -6.411  24.028  0.00  0.00    -0.219 NA
ATOM      6  C   UNL     1       5.195  -6.108  25.336  0.00  0.00    +0.225 A 
ATOM      7  N   UNL     1       7.814  -4.184  22.990  0.00  0.00    -0.227 NA
ATOM      8  N   UNL     1       6.037  -5.218  25.899  0.00  0.00    -0.216 NA
ATOM      9  C   UNL     1       8.402  -3.465  23.935  0.00  0.00    +0.116 A 
ENDROOT
BRANCH   4  10
ATOM     10  N   UNL     1       5.654  -6.054  21.784  0.00  0.00    -0.341 N 
ATOM     11  H   UNL     1       4.785  -5.683  21.427  0.00  0.00    +0.144 HD
ATOM     12  H   UNL     1       5.934  -6.988  21.511  0.00  0.00    +0.144 HD
ENDBRANCH   4  10
BRANCH   1  13
ATOM     13  C   UNL     1       8.035  -3.026  26.424  0.00  0.00    +0.125 C 
BRANCH  13  14
ATOM     14  C   UNL     1       7.156  -1.789  26.625  0.00  0.00    +0.021 C 
BRANCH  14  16
ATOM     15  C   UNL     1       7.133   0.679  27.096  0.00  0.00    +0.004 C 
ATOM     16  C   UNL     1       7.976  -0.587  27.088  0.00  0.00    -0.002 C 
ENDBRANCH  14  16
ENDBRANCH  13  14
ENDBRANCH   1  13
BRANCH   9  17
ATOM     17  C   UNL     1       9.644  -2.627  23.734  0.00  0.00    +0.109 C 
BRANCH  17  18
ATOM     18  C   UNL     1       9.482  -1.111  23.748  0.00  0.00    -0.037 A 
ATOM     19  C   UNL     1       8.290  -0.543  23.246  0.00  0.00    +0.049 A 
ATOM     20  C   UNL     1       8.032   0.828  23.380  0.00  0.00    +0.120 A 
ATOM     21  C   UNL     1       8.955   1.638  24.039  0.00  0.00    +0.045 A 
ATOM     22  C   UNL     1      10.142   1.102  24.525  0.00  0.00    +0.004 A 
ATOM     23  C   UNL     1      10.402  -0.261  24.378  0.00  0.00    +0.004 A 
BRANCH  20  24
ATOM     24  O   UNL     1       6.920   1.493  22.942  0.00  0.00    -0.495 OA
ATOM     25  C   UNL     1       7.101   2.481  21.938  0.00  0.00    +0.277 C 
ENDBRANCH  20  24
ENDBRANCH  17  18
ENDBRANCH   9  17
TORSDOF 7
ENDMDL
MODEL 7
REMARK VINA RESULT:      -5.9      3.186      6.636
REMARK  Name = 
REMARK  9 active torsions:
REMARK  status: ('A' for Active; 'I' for Inactive)
REMARK    1  A    between atoms: C_1  and  C_2
REMARK    2  A    between atoms: C_2  and  C_3
REMARK    3  A    between atoms: C_3  and  C_4
REMARK    4  A    between atoms: C_4  and  N_5
REMARK    5  A    between atoms: C_6  and  C_7
REMARK    6  A    between atoms: C_7  and  C_8
REMARK    7  A    between atoms: C_12  and  O_13
REMARK    8  A    between atoms: O_13  and  C_14
REMARK    9  A    between atoms: C_18  and  N_19
REMARK                            x       y       z     vdW  Elec       q    Type
REMARK                         _______ _______ _______ _____ _____    ______ ____
ROOT
ATOM      1  N   UNL     1       9.214  -1.609  23.748  0.00  0.00    -0.312 N 
ATOM      2  C   UNL     1       8.583  -2.812  23.945  0.00  0.00    +0.166 A 
ATOM      3  C   UNL     1       7.987  -3.104  22.733  0.00  0.00    +0.148 A 
ATOM      4  C   UNL     1       7.186  -4.257  22.684  0.00  0.00    +0.147 A 
ATOM      5  N   UNL     1       7.128  -5.049  23.778  0.00  0.00    -0.219 NA
ATOM      6  C   UNL     1       7.802  -4.662  24.883  0.00  0.00    +0.225 A 
ATOM      7  N   UNL     1       8.330  -2.170  21.789  0.00  0.00    -0.227 NA
ATOM      8  N   UNL     1       8.536  -3.546  25.068  0.00  0.00    -0.216 NA
ATOM      9  C   UNL     1       9.083  -1.274  22.411  0.00  0.00    +0.116 A 
ENDROOT
BRANCH   4  10
ATOM     10  N   UNL     1       6.452  -4.627  21.566  0.00  0.00    -0.341 N 
ATOM     11  H   UNL     1       6.929  -4.420  20.700  0.00  0.00    +0.144 HD
ATOM     12  H   UNL     1       5.463  -4.424  21.638  0.00  0.00    +0.144 HD
ENDBRANCH   4  10
BRANCH   1  13
ATOM     13  C   UNL     1       9.863  -0.855  24.806  0.00  0.00    +0.125 C 
BRANCH  13  14
ATOM     14  C   UNL     1       8.882  -0.423  25.898  0.00  0.00    +0.021 C 
BRANCH  14  16
ATOM     15  C   UNL     1       6.682   0.449  25.051  0.00  0.00    +0.004 C 
ATOM     16  C   UNL     1       8.092   0.818  25.485  0.00  0.00    -0.002 C 
ENDBRANCH  14  16
ENDBRANCH  13  14
ENDBRANCH   1  13
BRANCH   9  17
ATOM     17  C   UNL     1       9.794  -0.126  21.732  0.00  0.00    +0.109 C 
BRANCH  17  18
ATOM     18  C   UNL     1       9.348   1.288  22.087  0.00  0.00    -0.037 A 
ATOM     19  C   UNL     1       8.027   1.688  21.785  0.00  0.00    +0.049 A 
ATOM     20  C   UNL     1       7.526   2.919  22.230  0.00  0.00    +0.120 A 
ATOM     21  C   UNL     1       8.336   3.751  23.001  0.00  0.00    +0.045 A 
ATOM     22  C   UNL     1       9.644   3.384  23.295  0.00  0.00    +0.004 A 
ATOM     23  C   UNL     1      10.145   2.164  22.839  0.00  0.00    +0.004 A 
BRANCH  20  24
ATOM     24  O   UNL     1       6.271   3.415  22.007  0.00  0.00    -0.495 OA
ATOM     25  C   UNL     1       5.726   4.285  22.988  0.00  0.00    +0.277 C 
ENDBRANCH  20  24
ENDBRANCH  17  18
ENDBRANCH   9  17
TORSDOF 7
ENDMDL
MODEL 8
REMARK VINA RESULT:      -5.9      2.309      3.998
REMARK  Name = 
REMARK  9 active torsions:
REMARK  status: ('A' for Active; 'I' for Inactive)
REMARK    1  A    between atoms: C_1  and  C_2
REMARK    2  A    between atoms: C_2  and  C_3
REMARK    3  A    between atoms: C_3  and  C_4
REMARK    4  A    between atoms: C_4  and  N_5
REMARK    5  A    between atoms: C_6  and  C_7
REMARK    6  A    between atoms: C_7  and  C_8
REMARK    7  A    between atoms: C_12  and  O_13
REMARK    8  A    between atoms: O_13  and  C_14
REMARK    9  A    between atoms: C_18  and  N_19
REMARK                            x       y       z     vdW  Elec       q    Type
REMARK                         _______ _______ _______ _____ _____    ______ ____
ROOT
ATOM      1  N   UNL     1       8.368  -3.031  23.082  0.00  0.00    -0.312 N 
ATOM      2  C   UNL     1       8.984  -1.841  22.787  0.00  0.00    +0.166 A 
ATOM      3  C   UNL     1       9.531  -1.416  23.982  0.00  0.00    +0.148 A 
ATOM      4  C   UNL     1      10.152  -0.156  23.982  0.00  0.00    +0.147 A 
ATOM      5  N   UNL     1      10.261   0.508  22.809  0.00  0.00    -0.219 NA
ATOM      6  C   UNL     1       9.717  -0.050  21.705  0.00  0.00    +0.225 A 
ATOM      7  N   UNL     1       9.355  -2.365  24.957  0.00  0.00    -0.227 NA
ATOM      8  N   UNL     1       9.038  -1.210  21.602  0.00  0.00    -0.216 NA
ATOM      9  C   UNL     1       8.658  -3.345  24.399  0.00  0.00    +0.116 A 
ENDROOT
BRANCH   4  10
ATOM     10  N   UNL     1      10.663   0.441  25.125  0.00  0.00    -0.341 N 
ATOM     11  H   UNL     1      10.567  -0.140  25.946  0.00  0.00    +0.144 HD
ATOM     12  H   UNL     1      10.455   1.429  25.201  0.00  0.00    +0.144 HD
ENDBRANCH   4  10
BRANCH   1  13
ATOM     13  C   UNL     1       7.544  -3.770  22.141  0.00  0.00    +0.125 C 
BRANCH  13  14
ATOM     14  C   UNL     1       6.057  -3.442  22.288  0.00  0.00    +0.021 C 
BRANCH  14  16
ATOM     15  C   UNL     1       6.053  -5.954  22.355  0.00  0.00    +0.004 C 
ATOM     16  C   UNL     1       5.230  -4.694  22.572  0.00  0.00    -0.002 C 
ENDBRANCH  14  16
ENDBRANCH  13  14
ENDBRANCH   1  13
BRANCH   9  17
ATOM     17  C   UNL     1       8.337  -4.663  25.067  0.00  0.00    +0.109 C 
BRANCH  17  18
ATOM     18  C   UNL     1       7.202  -4.679  26.084  0.00  0.00    -0.037 A 
ATOM     19  C   UNL     1       7.336  -5.462  27.252  0.00  0.00    +0.049 A 
ATOM     20  C   UNL     1       6.391  -5.388  28.284  0.00  0.00    +0.120 A 
ATOM     21  C   UNL     1       5.314  -4.511  28.165  0.00  0.00    +0.045 A 
ATOM     22  C   UNL     1       5.154  -3.744  27.018  0.00  0.00    +0.004 A 
ATOM     23  C   UNL     1       6.089  -3.830  25.986  0.00  0.00    +0.004 A 
BRANCH  20  24
ATOM     24  O   UNL     1       6.412  -6.089  29.458  0.00  0.00    -0.495 OA
ATOM     25  C   UNL     1       5.391  -5.812  30.405  0.00  0.00    +0.277 C 
ENDBRANCH  20  24
ENDBRANCH  17  18
ENDBRANCH   9  17
TORSDOF 7
ENDMDL
MODEL 9
REMARK VINA RESULT:      -5.7      2.167      3.761
REMARK  Name = 
REMARK  9 active torsions:
REMARK  status: ('A' for Active; 'I' for Inactive)
REMARK    1  A    between atoms: C_1  and  C_2
REMARK    2  A    between atoms: C_2  and  C_3
REMARK    3  A    between atoms: C_3  and  C_4
REMARK    4  A    between atoms: C_4  and  N_5
REMARK    5  A    between atoms: C_6  and  C_7
REMARK    6  A    between atoms: C_7  and  C_8
REMARK    7  A    between atoms: C_12  and  O_13
REMARK    8  A    between atoms: O_13  and  C_14
REMARK    9  A    between atoms: C_18  and  N_19
REMARK                            x       y       z     vdW  Elec       q    Type
REMARK                         _______ _______ _______ _____ _____    ______ ____
ROOT
ATOM      1  N   UNL     1       8.243  -3.085  23.265  0.00  0.00    -0.312 N 
ATOM      2  C   UNL     1       8.907  -1.933  22.924  0.00  0.00    +0.166 A 
ATOM      3  C   UNL     1       9.406  -1.443  24.116  0.00  0.00    +0.148 A 
ATOM      4  C   UNL     1      10.062  -0.201  24.064  0.00  0.00    +0.147 A 
ATOM      5  N   UNL     1      10.247   0.380  22.857  0.00  0.00    -0.219 NA
ATOM      6  C   UNL     1       9.744  -0.238  21.766  0.00  0.00    +0.225 A 
ATOM      7  N   UNL     1       9.154  -2.319  25.141  0.00  0.00    -0.227 NA
ATOM      8  N   UNL     1       9.038  -1.385  21.705  0.00  0.00    -0.216 NA
ATOM      9  C   UNL     1       8.459  -3.317  24.613  0.00  0.00    +0.116 A 
ENDROOT
BRANCH   4  10
ATOM     10  N   UNL     1      10.532   0.458  25.190  0.00  0.00    -0.341 N 
ATOM     11  H   UNL     1       9.820   1.011  25.646  0.00  0.00    +0.144 HD
ATOM     12  H   UNL     1      11.458   0.853  25.079  0.00  0.00    +0.144 HD
ENDBRANCH   4  10
BRANCH   1  13
ATOM     13  C   UNL     1       7.447  -3.864  22.333  0.00  0.00    +0.125 C 
BRANCH  13  14
ATOM     14  C   UNL     1       5.969  -3.467  22.359  0.00  0.00    +0.021 C 
BRANCH  14  16
ATOM     15  C   UNL     1       5.822  -5.976  22.406  0.00  0.00    +0.004 C 
ATOM     16  C   UNL     1       5.068  -4.673  22.619  0.00  0.00    -0.002 C 
ENDBRANCH  14  16
ENDBRANCH  13  14
ENDBRANCH   1  13
BRANCH   9  17
ATOM     17  C   UNL     1       8.067  -4.578  25.348  0.00  0.00    +0.109 C 
BRANCH  17  18
ATOM     18  C   UNL     1       6.647  -4.662  25.896  0.00  0.00    -0.037 A 
ATOM     19  C   UNL     1       5.906  -3.472  26.071  0.00  0.00    +0.049 A 
ATOM     20  C   UNL     1       4.550  -3.512  26.423  0.00  0.00    +0.120 A 
ATOM     21  C   UNL     1       3.918  -4.744  26.581  0.00  0.00    +0.045 A 
ATOM     22  C   UNL     1       4.633  -5.927  26.430  0.00  0.00    +0.004 A 
ATOM     23  C   UNL     1       5.986  -5.884  26.093  0.00  0.00    +0.004 A 
BRANCH  20  24
ATOM     24  O   UNL     1       3.729  -2.436  26.617  0.00  0.00    -0.495 OA
ATOM     25  C   UNL     1       2.333  -2.639  26.451  0.00  0.00    +0.277 C 
ENDBRANCH  20  24
ENDBRANCH  17  18
ENDBRANCH   9  17
TORSDOF 7
ENDMDL
