MODEL 1
REMARK VINA RESULT:      -8.4      0.000      0.000
REMARK  Name = 
REMARK  8 active torsions:
REMARK  status: ('A' for Active; 'I' for Inactive)
REMARK    1  A    between atoms: C_4  and  C_5
REMARK    2  A    between atoms: C_4  and  C_6
REMARK    3  A    between atoms: CA_7  and  C_29
REMARK    4  A    between atoms: CA_12  and  N_14
REMARK    5  A    between atoms: C_15  and  C_17
REMARK    6  A    between atoms: C_18  and  C_19
REMARK    7  A    between atoms: C_22  and  C_23
REMARK    8  A    between atoms: C_29  and  O_30
REMARK                            x       y       z     vdW  Elec       q    Type
REMARK                         _______ _______ _______ _____ _____    ______ ____
ROOT
ATOM      1  N   UNL     1       7.800  -3.245  23.811  0.00  0.00    -0.298 N 
ATOM      2  H   UNL     1       7.569  -2.706  24.636  0.00  0.00    +0.150 HD
ATOM      3  C   UNL     1       7.516  -4.596  23.825  0.00  0.00    +0.250 C 
ATOM      4  O   UNL     1       7.571  -5.259  22.795  0.00  0.00    -0.270 OA
ENDROOT
BRANCH   1   6
ATOM      5  C   UNL     1       7.578  -1.068  22.435  0.00  0.00    +0.165 C 
ATOM      6  CA  UNL     1       8.065  -2.539  22.526  0.00  0.00    +0.190 C 
ATOM      7  C   UNL     1       9.475  -1.927  22.347  0.00  0.00    +0.240 C 
ATOM      8  O   UNL     1      10.616  -2.275  22.544  0.00  0.00    -0.273 OA
ATOM      9  N   UNL     1       8.965  -0.680  22.088  0.00  0.00    -0.271 N 
ATOM     10  CA  UNL     1       9.512   0.501  22.787  0.00  0.00    +0.201 C 
ATOM     11  C   UNL     1       8.900   0.511  24.211  0.00  0.00    +0.042 C 
ATOM     12  C   UNL     1       9.675  -0.409  25.178  0.00  0.00    +0.025 C 
ATOM     13  C   UNL     1       8.805   1.881  24.891  0.00  0.00    +0.025 C 
ATOM     14  S   UNL     1       7.203  -0.203  24.014  0.00  0.00    -0.127 S 
BRANCH  10  15
ATOM     15  C   UNL     1       9.219   1.743  21.926  0.00  0.00    +0.327 C 
ATOM     16  OXT UNL     1       8.109   2.087  21.548  0.00  0.00    -0.249 OA
BRANCH  15  17
ATOM     17  O   UNL     1      10.316   2.507  21.682  0.00  0.00    -0.479 OA
ATOM     18  H   UNL     1      10.118   3.451  21.848  0.00  0.00    +0.295 HD
ENDBRANCH  15  17
ENDBRANCH  10  15
ENDBRANCH   1   6
BRANCH   3  19
ATOM     19  C   UNL     1       7.121  -5.142  25.108  0.00  0.00    +0.106 A 
ATOM     20  C   UNL     1       5.879  -5.763  25.496  0.00  0.00    +0.126 A 
ATOM     21  N   UNL     1       5.949  -6.160  26.778  0.00  0.00    -0.077 NA
ATOM     22  O   UNL     1       7.193  -5.832  27.233  0.00  0.00    -0.359 OA
ATOM     23  C   UNL     1       7.904  -5.236  26.248  0.00  0.00    +0.147 A 
ATOM     24  C   UNL     1       9.291  -4.887  26.625  0.00  0.00    +0.090 C 
BRANCH  20  25
ATOM     25  C   UNL     1       4.630  -5.990  24.749  0.00  0.00    +0.004 A 
ATOM     26  C   UNL     1       3.992  -7.243  24.828  0.00  0.00    +0.010 A 
ATOM     27  C   UNL     1       2.778  -7.482  24.175  0.00  0.00    +0.001 A 
ATOM     28  C   UNL     1       2.183  -6.471  23.427  0.00  0.00    +0.000 A 
ATOM     29  C   UNL     1       2.798  -5.225  23.337  0.00  0.00    +0.001 A 
ATOM     30  C   UNL     1       4.008  -4.983  24.002  0.00  0.00    +0.010 A 
ENDBRANCH  20  25
ENDBRANCH   3  19
TORSDOF 5
ENDMDL
MODEL 2
REMARK VINA RESULT:      -7.6      3.232      9.338
REMARK  Name = 
REMARK  8 active torsions:
REMARK  status: ('A' for Active; 'I' for Inactive)
REMARK    1  A    between atoms: C_4  and  C_5
REMARK    2  A    between atoms: C_4  and  C_6
REMARK    3  A    between atoms: CA_7  and  C_29
REMARK    4  A    between atoms: CA_12  and  N_14
REMARK    5  A    between atoms: C_15  and  C_17
REMARK    6  A    between atoms: C_18  and  C_19
REMARK    7  A    between atoms: C_22  and  C_23
REMARK    8  A    between atoms: C_29  and  O_30
REMARK                            x       y       z     vdW  Elec       q    Type
REMARK                         _______ _______ _______ _____ _____    ______ ____
ROOT
ATOM      1  N   UNL     1       9.094   1.332  24.223  0.00  0.00    -0.298 N 
ATOM      2  H   UNL     1       8.162   1.465  24.595  0.00  0.00    +0.150 HD
ATOM      3  C   UNL     1       9.671   2.384  23.541  0.00  0.00    +0.250 C 
ATOM      4  O   UNL     1      10.864   2.367  23.254  0.00  0.00    -0.270 OA
ENDROOT
BRANCH   1   6
ATOM      5  C   UNL     1       9.189  -0.889  25.543  0.00  0.00    +0.165 C 
ATOM      6  CA  UNL     1       9.929   0.207  24.728  0.00  0.00    +0.190 C 
ATOM      7  C   UNL     1      10.223  -0.942  23.734  0.00  0.00    +0.240 C 
ATOM      8  O   UNL     1      10.559  -1.038  22.577  0.00  0.00    -0.273 OA
ATOM      9  N   UNL     1       9.720  -1.890  24.588  0.00  0.00    -0.271 N 
ATOM     10  CA  UNL     1       8.759  -2.896  24.090  0.00  0.00    +0.201 C 
ATOM     11  C   UNL     1       7.378  -2.200  23.996  0.00  0.00    +0.042 C 
ATOM     12  C   UNL     1       7.219  -1.412  22.679  0.00  0.00    +0.025 C 
ATOM     13  C   UNL     1       6.155  -3.118  24.106  0.00  0.00    +0.025 C 
ATOM     14  S   UNL     1       7.359  -0.971  25.379  0.00  0.00    -0.127 S 
BRANCH  10  15
ATOM     15  C   UNL     1       8.827  -4.122  25.021  0.00  0.00    +0.327 C 
ATOM     16  OXT UNL     1       8.619  -4.099  26.224  0.00  0.00    -0.249 OA
BRANCH  15  17
ATOM     17  O   UNL     1       9.057  -5.290  24.366  0.00  0.00    -0.479 OA
ATOM     18  H   UNL     1       9.887  -5.701  24.682  0.00  0.00    +0.295 HD
ENDBRANCH  15  17
ENDBRANCH  10  15
ENDBRANCH   1   6
BRANCH   3  19
ATOM     19  C   UNL     1       8.792   3.494  23.236  0.00  0.00    +0.106 A 
ATOM     20  C   UNL     1       8.952   4.897  23.527  0.00  0.00    +0.126 A 
ATOM     21  N   UNL     1       7.910   5.587  23.033  0.00  0.00    -0.077 NA
ATOM     22  O   UNL     1       7.086   4.688  22.422  0.00  0.00    -0.359 OA
ATOM     23  C   UNL     1       7.602   3.441  22.526  0.00  0.00    +0.147 A 
ATOM     24  C   UNL     1       6.807   2.396  21.847  0.00  0.00    +0.090 C 
BRANCH  20  25
ATOM     25  C   UNL     1      10.008   5.626  24.251  0.00  0.00    +0.004 A 
ATOM     26  C   UNL     1      11.323   5.626  23.747  0.00  0.00    +0.010 A 
ATOM     27  C   UNL     1      12.342   6.348  24.377  0.00  0.00    +0.001 A 
ATOM     28  C   UNL     1      12.064   7.079  25.527  0.00  0.00    +0.000 A 
ATOM     29  C   UNL     1      10.769   7.092  26.042  0.00  0.00    +0.001 A 
ATOM     30  C   UNL     1       9.746   6.379  25.402  0.00  0.00    +0.010 A 
ENDBRANCH  20  25
ENDBRANCH   3  19
TORSDOF 5
ENDMDL
MODEL 3
REMARK VINA RESULT:      -7.3      2.438      7.928
REMARK  Name = 
REMARK  8 active torsions:
REMARK  status: ('A' for Active; 'I' for Inactive)
REMARK    1  A    between atoms: C_4  and  C_5
REMARK    2  A    between atoms: C_4  and  C_6
REMARK    3  A    between atoms: CA_7  and  C_29
REMARK    4  A    between atoms: CA_12  and  N_14
REMARK    5  A    between atoms: C_15  and  C_17
REMARK    6  A    between atoms: C_18  and  C_19
REMARK    7  A    between atoms: C_22  and  C_23
REMARK    8  A    between atoms: C_29  and  O_30
REMARK                            x       y       z     vdW  Elec       q    Type
REMARK                         _______ _______ _______ _____ _____    ______ ____
ROOT
ATOM      1  N   UNL     1       7.229  -1.340  24.793  0.00  0.00    -0.298 N 
ATOM      2  H   UNL     1       8.057  -1.883  25.003  0.00  0.00    +0.150 HD
ATOM      3  C   UNL     1       7.393  -0.156  24.103  0.00  0.00    +0.250 C 
ATOM      4  O   UNL     1       6.427   0.436  23.634  0.00  0.00    -0.270 OA
ENDROOT
BRANCH   1   6
ATOM      5  C   UNL     1       5.452  -2.841  23.664  0.00  0.00    +0.165 C 
ATOM      6  CA  UNL     1       5.889  -1.986  24.883  0.00  0.00    +0.190 C 
ATOM      7  C   UNL     1       5.812  -3.323  25.659  0.00  0.00    +0.240 C 
ATOM      8  O   UNL     1       6.240  -3.758  26.703  0.00  0.00    -0.273 OA
ATOM      9  N   UNL     1       5.251  -3.977  24.593  0.00  0.00    -0.271 N 
ATOM     10  CA  UNL     1       5.791  -5.283  24.161  0.00  0.00    +0.201 C 
ATOM     11  C   UNL     1       7.079  -4.997  23.349  0.00  0.00    +0.042 C 
ATOM     12  C   UNL     1       8.306  -4.803  24.265  0.00  0.00    +0.025 C 
ATOM     13  C   UNL     1       7.469  -6.057  22.314  0.00  0.00    +0.025 C 
ATOM     14  S   UNL     1       6.767  -3.383  22.498  0.00  0.00    -0.127 S 
BRANCH  10  15
ATOM     15  C   UNL     1       4.679  -6.033  23.406  0.00  0.00    +0.327 C 
ATOM     16  OXT UNL     1       3.967  -5.544  22.542  0.00  0.00    -0.249 OA
BRANCH  15  17
ATOM     17  O   UNL     1       4.602  -7.353  23.719  0.00  0.00    -0.479 OA
ATOM     18  H   UNL     1       5.385  -7.831  23.378  0.00  0.00    +0.295 HD
ENDBRANCH  15  17
ENDBRANCH  10  15
ENDBRANCH   1   6
BRANCH   3  19
ATOM     19  C   UNL     1       8.760   0.296  23.946  0.00  0.00    +0.106 A 
ATOM     20  C   UNL     1       9.346   1.573  24.271  0.00  0.00    +0.126 A 
ATOM     21  N   UNL     1      10.662   1.555  23.995  0.00  0.00    -0.077 NA
ATOM     22  O   UNL     1      10.955   0.311  23.515  0.00  0.00    -0.359 OA
ATOM     23  C   UNL     1       9.836  -0.451  23.490  0.00  0.00    +0.147 A 
ATOM     24  C   UNL     1      10.058  -1.839  23.033  0.00  0.00    +0.090 C 
BRANCH  20  25
ATOM     25  C   UNL     1       8.750   2.810  24.804  0.00  0.00    +0.004 A 
ATOM     26  C   UNL     1       7.849   2.736  25.885  0.00  0.00    +0.010 A 
ATOM     27  C   UNL     1       7.301   3.891  26.452  0.00  0.00    +0.001 A 
ATOM     28  C   UNL     1       7.641   5.141  25.946  0.00  0.00    +0.000 A 
ATOM     29  C   UNL     1       8.530   5.234  24.878  0.00  0.00    +0.001 A 
ATOM     30  C   UNL     1       9.089   4.078  24.317  0.00  0.00    +0.010 A 
ENDBRANCH  20  25
ENDBRANCH   3  19
TORSDOF 5
ENDMDL
MODEL 4
REMARK VINA RESULT:      -7.3      2.569      3.706
REMARK  Name = 
REMARK  8 active torsions:
REMARK  status: ('A' for Active; 'I' for Inactive)
REMARK    1  A    between atoms: C_4  and  C_5
REMARK    2  A    between atoms: C_4  and  C_6
REMARK    3  A    between atoms: CA_7  and  C_29
REMARK    4  A    between atoms: CA_12  and  N_14
REMARK    5  A    between atoms: C_15  and  C_17
REMARK    6  A    between atoms: C_18  and  C_19
REMARK    7  A    between atoms: C_22  and  C_23
REMARK    8  A    between atoms: C_29  and  O_30
REMARK                            x       y       z     vdW  Elec       q    Type
REMARK                         _______ _______ _______ _____ _____    ______ ____
ROOT
ATOM      1  N   UNL     1       7.258   0.013  23.499  0.00  0.00    -0.298 N 
ATOM      2  H   UNL     1       6.776   0.185  24.372  0.00  0.00    +0.150 HD
ATOM      3  C   UNL     1       7.841  -1.225  23.319  0.00  0.00    +0.250 C 
ATOM      4  O   UNL     1       8.251  -1.571  22.216  0.00  0.00    -0.270 OA
ENDROOT
BRANCH   1   6
ATOM      5  C   UNL     1       6.228   2.220  22.631  0.00  0.00    +0.165 C 
ATOM      6  CA  UNL     1       7.007   0.910  22.336  0.00  0.00    +0.190 C 
ATOM      7  C   UNL     1       8.158   1.862  21.932  0.00  0.00    +0.240 C 
ATOM      8  O   UNL     1       9.354   1.780  21.779  0.00  0.00    -0.273 OA
ATOM      9  N   UNL     1       7.355   2.970  22.032  0.00  0.00    -0.271 N 
ATOM     10  CA  UNL     1       7.825   4.156  22.777  0.00  0.00    +0.201 C 
ATOM     11  C   UNL     1       7.644   3.848  24.285  0.00  0.00    +0.042 C 
ATOM     12  C   UNL     1       8.827   3.036  24.852  0.00  0.00    +0.025 C 
ATOM     13  C   UNL     1       7.468   5.064  25.201  0.00  0.00    +0.025 C 
ATOM     14  S   UNL     1       6.140   2.774  24.383  0.00  0.00    -0.127 S 
BRANCH  10  15
ATOM     15  C   UNL     1       7.059   5.384  22.250  0.00  0.00    +0.327 C 
ATOM     16  OXT UNL     1       5.877   5.614  22.457  0.00  0.00    -0.249 OA
BRANCH  15  17
ATOM     17  O   UNL     1       7.845   6.272  21.587  0.00  0.00    -0.479 OA
ATOM     18  H   UNL     1       8.556   6.603  22.173  0.00  0.00    +0.295 HD
ENDBRANCH  15  17
ENDBRANCH  10  15
ENDBRANCH   1   6
BRANCH   3  19
ATOM     19  C   UNL     1       7.892  -2.073  24.492  0.00  0.00    +0.106 A 
ATOM     20  C   UNL     1       7.492  -3.450  24.647  0.00  0.00    +0.126 A 
ATOM     21  N   UNL     1       7.745  -3.860  25.901  0.00  0.00    -0.077 NA
ATOM     22  O   UNL     1       8.305  -2.807  26.564  0.00  0.00    -0.359 OA
ATOM     23  C   UNL     1       8.408  -1.741  25.736  0.00  0.00    +0.147 A 
ATOM     24  C   UNL     1       9.053  -0.559  26.346  0.00  0.00    +0.090 C 
BRANCH  20  25
ATOM     25  C   UNL     1       6.875  -4.395  23.701  0.00  0.00    +0.004 A 
ATOM     26  C   UNL     1       5.473  -4.525  23.665  0.00  0.00    +0.010 A 
ATOM     27  C   UNL     1       4.846  -5.374  22.747  0.00  0.00    +0.001 A 
ATOM     28  C   UNL     1       5.612  -6.112  21.851  0.00  0.00    +0.000 A 
ATOM     29  C   UNL     1       7.000  -5.998  21.871  0.00  0.00    +0.001 A 
ATOM     30  C   UNL     1       7.627  -5.138  22.783  0.00  0.00    +0.010 A 
ENDBRANCH  20  25
ENDBRANCH   3  19
TORSDOF 5
ENDMDL
MODEL 5
REMARK VINA RESULT:      -7.2      2.403      3.369
REMARK  Name = 
REMARK  8 active torsions:
REMARK  status: ('A' for Active; 'I' for Inactive)
REMARK    1  A    between atoms: C_4  and  C_5
REMARK    2  A    between atoms: C_4  and  C_6
REMARK    3  A    between atoms: CA_7  and  C_29
REMARK    4  A    between atoms: CA_12  and  N_14
REMARK    5  A    between atoms: C_15  and  C_17
REMARK    6  A    between atoms: C_18  and  C_19
REMARK    7  A    between atoms: C_22  and  C_23
REMARK    8  A    between atoms: C_29  and  O_30
REMARK                            x       y       z     vdW  Elec       q    Type
REMARK                         _______ _______ _______ _____ _____    ______ ____
ROOT
ATOM      1  N   UNL     1       7.561  -3.039  26.462  0.00  0.00    -0.298 N 
ATOM      2  H   UNL     1       6.716  -2.740  25.992  0.00  0.00    +0.150 HD
ATOM      3  C   UNL     1       7.704  -4.385  26.736  0.00  0.00    +0.250 C 
ATOM      4  O   UNL     1       8.782  -4.839  27.105  0.00  0.00    -0.270 OA
ENDROOT
BRANCH   1   6
ATOM      5  C   UNL     1       9.207  -1.555  25.131  0.00  0.00    +0.165 C 
ATOM      6  CA  UNL     1       8.740  -2.130  26.495  0.00  0.00    +0.190 C 
ATOM      7  C   UNL     1       8.466  -0.649  26.855  0.00  0.00    +0.240 C 
ATOM      8  O   UNL     1       7.815  -0.052  27.679  0.00  0.00    -0.273 OA
ATOM      9  N   UNL     1       9.066  -0.199  25.707  0.00  0.00    -0.271 N 
ATOM     10  CA  UNL     1       8.383   0.805  24.863  0.00  0.00    +0.201 C 
ATOM     11  C   UNL     1       7.303   0.053  24.045  0.00  0.00    +0.042 C 
ATOM     12  C   UNL     1       6.001  -0.141  24.850  0.00  0.00    +0.025 C 
ATOM     13  C   UNL     1       6.902   0.697  22.713  0.00  0.00    +0.025 C 
ATOM     14  S   UNL     1       8.014  -1.627  23.733  0.00  0.00    -0.127 S 
BRANCH  10  15
ATOM     15  C   UNL     1       9.453   1.543  24.038  0.00  0.00    +0.327 C 
ATOM     16  OXT UNL     1      10.289   1.000  23.332  0.00  0.00    -0.249 OA
BRANCH  15  17
ATOM     17  O   UNL     1       9.340   2.896  24.086  0.00  0.00    -0.479 OA
ATOM     18  H   UNL     1       8.398   3.160  24.074  0.00  0.00    +0.295 HD
ENDBRANCH  15  17
ENDBRANCH  10  15
ENDBRANCH   1   6
BRANCH   3  19
ATOM     19  C   UNL     1       6.525  -5.199  26.520  0.00  0.00    +0.106 A 
ATOM     20  C   UNL     1       5.782  -5.433  25.307  0.00  0.00    +0.126 A 
ATOM     21  N   UNL     1       4.772  -6.286  25.548  0.00  0.00    -0.077 NA
ATOM     22  O   UNL     1       4.838  -6.625  26.869  0.00  0.00    -0.359 OA
ATOM     23  C   UNL     1       5.881  -5.993  27.456  0.00  0.00    +0.147 A 
ATOM     24  C   UNL     1       6.072  -6.335  28.882  0.00  0.00    +0.090 C 
BRANCH  20  25
ATOM     25  C   UNL     1       5.948  -4.896  23.945  0.00  0.00    +0.004 A 
ATOM     26  C   UNL     1       6.865  -5.505  23.065  0.00  0.00    +0.010 A 
ATOM     27  C   UNL     1       7.014  -5.057  21.749  0.00  0.00    +0.001 A 
ATOM     28  C   UNL     1       6.253  -3.987  21.291  0.00  0.00    +0.000 A 
ATOM     29  C   UNL     1       5.341  -3.372  22.145  0.00  0.00    +0.001 A 
ATOM     30  C   UNL     1       5.182  -3.829  23.460  0.00  0.00    +0.010 A 
ENDBRANCH  20  25
ENDBRANCH   3  19
TORSDOF 5
ENDMDL
MODEL 6
REMARK VINA RESULT:      -7.1      2.209      3.284
REMARK  Name = 
REMARK  8 active torsions:
REMARK  status: ('A' for Active; 'I' for Inactive)
REMARK    1  A    between atoms: C_4  and  C_5
REMARK    2  A    between atoms: C_4  and  C_6
REMARK    3  A    between atoms: CA_7  and  C_29
REMARK    4  A    between atoms: CA_12  and  N_14
REMARK    5  A    between atoms: C_15  and  C_17
REMARK    6  A    between atoms: C_18  and  C_19
REMARK    7  A    between atoms: C_22  and  C_23
REMARK    8  A    between atoms: C_29  and  O_30
REMARK                            x       y       z     vdW  Elec       q    Type
REMARK                         _______ _______ _______ _____ _____    ______ ____
ROOT
ATOM      1  N   UNL     1       7.986  -3.273  24.245  0.00  0.00    -0.298 N 
ATOM      2  H   UNL     1       7.153  -2.832  23.877  0.00  0.00    +0.150 HD
ATOM      3  C   UNL     1       8.034  -4.652  24.253  0.00  0.00    +0.250 C 
ATOM      4  O   UNL     1       9.084  -5.243  24.483  0.00  0.00    -0.270 OA
ENDROOT
BRANCH   1   6
ATOM      5  C   UNL     1       9.534  -1.443  23.277  0.00  0.00    +0.165 C 
ATOM      6  CA  UNL     1       9.231  -2.471  24.400  0.00  0.00    +0.190 C 
ATOM      7  C   UNL     1       9.145  -1.223  25.312  0.00  0.00    +0.240 C 
ATOM      8  O   UNL     1       8.681  -0.958  26.397  0.00  0.00    -0.273 OA
ATOM      9  N   UNL     1       9.600  -0.393  24.319  0.00  0.00    -0.271 N 
ATOM     10  CA  UNL     1       8.887   0.868  24.028  0.00  0.00    +0.201 C 
ATOM     11  C   UNL     1       7.634   0.501  23.194  0.00  0.00    +0.042 C 
ATOM     12  C   UNL     1       6.458   0.054  24.087  0.00  0.00    +0.025 C 
ATOM     13  C   UNL     1       7.094   1.603  22.276  0.00  0.00    +0.025 C 
ATOM     14  S   UNL     1       8.141  -0.960  22.177  0.00  0.00    -0.127 S 
BRANCH  10  15
ATOM     15  C   UNL     1       9.880   1.832  23.353  0.00  0.00    +0.327 C 
ATOM     16  OXT UNL     1      10.426   1.636  22.278  0.00  0.00    -0.249 OA
BRANCH  15  17
ATOM     17  O   UNL     1      10.044   3.003  24.024  0.00  0.00    -0.479 OA
ATOM     18  H   UNL     1      10.791   2.935  24.652  0.00  0.00    +0.295 HD
ENDBRANCH  15  17
ENDBRANCH  10  15
ENDBRANCH   1   6
BRANCH   3  19
ATOM     19  C   UNL     1       6.791  -5.327  23.937  0.00  0.00    +0.106 A 
ATOM     20  C   UNL     1       5.684  -5.660  24.799  0.00  0.00    +0.126 A 
ATOM     21  N   UNL     1       4.713  -6.255  24.086  0.00  0.00    -0.077 NA
ATOM     22  O   UNL     1       5.142  -6.311  22.791  0.00  0.00    -0.359 OA
ATOM     23  C   UNL     1       6.371  -5.753  22.686  0.00  0.00    +0.147 A 
ATOM     24  C   UNL     1       6.905  -5.716  21.308  0.00  0.00    +0.090 C 
BRANCH  20  25
ATOM     25  C   UNL     1       5.487  -5.472  26.247  0.00  0.00    +0.004 A 
ATOM     26  C   UNL     1       5.335  -6.598  27.080  0.00  0.00    +0.010 A 
ATOM     27  C   UNL     1       5.198  -6.462  28.465  0.00  0.00    +0.001 A 
ATOM     28  C   UNL     1       5.205  -5.197  29.042  0.00  0.00    +0.000 A 
ATOM     29  C   UNL     1       5.354  -4.071  28.235  0.00  0.00    +0.001 A 
ATOM     30  C   UNL     1       5.504  -4.208  26.849  0.00  0.00    +0.010 A 
ENDBRANCH  20  25
ENDBRANCH   3  19
TORSDOF 5
ENDMDL
MODEL 7
REMARK VINA RESULT:      -7.0      4.016      8.267
REMARK  Name = 
REMARK  8 active torsions:
REMARK  status: ('A' for Active; 'I' for Inactive)
REMARK    1  A    between atoms: C_4  and  C_5
REMARK    2  A    between atoms: C_4  and  C_6
REMARK    3  A    between atoms: CA_7  and  C_29
REMARK    4  A    between atoms: CA_12  and  N_14
REMARK    5  A    between atoms: C_15  and  C_17
REMARK    6  A    between atoms: C_18  and  C_19
REMARK    7  A    between atoms: C_22  and  C_23
REMARK    8  A    between atoms: C_29  and  O_30
REMARK                            x       y       z     vdW  Elec       q    Type
REMARK                         _______ _______ _______ _____ _____    ______ ____
ROOT
ATOM      1  N   UNL     1       7.732   2.750  25.630  0.00  0.00    -0.298 N 
ATOM      2  H   UNL     1       8.555   2.259  25.954  0.00  0.00    +0.150 HD
ATOM      3  C   UNL     1       7.872   3.599  24.551  0.00  0.00    +0.250 C 
ATOM      4  O   UNL     1       6.887   4.055  23.980  0.00  0.00    -0.270 OA
ENDROOT
BRANCH   1   6
ATOM      5  C   UNL     1       5.846   1.005  25.343  0.00  0.00    +0.165 C 
ATOM      6  CA  UNL     1       6.384   2.277  26.053  0.00  0.00    +0.190 C 
ATOM      7  C   UNL     1       6.323   1.406  27.331  0.00  0.00    +0.240 C 
ATOM      8  O   UNL     1       6.805   1.437  28.439  0.00  0.00    -0.273 OA
ATOM      9  N   UNL     1       5.675   0.389  26.678  0.00  0.00    -0.271 N 
ATOM     10  CA  UNL     1       6.152  -1.003  26.825  0.00  0.00    +0.201 C 
ATOM     11  C   UNL     1       7.392  -1.159  25.909  0.00  0.00    +0.042 C 
ATOM     12  C   UNL     1       8.680  -0.656  26.593  0.00  0.00    +0.025 C 
ATOM     13  C   UNL     1       7.685  -2.579  25.413  0.00  0.00    +0.025 C 
ATOM     14  S   UNL     1       7.068  -0.051  24.462  0.00  0.00    -0.127 S 
BRANCH  10  15
ATOM     15  C   UNL     1       4.973  -1.945  26.519  0.00  0.00    +0.327 C 
ATOM     16  OXT UNL     1       4.234  -1.850  25.551  0.00  0.00    -0.249 OA
BRANCH  15  17
ATOM     17  O   UNL     1       4.865  -2.982  27.390  0.00  0.00    -0.479 OA
ATOM     18  H   UNL     1       5.591  -2.954  28.046  0.00  0.00    +0.295 HD
ENDBRANCH  15  17
ENDBRANCH  10  15
ENDBRANCH   1   6
BRANCH   3  19
ATOM     19  C   UNL     1       9.233   3.868  24.134  0.00  0.00    +0.106 A 
ATOM     20  C   UNL     1      10.174   3.004  23.465  0.00  0.00    +0.126 A 
ATOM     21  N   UNL     1      11.319   3.670  23.233  0.00  0.00    -0.077 NA
ATOM     22  O   UNL     1      11.152   4.936  23.716  0.00  0.00    -0.359 OA
ATOM     23  C   UNL     1       9.914   5.070  24.245  0.00  0.00    +0.147 A 
ATOM     24  C   UNL     1       9.614   6.427  24.749  0.00  0.00    +0.090 C 
BRANCH  20  25
ATOM     25  C   UNL     1      10.074   1.595  23.046  0.00  0.00    +0.004 A 
ATOM     26  C   UNL     1       9.458   1.277  21.820  0.00  0.00    +0.010 A 
ATOM     27  C   UNL     1       9.390  -0.043  21.364  0.00  0.00    +0.001 A 
ATOM     28  C   UNL     1       9.932  -1.070  22.129  0.00  0.00    +0.000 A 
ATOM     29  C   UNL     1      10.545  -0.776  23.345  0.00  0.00    +0.001 A 
ATOM     30  C   UNL     1      10.625   0.549  23.796  0.00  0.00    +0.010 A 
ENDBRANCH  20  25
ENDBRANCH   3  19
TORSDOF 5
ENDMDL
MODEL 8
REMARK VINA RESULT:      -7.0      2.551      2.924
REMARK  Name = 
REMARK  8 active torsions:
REMARK  status: ('A' for Active; 'I' for Inactive)
REMARK    1  A    between atoms: C_4  and  C_5
REMARK    2  A    between atoms: C_4  and  C_6
REMARK    3  A    between atoms: CA_7  and  C_29
REMARK    4  A    between atoms: CA_12  and  N_14
REMARK    5  A    between atoms: C_15  and  C_17
REMARK    6  A    between atoms: C_18  and  C_19
REMARK    7  A    between atoms: C_22  and  C_23
REMARK    8  A    between atoms: C_29  and  O_30
REMARK                            x       y       z     vdW  Elec       q    Type
REMARK                         _______ _______ _______ _____ _____    ______ ____
ROOT
ATOM      1  N   UNL     1       6.710  -2.480  25.310  0.00  0.00    -0.298 N 
ATOM      2  H   UNL     1       7.264  -2.195  26.108  0.00  0.00    +0.150 HD
ATOM      3  C   UNL     1       6.133  -3.733  25.342  0.00  0.00    +0.250 C 
ATOM      4  O   UNL     1       5.285  -4.054  24.515  0.00  0.00    -0.270 OA
ENDROOT
BRANCH   1   6
ATOM      5  C   UNL     1       6.843  -0.029  24.496  0.00  0.00    +0.165 C 
ATOM      6  CA  UNL     1       6.235  -1.450  24.345  0.00  0.00    +0.190 C 
ATOM      7  C   UNL     1       6.917  -1.431  22.956  0.00  0.00    +0.240 C 
ATOM      8  O   UNL     1       7.244  -2.247  22.127  0.00  0.00    -0.273 OA
ATOM      9  N   UNL     1       7.263  -0.109  23.079  0.00  0.00    -0.271 N 
ATOM     10  CA  UNL     1       8.644   0.322  22.776  0.00  0.00    +0.201 C 
ATOM     11  C   UNL     1       9.517  -0.055  24.000  0.00  0.00    +0.042 C 
ATOM     12  C   UNL     1       9.976  -1.527  23.948  0.00  0.00    +0.025 C 
ATOM     13  C   UNL     1      10.778   0.791  24.210  0.00  0.00    +0.025 C 
ATOM     14  S   UNL     1       8.400   0.123  25.465  0.00  0.00    -0.127 S 
BRANCH  10  15
ATOM     15  C   UNL     1       8.608   1.819  22.417  0.00  0.00    +0.327 C 
ATOM     16  OXT UNL     1       8.004   2.676  23.046  0.00  0.00    -0.249 OA
BRANCH  15  17
ATOM     17  O   UNL     1       9.398   2.145  21.361  0.00  0.00    -0.479 OA
ATOM     18  H   UNL     1       9.679   1.338  20.884  0.00  0.00    +0.295 HD
ENDBRANCH  15  17
ENDBRANCH  10  15
ENDBRANCH   1   6
BRANCH   3  19
ATOM     19  C   UNL     1       6.564  -4.598  26.421  0.00  0.00    +0.106 A 
ATOM     20  C   UNL     1       5.830  -5.065  27.571  0.00  0.00    +0.126 A 
ATOM     21  N   UNL     1       6.605  -5.881  28.306  0.00  0.00    -0.077 NA
ATOM     22  O   UNL     1       7.810  -5.971  27.671  0.00  0.00    -0.359 OA
ATOM     23  C   UNL     1       7.796  -5.221  26.544  0.00  0.00    +0.147 A 
ATOM     24  C   UNL     1       9.043  -5.294  25.752  0.00  0.00    +0.090 C 
BRANCH  20  25
ATOM     25  C   UNL     1       4.460  -4.781  28.031  0.00  0.00    +0.004 A 
ATOM     26  C   UNL     1       4.260  -3.920  29.128  0.00  0.00    +0.010 A 
ATOM     27  C   UNL     1       2.973  -3.586  29.562  0.00  0.00    +0.001 A 
ATOM     28  C   UNL     1       1.863  -4.113  28.911  0.00  0.00    +0.000 A 
ATOM     29  C   UNL     1       2.040  -4.967  27.825  0.00  0.00    +0.001 A 
ATOM     30  C   UNL     1       3.329  -5.291  27.382  0.00  0.00    +0.010 A 
ENDBRANCH  20  25
ENDBRANCH   3  19
TORSDOF 5
ENDMDL
MODEL 9
REMARK VINA RESULT:      -7.0      2.226      8.225
REMARK  Name = 
REMARK  8 active torsions:
REMARK  status: ('A' for Active; 'I' for Inactive)
REMARK    1  A    between atoms: C_4  and  C_5
REMARK    2  A    between atoms: C_4  and  C_6
REMARK    3  A    between atoms: CA_7  and  C_29
REMARK    4  A    between atoms: CA_12  and  N_14
REMARK    5  A    between atoms: C_15  and  C_17
REMARK    6  A    between atoms: C_18  and  C_19
REMARK    7  A    between atoms: C_22  and  C_23
REMARK    8  A    between atoms: C_29  and  O_30
REMARK                            x       y       z     vdW  Elec       q    Type
REMARK                         _______ _______ _______ _____ _____    ______ ____
ROOT
ATOM      1  N   UNL     1       7.956  -1.449  24.936  0.00  0.00    -0.298 N 
ATOM      2  H   UNL     1       7.382  -1.511  24.105  0.00  0.00    +0.150 HD
ATOM      3  C   UNL     1       8.957  -0.498  24.958  0.00  0.00    +0.250 C 
ATOM      4  O   UNL     1       9.543  -0.228  26.001  0.00  0.00    -0.270 OA
ENDROOT
BRANCH   1   6
ATOM      5  C   UNL     1       6.082  -2.746  26.157  0.00  0.00    +0.165 C 
ATOM      6  CA  UNL     1       7.485  -2.082  26.199  0.00  0.00    +0.190 C 
ATOM      7  C   UNL     1       7.989  -3.517  26.488  0.00  0.00    +0.240 C 
ATOM      8  O   UNL     1       9.044  -4.106  26.430  0.00  0.00    -0.273 OA
ATOM      9  N   UNL     1       6.713  -4.002  26.622  0.00  0.00    -0.271 N 
ATOM     10  CA  UNL     1       6.316  -5.238  25.917  0.00  0.00    +0.201 C 
ATOM     11  C   UNL     1       6.050  -4.854  24.439  0.00  0.00    +0.042 C 
ATOM     12  C   UNL     1       7.352  -4.812  23.612  0.00  0.00    +0.025 C 
ATOM     13  C   UNL     1       5.075  -5.757  23.676  0.00  0.00    +0.025 C 
ATOM     14  S   UNL     1       5.380  -3.130  24.500  0.00  0.00    -0.127 S 
BRANCH  10  15
ATOM     15  C   UNL     1       5.124  -5.856  26.671  0.00  0.00    +0.327 C 
ATOM     16  OXT UNL     1       4.081  -5.274  26.929  0.00  0.00    -0.249 OA
BRANCH  15  17
ATOM     17  O   UNL     1       5.288  -7.172  26.963  0.00  0.00    -0.479 OA
ATOM     18  H   UNL     1       6.089  -7.523  26.523  0.00  0.00    +0.295 HD
ENDBRANCH  15  17
ENDBRANCH  10  15
ENDBRANCH   1   6
BRANCH   3  19
ATOM     19  C   UNL     1       9.224   0.163  23.697  0.00  0.00    +0.106 A 
ATOM     20  C   UNL     1       9.226   1.570  23.381  0.00  0.00    +0.126 A 
ATOM     21  N   UNL     1       9.562   1.747  22.092  0.00  0.00    -0.077 NA
ATOM     22  O   UNL     1       9.790   0.511  21.561  0.00  0.00    -0.359 OA
ATOM     23  C   UNL     1       9.602  -0.440  22.506  0.00  0.00    +0.147 A 
ATOM     24  C   UNL     1       9.877  -1.817  22.044  0.00  0.00    +0.090 C 
BRANCH  20  25
ATOM     25  C   UNL     1       8.917   2.751  24.204  0.00  0.00    +0.004 A 
ATOM     26  C   UNL     1       9.596   3.962  23.964  0.00  0.00    +0.010 A 
ATOM     27  C   UNL     1       9.295   5.119  24.690  0.00  0.00    +0.001 A 
ATOM     28  C   UNL     1       8.312   5.084  25.673  0.00  0.00    +0.000 A 
ATOM     29  C   UNL     1       7.629   3.897  25.926  0.00  0.00    +0.001 A 
ATOM     30  C   UNL     1       7.922   2.741  25.190  0.00  0.00    +0.010 A 
ENDBRANCH  20  25
ENDBRANCH   3  19
TORSDOF 5
ENDMDL
