MODEL 1
REMARK VINA RESULT:      -8.0      0.000      0.000
REMARK  Name = 
REMARK  7 active torsions:
REMARK  status: ('A' for Active; 'I' for Inactive)
REMARK    1  A    between atoms: C_1  and  N_2
REMARK    2  A    between atoms: C_3  and  C_5
REMARK    3  A    between atoms: C_9  and  O_10
REMARK    4  A    between atoms: O_10  and  C_11
REMARK    5  A    between atoms: C_14  and  N_15
REMARK    6  A    between atoms: N_18  and  C_19
REMARK    7  A    between atoms: C_21  and  C_26
REMARK                            x       y       z     vdW  Elec       q    Type
REMARK                         _______ _______ _______ _____ _____    ______ ____
ROOT
ATOM      1  C   UNL     1      10.482   2.170  23.335  0.00  0.00    +0.129 A 
ATOM      2  C   UNL     1      10.641   1.214  24.338  0.00  0.00    +0.048 A 
ATOM      3  C   UNL     1      10.328  -0.132  24.085  0.00  0.00    +0.027 A 
ATOM      4  C   UNL     1       9.871  -0.529  22.823  0.00  0.00    +0.035 A 
ATOM      5  C   UNL     1       9.765   0.434  21.814  0.00  0.00    +0.027 A 
ATOM      6  C   UNL     1      10.107   1.764  22.054  0.00  0.00    +0.048 A 
ENDROOT
BRANCH   4   7
ATOM      7  N   UNL     1       9.487  -1.873  22.621  0.00  0.00    -0.269 N 
ATOM      8  H   UNL     1      10.054  -2.436  21.999  0.00  0.00    +0.156 HD
ATOM      9  C   UNL     1       8.258  -2.399  22.965  0.00  0.00    +0.308 C 
ATOM     10  N   UNL     1       8.281  -3.788  22.988  0.00  0.00    -0.269 N 
ATOM     11  H   UNL     1       9.154  -4.169  23.323  0.00  0.00    +0.156 HD
ATOM     12  O   UNL     1       7.263  -1.739  23.252  0.00  0.00    -0.252 OA
BRANCH  10  13
ATOM     13  C   UNL     1       7.111  -4.537  23.236  0.00  0.00    +0.035 A 
ATOM     14  C   UNL     1       6.270  -4.938  22.197  0.00  0.00    +0.025 A 
ATOM     15  C   UNL     1       5.122  -5.682  22.469  0.00  0.00    +0.022 A 
ATOM     16  C   UNL     1       4.795  -6.013  23.787  0.00  0.00    +0.053 A 
ATOM     17 CL   UNL     1       3.362  -6.938  24.043  0.00  0.00    -0.083 Cl
ATOM     18  C   UNL     1       5.615  -5.605  24.844  0.00  0.00    +0.075 A 
ATOM     19  C   UNL     1       6.796  -4.883  24.552  0.00  0.00    +0.037 A 
BRANCH  18  20
ATOM     20  C   UNL     1       5.258  -5.899  26.275  0.00  0.00    +0.419 C 
ATOM     21  F   UNL     1       6.220  -5.499  27.152  0.00  0.00    -0.166 F 
ATOM     22  F   UNL     1       5.035  -7.219  26.519  0.00  0.00    -0.166 F 
ATOM     23  F   UNL     1       4.119  -5.263  26.680  0.00  0.00    -0.166 F 
ENDBRANCH  18  20
ENDBRANCH  10  13
ENDBRANCH   4   7
BRANCH   1  24
ATOM     24  O   UNL     1      10.721   3.488  23.664  0.00  0.00    -0.456 OA
BRANCH  24  27
ATOM     25  C   UNL     1       7.336   4.933  23.713  0.00  0.00    +0.129 A 
ATOM     26  C   UNL     1       8.323   3.962  23.789  0.00  0.00    +0.079 A 
ATOM     27  C   UNL     1       9.651   4.363  23.688  0.00  0.00    +0.132 A 
ATOM     28  C   UNL     1       9.948   5.721  23.627  0.00  0.00    +0.066 A 
ATOM     29  C   UNL     1       8.895   6.625  23.605  0.00  0.00    +0.115 A 
ATOM     30  N   UNL     1       7.591   6.268  23.624  0.00  0.00    -0.250 NA
BRANCH  25  34
ATOM     31  C   UNL     1       4.140   3.479  22.309  0.00  0.00    +0.128 C 
ATOM     32  N   UNL     1       5.479   3.975  22.472  0.00  0.00    -0.313 N 
ATOM     33  H   UNL     1       6.170   3.892  21.731  0.00  0.00    +0.149 HD
ATOM     34  C   UNL     1       5.905   4.497  23.674  0.00  0.00    +0.262 C 
ATOM     35  O   UNL     1       5.184   4.590  24.662  0.00  0.00    -0.269 OA
ENDBRANCH  25  34
ENDBRANCH  24  27
ENDBRANCH   1  24
TORSDOF 6
ENDMDL
MODEL 2
REMARK VINA RESULT:      -7.9      5.625     10.150
REMARK  Name = 
REMARK  7 active torsions:
REMARK  status: ('A' for Active; 'I' for Inactive)
REMARK    1  A    between atoms: C_1  and  N_2
REMARK    2  A    between atoms: C_3  and  C_5
REMARK    3  A    between atoms: C_9  and  O_10
REMARK    4  A    between atoms: O_10  and  C_11
REMARK    5  A    between atoms: C_14  and  N_15
REMARK    6  A    between atoms: N_18  and  C_19
REMARK    7  A    between atoms: C_21  and  C_26
REMARK                            x       y       z     vdW  Elec       q    Type
REMARK                         _______ _______ _______ _____ _____    ______ ____
ROOT
ATOM      1  C   UNL     1       7.663  -4.563  23.792  0.00  0.00    +0.129 A 
ATOM      2  C   UNL     1       7.279  -3.852  22.655  0.00  0.00    +0.048 A 
ATOM      3  C   UNL     1       7.982  -2.697  22.274  0.00  0.00    +0.027 A 
ATOM      4  C   UNL     1       9.082  -2.258  23.021  0.00  0.00    +0.035 A 
ATOM      5  C   UNL     1       9.484  -3.010  24.129  0.00  0.00    +0.027 A 
ATOM      6  C   UNL     1       8.807  -4.175  24.489  0.00  0.00    +0.048 A 
ENDROOT
BRANCH   4   7
ATOM      7  N   UNL     1       9.720  -1.050  22.662  0.00  0.00    -0.269 N 
ATOM      8  H   UNL     1      10.528  -1.107  22.054  0.00  0.00    +0.156 HD
ATOM      9  C   UNL     1       9.518   0.161  23.290  0.00  0.00    +0.308 C 
ATOM     10  N   UNL     1       9.982   1.223  22.524  0.00  0.00    -0.269 N 
ATOM     11  H   UNL     1       9.847   1.090  21.532  0.00  0.00    +0.156 HD
ATOM     12  O   UNL     1       8.967   0.309  24.379  0.00  0.00    -0.252 OA
BRANCH  10  13
ATOM     13  C   UNL     1       9.950   2.548  23.009  0.00  0.00    +0.035 A 
ATOM     14  C   UNL     1       8.752   3.154  23.391  0.00  0.00    +0.025 A 
ATOM     15  C   UNL     1       8.748   4.464  23.870  0.00  0.00    +0.022 A 
ATOM     16  C   UNL     1       9.942   5.185  23.952  0.00  0.00    +0.053 A 
ATOM     17 CL   UNL     1       9.858   6.798  24.559  0.00  0.00    -0.083 Cl
ATOM     18  C   UNL     1      11.151   4.602  23.557  0.00  0.00    +0.075 A 
ATOM     19  C   UNL     1      11.147   3.261  23.107  0.00  0.00    +0.037 A 
BRANCH  18  20
ATOM     20  C   UNL     1      12.441   5.374  23.582  0.00  0.00    +0.419 C 
ATOM     21  F   UNL     1      12.501   6.332  22.616  0.00  0.00    -0.166 F 
ATOM     22  F   UNL     1      13.544   4.593  23.422  0.00  0.00    -0.166 F 
ATOM     23  F   UNL     1      12.641   6.038  24.759  0.00  0.00    -0.166 F 
ENDBRANCH  18  20
ENDBRANCH  10  13
ENDBRANCH   4   7
BRANCH   1  24
ATOM     24  O   UNL     1       6.884  -5.637  24.168  0.00  0.00    -0.456 OA
BRANCH  24  27
ATOM     25  C   UNL     1       3.212  -5.620  23.921  0.00  0.00    +0.129 A 
ATOM     26  C   UNL     1       4.520  -5.983  23.638  0.00  0.00    +0.079 A 
ATOM     27  C   UNL     1       5.539  -5.424  24.403  0.00  0.00    +0.132 A 
ATOM     28  C   UNL     1       5.210  -4.616  25.487  0.00  0.00    +0.066 A 
ATOM     29  C   UNL     1       3.869  -4.346  25.724  0.00  0.00    +0.115 A 
ATOM     30  N   UNL     1       2.856  -4.809  24.956  0.00  0.00    -0.250 NA
BRANCH  25  34
ATOM     31  C   UNL     1       1.179  -8.034  21.838  0.00  0.00    +0.128 C 
ATOM     32  N   UNL     1       2.185  -7.433  22.670  0.00  0.00    -0.313 N 
ATOM     33  H   UNL     1       2.929  -7.986  23.086  0.00  0.00    +0.149 HD
ATOM     34  C   UNL     1       2.124  -6.100  23.012  0.00  0.00    +0.262 C 
ATOM     35  O   UNL     1       1.237  -5.344  22.627  0.00  0.00    -0.269 OA
ENDBRANCH  25  34
ENDBRANCH  24  27
ENDBRANCH   1  24
TORSDOF 6
ENDMDL
MODEL 3
REMARK VINA RESULT:      -7.8      1.301      1.909
REMARK  Name = 
REMARK  7 active torsions:
REMARK  status: ('A' for Active; 'I' for Inactive)
REMARK    1  A    between atoms: C_1  and  N_2
REMARK    2  A    between atoms: C_3  and  C_5
REMARK    3  A    between atoms: C_9  and  O_10
REMARK    4  A    between atoms: O_10  and  C_11
REMARK    5  A    between atoms: C_14  and  N_15
REMARK    6  A    between atoms: N_18  and  C_19
REMARK    7  A    between atoms: C_21  and  C_26
REMARK                            x       y       z     vdW  Elec       q    Type
REMARK                         _______ _______ _______ _____ _____    ______ ____
ROOT
ATOM      1  C   UNL     1      10.593   2.311  23.224  0.00  0.00    +0.129 A 
ATOM      2  C   UNL     1      10.863   1.494  24.322  0.00  0.00    +0.048 A 
ATOM      3  C   UNL     1      10.536   0.128  24.281  0.00  0.00    +0.027 A 
ATOM      4  C   UNL     1       9.952  -0.428  23.137  0.00  0.00    +0.035 A 
ATOM      5  C   UNL     1       9.734   0.395  22.027  0.00  0.00    +0.027 A 
ATOM      6  C   UNL     1      10.089   1.743  22.054  0.00  0.00    +0.048 A 
ENDROOT
BRANCH   4   7
ATOM      7  N   UNL     1       9.559  -1.784  23.154  0.00  0.00    -0.269 N 
ATOM      8  H   UNL     1       9.840  -2.366  22.374  0.00  0.00    +0.156 HD
ATOM      9  C   UNL     1       8.592  -2.311  23.986  0.00  0.00    +0.308 C 
ATOM     10  N   UNL     1       8.663  -3.697  24.044  0.00  0.00    -0.269 N 
ATOM     11  H   UNL     1       9.608  -4.053  24.007  0.00  0.00    +0.156 HD
ATOM     12  O   UNL     1       7.781  -1.653  24.632  0.00  0.00    -0.252 OA
BRANCH  10  13
ATOM     13  C   UNL     1       7.718  -4.451  24.773  0.00  0.00    +0.035 A 
ATOM     14  C   UNL     1       7.937  -4.797  26.107  0.00  0.00    +0.025 A 
ATOM     15  C   UNL     1       6.986  -5.540  26.806  0.00  0.00    +0.022 A 
ATOM     16  C   UNL     1       5.816  -5.960  26.169  0.00  0.00    +0.053 A 
ATOM     17 CL   UNL     1       4.684  -6.871  27.100  0.00  0.00    -0.083 Cl
ATOM     18  C   UNL     1       5.586  -5.639  24.826  0.00  0.00    +0.075 A 
ATOM     19  C   UNL     1       6.541  -4.855  24.139  0.00  0.00    +0.037 A 
BRANCH  18  20
ATOM     20  C   UNL     1       4.362  -6.126  24.100  0.00  0.00    +0.419 C 
ATOM     21  F   UNL     1       4.392  -5.844  22.768  0.00  0.00    -0.166 F 
ATOM     22  F   UNL     1       3.201  -5.604  24.581  0.00  0.00    -0.166 F 
ATOM     23  F   UNL     1       4.203  -7.481  24.176  0.00  0.00    -0.166 F 
ENDBRANCH  18  20
ENDBRANCH  10  13
ENDBRANCH   4   7
BRANCH   1  24
ATOM     24  O   UNL     1      10.855   3.659  23.350  0.00  0.00    -0.456 OA
BRANCH  24  27
ATOM     25  C   UNL     1       7.485   5.080  23.757  0.00  0.00    +0.129 A 
ATOM     26  C   UNL     1       8.464   4.109  23.620  0.00  0.00    +0.079 A 
ATOM     27  C   UNL     1       9.794   4.517  23.569  0.00  0.00    +0.132 A 
ATOM     28  C   UNL     1      10.101   5.859  23.767  0.00  0.00    +0.066 A 
ATOM     29  C   UNL     1       9.055   6.754  23.945  0.00  0.00    +0.115 A 
ATOM     30  N   UNL     1       7.749   6.406  23.924  0.00  0.00    -0.250 NA
BRANCH  25  34
ATOM     31  C   UNL     1       4.352   3.554  22.289  0.00  0.00    +0.128 C 
ATOM     32  N   UNL     1       5.688   4.040  22.491  0.00  0.00    -0.313 N 
ATOM     33  H   UNL     1       6.423   3.876  21.808  0.00  0.00    +0.149 HD
ATOM     34  C   UNL     1       6.049   4.666  23.665  0.00  0.00    +0.262 C 
ATOM     35  O   UNL     1       5.269   4.863  24.592  0.00  0.00    -0.269 OA
ENDBRANCH  25  34
ENDBRANCH  24  27
ENDBRANCH   1  24
TORSDOF 6
ENDMDL
MODEL 4
REMARK VINA RESULT:      -7.7      5.235     10.230
REMARK  Name = 
REMARK  7 active torsions:
REMARK  status: ('A' for Active; 'I' for Inactive)
REMARK    1  A    between atoms: C_1  and  N_2
REMARK    2  A    between atoms: C_3  and  C_5
REMARK    3  A    between atoms: C_9  and  O_10
REMARK    4  A    between atoms: O_10  and  C_11
REMARK    5  A    between atoms: C_14  and  N_15
REMARK    6  A    between atoms: N_18  and  C_19
REMARK    7  A    between atoms: C_21  and  C_26
REMARK                            x       y       z     vdW  Elec       q    Type
REMARK                         _______ _______ _______ _____ _____    ______ ____
ROOT
ATOM      1  C   UNL     1       5.890  -5.305  23.185  0.00  0.00    +0.129 A 
ATOM      2  C   UNL     1       7.261  -5.246  23.438  0.00  0.00    +0.048 A 
ATOM      3  C   UNL     1       7.994  -4.099  23.090  0.00  0.00    +0.027 A 
ATOM      4  C   UNL     1       7.355  -3.002  22.500  0.00  0.00    +0.035 A 
ATOM      5  C   UNL     1       5.973  -3.058  22.298  0.00  0.00    +0.027 A 
ATOM      6  C   UNL     1       5.238  -4.183  22.675  0.00  0.00    +0.048 A 
ENDROOT
BRANCH   4   7
ATOM      7  N   UNL     1       8.130  -1.896  22.085  0.00  0.00    -0.269 N 
ATOM      8  H   UNL     1       8.842  -2.056  21.383  0.00  0.00    +0.156 HD
ATOM      9  C   UNL     1       8.198  -0.691  22.754  0.00  0.00    +0.308 C 
ATOM     10  N   UNL     1       8.732   0.312  21.955  0.00  0.00    -0.269 N 
ATOM     11  H   UNL     1       8.461   0.238  20.984  0.00  0.00    +0.156 HD
ATOM     12  O   UNL     1       7.810  -0.498  23.904  0.00  0.00    -0.252 OA
BRANCH  10  13
ATOM     13  C   UNL     1       8.968   1.608  22.462  0.00  0.00    +0.035 A 
ATOM     14  C   UNL     1      10.163   1.929  23.108  0.00  0.00    +0.025 A 
ATOM     15  C   UNL     1      10.373   3.219  23.596  0.00  0.00    +0.022 A 
ATOM     16  C   UNL     1       9.380   4.192  23.460  0.00  0.00    +0.053 A 
ATOM     17 CL   UNL     1       9.715   5.764  24.086  0.00  0.00    -0.083 Cl
ATOM     18  C   UNL     1       8.168   3.884  22.833  0.00  0.00    +0.075 A 
ATOM     19  C   UNL     1       7.981   2.584  22.309  0.00  0.00    +0.037 A 
BRANCH  18  20
ATOM     20  C   UNL     1       7.060   4.896  22.724  0.00  0.00    +0.419 C 
ATOM     21  F   UNL     1       7.354   5.909  21.862  0.00  0.00    -0.166 F 
ATOM     22  F   UNL     1       6.737   5.478  23.911  0.00  0.00    -0.166 F 
ATOM     23  F   UNL     1       5.893   4.359  22.260  0.00  0.00    -0.166 F 
ENDBRANCH  18  20
ENDBRANCH  10  13
ENDBRANCH   4   7
BRANCH   1  24
ATOM     24  O   UNL     1       5.238  -6.486  23.467  0.00  0.00    -0.456 OA
BRANCH  24  27
ATOM     25  C   UNL     1       4.380  -6.659  27.042  0.00  0.00    +0.129 A 
ATOM     26  C   UNL     1       5.155  -6.443  25.913  0.00  0.00    +0.079 A 
ATOM     27  C   UNL     1       4.557  -6.591  24.666  0.00  0.00    +0.132 A 
ATOM     28  C   UNL     1       3.190  -6.839  24.592  0.00  0.00    +0.066 A 
ATOM     29  C   UNL     1       2.484  -6.993  25.778  0.00  0.00    +0.115 A 
ATOM     30  N   UNL     1       3.046  -6.932  27.007  0.00  0.00    -0.250 NA
BRANCH  25  34
ATOM     31  C   UNL     1       5.335  -5.419  30.485  0.00  0.00    +0.128 C 
ATOM     32  N   UNL     1       4.791  -5.539  29.160  0.00  0.00    -0.313 N 
ATOM     33  H   UNL     1       4.147  -4.848  28.786  0.00  0.00    +0.149 HD
ATOM     34  C   UNL     1       5.048  -6.647  28.382  0.00  0.00    +0.262 C 
ATOM     35  O   UNL     1       5.757  -7.579  28.748  0.00  0.00    -0.269 OA
ENDBRANCH  25  34
ENDBRANCH  24  27
ENDBRANCH   1  24
TORSDOF 6
ENDMDL
MODEL 5
REMARK VINA RESULT:      -7.6      1.560      1.974
REMARK  Name = 
REMARK  7 active torsions:
REMARK  status: ('A' for Active; 'I' for Inactive)
REMARK    1  A    between atoms: C_1  and  N_2
REMARK    2  A    between atoms: C_3  and  C_5
REMARK    3  A    between atoms: C_9  and  O_10
REMARK    4  A    between atoms: O_10  and  C_11
REMARK    5  A    between atoms: C_14  and  N_15
REMARK    6  A    between atoms: N_18  and  C_19
REMARK    7  A    between atoms: C_21  and  C_26
REMARK                            x       y       z     vdW  Elec       q    Type
REMARK                         _______ _______ _______ _____ _____    ______ ____
ROOT
ATOM      1  C   UNL     1      10.444   1.896  23.141  0.00  0.00    +0.129 A 
ATOM      2  C   UNL     1       9.791   1.365  22.029  0.00  0.00    +0.048 A 
ATOM      3  C   UNL     1       9.402   0.015  22.017  0.00  0.00    +0.027 A 
ATOM      4  C   UNL     1       9.653  -0.804  23.125  0.00  0.00    +0.035 A 
ATOM      5  C   UNL     1      10.263  -0.243  24.250  0.00  0.00    +0.027 A 
ATOM      6  C   UNL     1      10.619   1.105  24.276  0.00  0.00    +0.048 A 
ENDROOT
BRANCH   4   7
ATOM      7  N   UNL     1       9.324  -2.176  23.054  0.00  0.00    -0.269 N 
ATOM      8  H   UNL     1       9.877  -2.761  22.439  0.00  0.00    +0.156 HD
ATOM      9  C   UNL     1       8.149  -2.727  23.521  0.00  0.00    +0.308 C 
ATOM     10  N   UNL     1       8.242  -4.107  23.649  0.00  0.00    -0.269 N 
ATOM     11  H   UNL     1       9.153  -4.421  23.951  0.00  0.00    +0.156 HD
ATOM     12  O   UNL     1       7.142  -2.091  23.825  0.00  0.00    -0.252 OA
BRANCH  10  13
ATOM     13  C   UNL     1       7.130  -4.886  24.035  0.00  0.00    +0.035 A 
ATOM     14  C   UNL     1       6.279  -5.458  23.088  0.00  0.00    +0.025 A 
ATOM     15  C   UNL     1       5.189  -6.226  23.495  0.00  0.00    +0.022 A 
ATOM     16  C   UNL     1       4.930  -6.412  24.855  0.00  0.00    +0.053 A 
ATOM     17 CL   UNL     1       3.566  -7.379  25.281  0.00  0.00    -0.083 Cl
ATOM     18  C   UNL     1       5.760  -5.833  25.820  0.00  0.00    +0.075 A 
ATOM     19  C   UNL     1       6.883  -5.086  25.394  0.00  0.00    +0.037 A 
BRANCH  18  20
ATOM     20  C   UNL     1       5.472  -5.970  27.290  0.00  0.00    +0.419 C 
ATOM     21  F   UNL     1       5.373  -7.268  27.689  0.00  0.00    -0.166 F 
ATOM     22  F   UNL     1       4.321  -5.356  27.677  0.00  0.00    -0.166 F 
ATOM     23  F   UNL     1       6.449  -5.427  28.076  0.00  0.00    -0.166 F 
ENDBRANCH  18  20
ENDBRANCH  10  13
ENDBRANCH   4   7
BRANCH   1  24
ATOM     24  O   UNL     1      10.880   3.202  23.063  0.00  0.00    -0.456 OA
BRANCH  24  27
ATOM     25  C   UNL     1       8.420   4.981  25.144  0.00  0.00    +0.129 A 
ATOM     26  C   UNL     1       9.055   3.911  24.533  0.00  0.00    +0.079 A 
ATOM     27  C   UNL     1      10.203   4.165  23.788  0.00  0.00    +0.132 A 
ATOM     28  C   UNL     1      10.734   5.451  23.774  0.00  0.00    +0.066 A 
ATOM     29  C   UNL     1      10.054   6.451  24.456  0.00  0.00    +0.115 A 
ATOM     30  N   UNL     1       8.895   6.258  25.125  0.00  0.00    -0.250 NA
BRANCH  25  34
ATOM     31  C   UNL     1       5.944   3.508  27.593  0.00  0.00    +0.128 C 
ATOM     32  N   UNL     1       7.126   3.804  26.832  0.00  0.00    -0.313 N 
ATOM     33  H   UNL     1       8.024   3.385  27.060  0.00  0.00    +0.149 HD
ATOM     34  C   UNL     1       7.107   4.741  25.822  0.00  0.00    +0.262 C 
ATOM     35  O   UNL     1       6.100   5.363  25.497  0.00  0.00    -0.269 OA
ENDBRANCH  25  34
ENDBRANCH  24  27
ENDBRANCH   1  24
TORSDOF 6
ENDMDL
MODEL 6
REMARK VINA RESULT:      -7.3      5.123      9.769
REMARK  Name = 
REMARK  7 active torsions:
REMARK  status: ('A' for Active; 'I' for Inactive)
REMARK    1  A    between atoms: C_1  and  N_2
REMARK    2  A    between atoms: C_3  and  C_5
REMARK    3  A    between atoms: C_9  and  O_10
REMARK    4  A    between atoms: O_10  and  C_11
REMARK    5  A    between atoms: C_14  and  N_15
REMARK    6  A    between atoms: N_18  and  C_19
REMARK    7  A    between atoms: C_21  and  C_26
REMARK                            x       y       z     vdW  Elec       q    Type
REMARK                         _______ _______ _______ _____ _____    ______ ____
ROOT
ATOM      1  C   UNL     1       7.533  -4.801  24.160  0.00  0.00    +0.129 A 
ATOM      2  C   UNL     1       7.222  -4.152  22.965  0.00  0.00    +0.048 A 
ATOM      3  C   UNL     1       7.950  -3.018  22.568  0.00  0.00    +0.027 A 
ATOM      4  C   UNL     1       9.001  -2.538  23.359  0.00  0.00    +0.035 A 
ATOM      5  C   UNL     1       9.331  -3.229  24.528  0.00  0.00    +0.027 A 
ATOM      6  C   UNL     1       8.632  -4.375  24.906  0.00  0.00    +0.048 A 
ENDROOT
BRANCH   4   7
ATOM      7  N   UNL     1       9.661  -1.349  22.977  0.00  0.00    -0.269 N 
ATOM      8  H   UNL     1      10.577  -1.435  22.552  0.00  0.00    +0.156 HD
ATOM      9  C   UNL     1       9.300  -0.083  23.390  0.00  0.00    +0.308 C 
ATOM     10  N   UNL     1       9.878   0.901  22.598  0.00  0.00    -0.269 N 
ATOM     11  H   UNL     1       9.950   0.641  21.624  0.00  0.00    +0.156 HD
ATOM     12  O   UNL     1       8.537   0.166  24.320  0.00  0.00    -0.252 OA
BRANCH  10  13
ATOM     13  C   UNL     1       9.709   2.272  22.889  0.00  0.00    +0.035 A 
ATOM     14  C   UNL     1      10.741   3.029  23.446  0.00  0.00    +0.025 A 
ATOM     15  C   UNL     1      10.549   4.383  23.721  0.00  0.00    +0.022 A 
ATOM     16  C   UNL     1       9.316   4.985  23.460  0.00  0.00    +0.053 A 
ATOM     17 CL   UNL     1       9.157   6.665  23.823  0.00  0.00    -0.083 Cl
ATOM     18  C   UNL     1       8.263   4.239  22.919  0.00  0.00    +0.075 A 
ATOM     19  C   UNL     1       8.482   2.876  22.611  0.00  0.00    +0.037 A 
BRANCH  18  20
ATOM     20  C   UNL     1       6.910   4.848  22.681  0.00  0.00    +0.419 C 
ATOM     21  F   UNL     1       6.942   5.871  21.781  0.00  0.00    -0.166 F 
ATOM     22  F   UNL     1       6.330   5.342  23.808  0.00  0.00    -0.166 F 
ATOM     23  F   UNL     1       6.006   3.956  22.176  0.00  0.00    -0.166 F 
ENDBRANCH  18  20
ENDBRANCH  10  13
ENDBRANCH   4   7
BRANCH   1  24
ATOM     24  O   UNL     1       6.731  -5.855  24.543  0.00  0.00    -0.456 OA
BRANCH  24  27
ATOM     25  C   UNL     1       3.076  -5.741  24.129  0.00  0.00    +0.129 A 
ATOM     26  C   UNL     1       4.388  -6.120  23.888  0.00  0.00    +0.079 A 
ATOM     27  C   UNL     1       5.381  -5.622  24.726  0.00  0.00    +0.132 A 
ATOM     28  C   UNL     1       5.019  -4.860  25.832  0.00  0.00    +0.066 A 
ATOM     29  C   UNL     1       3.675  -4.570  26.020  0.00  0.00    +0.115 A 
ATOM     30  N   UNL     1       2.689  -4.972  25.185  0.00  0.00    -0.250 NA
BRANCH  25  34
ATOM     31  C   UNL     1       1.172  -7.967  21.738  0.00  0.00    +0.128 C 
ATOM     32  N   UNL     1       2.140  -7.432  22.654  0.00  0.00    -0.313 N 
ATOM     33  H   UNL     1       2.900  -8.001  23.018  0.00  0.00    +0.149 HD
ATOM     34  C   UNL     1       2.021  -6.151  23.149  0.00  0.00    +0.262 C 
ATOM     35  O   UNL     1       1.111  -5.389  22.837  0.00  0.00    -0.269 OA
ENDBRANCH  25  34
ENDBRANCH  24  27
ENDBRANCH   1  24
TORSDOF 6
ENDMDL
MODEL 7
REMARK VINA RESULT:      -7.1      2.192      2.897
REMARK  Name = 
REMARK  7 active torsions:
REMARK  status: ('A' for Active; 'I' for Inactive)
REMARK    1  A    between atoms: C_1  and  N_2
REMARK    2  A    between atoms: C_3  and  C_5
REMARK    3  A    between atoms: C_9  and  O_10
REMARK    4  A    between atoms: O_10  and  C_11
REMARK    5  A    between atoms: C_14  and  N_15
REMARK    6  A    between atoms: N_18  and  C_19
REMARK    7  A    between atoms: C_21  and  C_26
REMARK                            x       y       z     vdW  Elec       q    Type
REMARK                         _______ _______ _______ _____ _____    ______ ____
ROOT
ATOM      1  C   UNL     1      10.219   2.518  23.196  0.00  0.00    +0.129 A 
ATOM      2  C   UNL     1      10.570   1.839  24.363  0.00  0.00    +0.048 A 
ATOM      3  C   UNL     1      10.410   0.445  24.443  0.00  0.00    +0.027 A 
ATOM      4  C   UNL     1       9.912  -0.275  23.351  0.00  0.00    +0.035 A 
ATOM      5  C   UNL     1       9.612   0.414  22.173  0.00  0.00    +0.027 A 
ATOM      6  C   UNL     1       9.802   1.793  22.080  0.00  0.00    +0.048 A 
ENDROOT
BRANCH   4   7
ATOM      7  N   UNL     1       9.686  -1.663  23.488  0.00  0.00    -0.269 N 
ATOM      8  H   UNL     1      10.173  -2.285  22.854  0.00  0.00    +0.156 HD
ATOM      9  C   UNL     1       8.651  -2.222  24.210  0.00  0.00    +0.308 C 
ATOM     10  N   UNL     1       8.872  -3.568  24.469  0.00  0.00    -0.269 N 
ATOM     11  H   UNL     1       9.843  -3.790  24.640  0.00  0.00    +0.156 HD
ATOM     12  O   UNL     1       7.662  -1.614  24.613  0.00  0.00    -0.252 OA
BRANCH  10  13
ATOM     13  C   UNL     1       7.904  -4.359  25.124  0.00  0.00    +0.035 A 
ATOM     14  C   UNL     1       8.019  -4.674  26.480  0.00  0.00    +0.025 A 
ATOM     15  C   UNL     1       7.046  -5.454  27.105  0.00  0.00    +0.022 A 
ATOM     16  C   UNL     1       5.961  -5.943  26.373  0.00  0.00    +0.053 A 
ATOM     17 CL   UNL     1       4.797  -6.897  27.217  0.00  0.00    -0.083 Cl
ATOM     18  C   UNL     1       5.838  -5.654  25.010  0.00  0.00    +0.075 A 
ATOM     19  C   UNL     1       6.811  -4.832  24.396  0.00  0.00    +0.037 A 
BRANCH  18  20
ATOM     20  C   UNL     1       4.711  -6.214  24.187  0.00  0.00    +0.419 C 
ATOM     21  F   UNL     1       4.613  -7.570  24.278  0.00  0.00    -0.166 F 
ATOM     22  F   UNL     1       4.808  -5.921  22.862  0.00  0.00    -0.166 F 
ATOM     23  F   UNL     1       3.487  -5.741  24.569  0.00  0.00    -0.166 F 
ENDBRANCH  18  20
ENDBRANCH  10  13
ENDBRANCH   4   7
BRANCH   1  24
ATOM     24  O   UNL     1      10.314   3.893  23.203  0.00  0.00    -0.456 OA
BRANCH  24  27
ATOM     25  C   UNL     1       8.083   5.700  25.504  0.00  0.00    +0.129 A 
ATOM     26  C   UNL     1       9.226   5.052  25.064  0.00  0.00    +0.079 A 
ATOM     27  C   UNL     1       9.271   4.622  23.741  0.00  0.00    +0.132 A 
ATOM     28  C   UNL     1       8.225   4.951  22.883  0.00  0.00    +0.066 A 
ATOM     29  C   UNL     1       7.142   5.645  23.403  0.00  0.00    +0.115 A 
ATOM     30  N   UNL     1       7.028   6.012  24.700  0.00  0.00    -0.250 NA
BRANCH  25  34
ATOM     31  C   UNL     1       6.597   5.808  28.980  0.00  0.00    +0.128 C 
ATOM     32  N   UNL     1       6.817   5.591  27.577  0.00  0.00    -0.313 N 
ATOM     33  H   UNL     1       6.167   5.047  27.015  0.00  0.00    +0.149 HD
ATOM     34  C   UNL     1       7.966   6.034  26.959  0.00  0.00    +0.262 C 
ATOM     35  O   UNL     1       8.855   6.645  27.545  0.00  0.00    -0.269 OA
ENDBRANCH  25  34
ENDBRANCH  24  27
ENDBRANCH   1  24
TORSDOF 6
ENDMDL
MODEL 8
REMARK VINA RESULT:      -7.0      5.413     10.019
REMARK  Name = 
REMARK  7 active torsions:
REMARK  status: ('A' for Active; 'I' for Inactive)
REMARK    1  A    between atoms: C_1  and  N_2
REMARK    2  A    between atoms: C_3  and  C_5
REMARK    3  A    between atoms: C_9  and  O_10
REMARK    4  A    between atoms: O_10  and  C_11
REMARK    5  A    between atoms: C_14  and  N_15
REMARK    6  A    between atoms: N_18  and  C_19
REMARK    7  A    between atoms: C_21  and  C_26
REMARK                            x       y       z     vdW  Elec       q    Type
REMARK                         _______ _______ _______ _____ _____    ______ ____
ROOT
ATOM      1  C   UNL     1       7.767  -4.925  25.044  0.00  0.00    +0.129 A 
ATOM      2  C   UNL     1       6.883  -4.389  24.107  0.00  0.00    +0.048 A 
ATOM      3  C   UNL     1       7.229  -3.229  23.394  0.00  0.00    +0.027 A 
ATOM      4  C   UNL     1       8.466  -2.610  23.604  0.00  0.00    +0.035 A 
ATOM      5  C   UNL     1       9.361  -3.188  24.511  0.00  0.00    +0.027 A 
ATOM      6  C   UNL     1       9.032  -4.358  25.195  0.00  0.00    +0.048 A 
ENDROOT
BRANCH   4   7
ATOM      7  N   UNL     1       8.754  -1.401  22.933  0.00  0.00    -0.269 N 
ATOM      8  H   UNL     1       9.493  -1.410  22.241  0.00  0.00    +0.156 HD
ATOM      9  C   UNL     1       8.318  -0.156  23.338  0.00  0.00    +0.308 C 
ATOM     10  N   UNL     1       8.437   0.786  22.325  0.00  0.00    -0.269 N 
ATOM     11  H   UNL     1       8.250   0.412  21.405  0.00  0.00    +0.156 HD
ATOM     12  O   UNL     1       7.848   0.103  24.444  0.00  0.00    -0.252 OA
BRANCH  10  13
ATOM     13  C   UNL     1       8.125   2.145  22.544  0.00  0.00    +0.035 A 
ATOM     14  C   UNL     1       6.874   2.667  22.211  0.00  0.00    +0.025 A 
ATOM     15  C   UNL     1       6.590   4.013  22.442  0.00  0.00    +0.022 A 
ATOM     16  C   UNL     1       7.563   4.853  22.989  0.00  0.00    +0.053 A 
ATOM     17 CL   UNL     1       7.135   6.504  23.249  0.00  0.00    -0.083 Cl
ATOM     18  C   UNL     1       8.829   4.353  23.312  0.00  0.00    +0.075 A 
ATOM     19  C   UNL     1       9.093   2.979  23.107  0.00  0.00    +0.037 A 
BRANCH  18  20
ATOM     20  C   UNL     1       9.913   5.247  23.849  0.00  0.00    +0.419 C 
ATOM     21  F   UNL     1      11.136   4.647  23.856  0.00  0.00    -0.166 F 
ATOM     22  F   UNL     1       9.684   5.675  25.120  0.00  0.00    -0.166 F 
ATOM     23  F   UNL     1      10.077   6.385  23.112  0.00  0.00    -0.166 F 
ENDBRANCH  18  20
ENDBRANCH  10  13
ENDBRANCH   4   7
BRANCH   1  24
ATOM     24  O   UNL     1       7.341  -6.012  25.777  0.00  0.00    -0.456 OA
BRANCH  24  27
ATOM     25  C   UNL     1       3.911  -6.273  27.085  0.00  0.00    +0.129 A 
ATOM     26  C   UNL     1       5.011  -6.559  26.292  0.00  0.00    +0.079 A 
ATOM     27  C   UNL     1       6.199  -5.880  26.546  0.00  0.00    +0.132 A 
ATOM     28  C   UNL     1       6.276  -5.030  27.644  0.00  0.00    +0.066 A 
ATOM     29  C   UNL     1       5.134  -4.842  28.411  0.00  0.00    +0.115 A 
ATOM     30  N   UNL     1       3.942  -5.424  28.150  0.00  0.00    -0.250 NA
BRANCH  25  34
ATOM     31  C   UNL     1       1.468  -8.672  25.479  0.00  0.00    +0.128 C 
ATOM     32  N   UNL     1       2.655  -7.964  25.870  0.00  0.00    -0.313 N 
ATOM     33  H   UNL     1       3.579  -8.276  25.584  0.00  0.00    +0.149 HD
ATOM     34  C   UNL     1       2.593  -6.886  26.727  0.00  0.00    +0.262 C 
ATOM     35  O   UNL     1       1.543  -6.455  27.194  0.00  0.00    -0.269 OA
ENDBRANCH  25  34
ENDBRANCH  24  27
ENDBRANCH   1  24
TORSDOF 6
ENDMDL
MODEL 9
REMARK VINA RESULT:      -7.0      1.562      2.393
REMARK  Name = 
REMARK  7 active torsions:
REMARK  status: ('A' for Active; 'I' for Inactive)
REMARK    1  A    between atoms: C_1  and  N_2
REMARK    2  A    between atoms: C_3  and  C_5
REMARK    3  A    between atoms: C_9  and  O_10
REMARK    4  A    between atoms: O_10  and  C_11
REMARK    5  A    between atoms: C_14  and  N_15
REMARK    6  A    between atoms: N_18  and  C_19
REMARK    7  A    between atoms: C_21  and  C_26
REMARK                            x       y       z     vdW  Elec       q    Type
REMARK                         _______ _______ _______ _____ _____    ______ ____
ROOT
ATOM      1  C   UNL     1       9.904   0.288  22.842  0.00  0.00    +0.129 A 
ATOM      2  C   UNL     1       9.402  -0.492  21.800  0.00  0.00    +0.048 A 
ATOM      3  C   UNL     1       8.881  -1.770  22.064  0.00  0.00    +0.027 A 
ATOM      4  C   UNL     1       8.847  -2.265  23.373  0.00  0.00    +0.035 A 
ATOM      5  C   UNL     1       9.309  -1.451  24.412  0.00  0.00    +0.027 A 
ATOM      6  C   UNL     1       9.795  -0.168  24.155  0.00  0.00    +0.048 A 
ENDROOT
BRANCH   4   7
ATOM      7  N   UNL     1       8.394  -3.584  23.599  0.00  0.00    -0.269 N 
ATOM      8  H   UNL     1       8.936  -4.342  23.203  0.00  0.00    +0.156 HD
ATOM      9  C   UNL     1       7.136  -3.913  24.059  0.00  0.00    +0.308 C 
ATOM     10  N   UNL     1       7.083  -5.222  24.522  0.00  0.00    -0.269 N 
ATOM     11  H   UNL     1       7.931  -5.518  24.984  0.00  0.00    +0.156 HD
ATOM     12  O   UNL     1       6.174  -3.149  24.095  0.00  0.00    -0.252 OA
BRANCH  10  13
ATOM     13  C   UNL     1       5.872  -5.796  24.965  0.00  0.00    +0.035 A 
ATOM     14  C   UNL     1       4.994  -6.417  24.075  0.00  0.00    +0.025 A 
ATOM     15  C   UNL     1       3.805  -6.981  24.539  0.00  0.00    +0.022 A 
ATOM     16  C   UNL     1       3.476  -6.909  25.895  0.00  0.00    +0.053 A 
ATOM     17 CL   UNL     1       1.991  -7.633  26.393  0.00  0.00    -0.083 Cl
ATOM     18  C   UNL     1       4.334  -6.275  26.800  0.00  0.00    +0.075 A 
ATOM     19  C   UNL     1       5.553  -5.739  26.323  0.00  0.00    +0.037 A 
BRANCH  18  20
ATOM     20  C   UNL     1       3.978  -6.134  28.254  0.00  0.00    +0.419 C 
ATOM     21  F   UNL     1       2.773  -5.529  28.446  0.00  0.00    -0.166 F 
ATOM     22  F   UNL     1       4.888  -5.419  28.969  0.00  0.00    -0.166 F 
ATOM     23  F   UNL     1       3.882  -7.336  28.896  0.00  0.00    -0.166 F 
ENDBRANCH  18  20
ENDBRANCH  10  13
ENDBRANCH   4   7
BRANCH   1  24
ATOM     24  O   UNL     1      10.481   1.497  22.514  0.00  0.00    -0.456 OA
BRANCH  24  27
ATOM     25  C   UNL     1       7.969   4.121  23.101  0.00  0.00    +0.129 A 
ATOM     26  C   UNL     1       8.475   2.878  22.753  0.00  0.00    +0.079 A 
ATOM     27  C   UNL     1       9.841   2.658  22.903  0.00  0.00    +0.132 A 
ATOM     28  C   UNL     1      10.627   3.641  23.496  0.00  0.00    +0.066 A 
ATOM     29  C   UNL     1      10.023   4.837  23.858  0.00  0.00    +0.115 A 
ATOM     30  N   UNL     1       8.715   5.116  23.657  0.00  0.00    -0.250 NA
BRANCH  25  34
ATOM     31  C   UNL     1       4.322   3.452  22.357  0.00  0.00    +0.128 C 
ATOM     32  N   UNL     1       5.730   3.313  22.606  0.00  0.00    -0.313 N 
ATOM     33  H   UNL     1       6.163   2.399  22.712  0.00  0.00    +0.149 HD
ATOM     34  C   UNL     1       6.531   4.416  22.806  0.00  0.00    +0.262 C 
ATOM     35  O   UNL     1       6.113   5.569  22.769  0.00  0.00    -0.269 OA
ENDBRANCH  25  34
ENDBRANCH  24  27
ENDBRANCH   1  24
TORSDOF 6
ENDMDL
