MODEL 1
REMARK VINA RESULT:      -5.5      0.000      0.000
REMARK  Name = 
REMARK  3 active torsions:
REMARK  status: ('A' for Active; 'I' for Inactive)
REMARK    1  A    between atoms: C_1  and  C_2
REMARK    2  A    between atoms: C_8  and  S_10
REMARK    3  A    between atoms: S_10  and  N_11
REMARK                            x       y       z     vdW  Elec       q    Type
REMARK                         _______ _______ _______ _____ _____    ______ ____
ROOT
ATOM      1  C   UNL     1       8.080   1.905  21.500  0.00  0.00    +0.109 C 
ATOM      2  C   UNL     1       8.898   0.774  22.066  0.00  0.00    +0.216 C 
ATOM      3  N   UNL     1       8.135  -0.127  22.774  0.00  0.00    -0.263 N 
ATOM      4  H   UNL     1       7.159   0.049  22.963  0.00  0.00    +0.157 HD
ATOM      5  C   UNL     1       8.692  -1.266  23.293  0.00  0.00    +0.189 A 
ATOM      6  S   UNL     1       7.647  -2.209  24.264  0.00  0.00    -0.011 S 
ATOM      7  C   UNL     1       8.978  -3.251  24.498  0.00  0.00    +0.256 A 
ATOM      8  N   UNL     1      10.080  -2.920  23.859  0.00  0.00    -0.119 NA
ATOM      9  N   UNL     1       9.906  -1.746  23.155  0.00  0.00    -0.124 NA
ATOM     10  O   UNL     1      10.108   0.722  21.878  0.00  0.00    -0.276 OA
ENDROOT
BRANCH   7  11
ATOM     11  S   UNL     1       8.822  -4.640  25.564  0.00  0.00    +0.081 S 
ATOM     12  O   UNL     1       7.666  -5.370  25.096  0.00  0.00    -0.151 OA
ATOM     13  O   UNL     1       8.931  -4.117  26.908  0.00  0.00    -0.151 OA
BRANCH  11  14
ATOM     14  N   UNL     1      10.170  -5.629  25.312  0.00  0.00    -0.202 NA
ATOM     15  H   UNL     1       9.948  -6.408  24.690  0.00  0.00    +0.144 HD
ATOM     16  H   UNL     1      10.973  -5.085  24.995  0.00  0.00    +0.144 HD
ENDBRANCH  11  14
ENDBRANCH   7  11
TORSDOF 2
ENDMDL
MODEL 2
REMARK VINA RESULT:      -5.2      2.063      2.142
REMARK  Name = 
REMARK  3 active torsions:
REMARK  status: ('A' for Active; 'I' for Inactive)
REMARK    1  A    between atoms: C_1  and  C_2
REMARK    2  A    between atoms: C_8  and  S_10
REMARK    3  A    between atoms: S_10  and  N_11
REMARK                            x       y       z     vdW  Elec       q    Type
REMARK                         _______ _______ _______ _____ _____    ______ ____
ROOT
ATOM      1  C   UNL     1      10.399   2.495  23.363  0.00  0.00    +0.109 C 
ATOM      2  C   UNL     1       9.688   1.437  24.166  0.00  0.00    +0.216 C 
ATOM      3  N   UNL     1      10.008   0.162  23.762  0.00  0.00    -0.263 N 
ATOM      4  H   UNL     1      10.574   0.000  22.941  0.00  0.00    +0.157 HD
ATOM      5  C   UNL     1       9.522  -0.931  24.429  0.00  0.00    +0.189 A 
ATOM      6  S   UNL     1       9.896  -2.442  23.720  0.00  0.00    -0.011 S 
ATOM      7  C   UNL     1       8.993  -3.141  24.989  0.00  0.00    +0.256 A 
ATOM      8  N   UNL     1       8.505  -2.297  25.872  0.00  0.00    -0.119 NA
ATOM      9  N   UNL     1       8.816  -0.996  25.534  0.00  0.00    -0.124 NA
ATOM     10  O   UNL     1       8.920   1.750  25.070  0.00  0.00    -0.276 OA
ENDROOT
BRANCH   7  11
ATOM     11  S   UNL     1       8.747  -4.881  25.028  0.00  0.00    +0.081 S 
ATOM     12  O   UNL     1       8.409  -5.264  23.677  0.00  0.00    -0.151 OA
ATOM     13  O   UNL     1       7.879  -5.129  26.157  0.00  0.00    -0.151 OA
BRANCH  11  14
ATOM     14  N   UNL     1      10.236  -5.597  25.390  0.00  0.00    -0.202 NA
ATOM     15  H   UNL     1      10.735  -5.072  26.111  0.00  0.00    +0.144 HD
ATOM     16  H   UNL     1      10.125  -6.584  25.624  0.00  0.00    +0.144 HD
ENDBRANCH  11  14
ENDBRANCH   7  11
TORSDOF 2
ENDMDL
MODEL 3
REMARK VINA RESULT:      -5.2      1.994      2.257
REMARK  Name = 
REMARK  3 active torsions:
REMARK  status: ('A' for Active; 'I' for Inactive)
REMARK    1  A    between atoms: C_1  and  C_2
REMARK    2  A    between atoms: C_8  and  S_10
REMARK    3  A    between atoms: S_10  and  N_11
REMARK                            x       y       z     vdW  Elec       q    Type
REMARK                         _______ _______ _______ _____ _____    ______ ____
ROOT
ATOM      1  C   UNL     1       9.487  -0.034  21.483  0.00  0.00    +0.109 C 
ATOM      2  C   UNL     1       9.627  -1.252  22.357  0.00  0.00    +0.216 C 
ATOM      3  N   UNL     1       8.473  -1.543  23.047  0.00  0.00    -0.263 N 
ATOM      4  H   UNL     1       7.679  -0.919  23.026  0.00  0.00    +0.157 HD
ATOM      5  C   UNL     1       8.384  -2.664  23.829  0.00  0.00    +0.189 A 
ATOM      6  S   UNL     1       6.937  -2.810  24.730  0.00  0.00    -0.011 S 
ATOM      7  C   UNL     1       7.601  -4.250  25.361  0.00  0.00    +0.256 A 
ATOM      8  N   UNL     1       8.781  -4.588  24.889  0.00  0.00    -0.119 NA
ATOM      9  N   UNL     1       9.240  -3.646  23.990  0.00  0.00    -0.124 NA
ATOM     10  O   UNL     1      10.685  -1.870  22.403  0.00  0.00    -0.276 OA
ENDROOT
BRANCH   7  11
ATOM     11  S   UNL     1       6.719  -5.154  26.584  0.00  0.00    +0.081 S 
ATOM     12  O   UNL     1       6.016  -6.198  25.875  0.00  0.00    -0.151 OA
ATOM     13  O   UNL     1       6.046  -4.163  27.394  0.00  0.00    -0.151 OA
BRANCH  11  14
ATOM     14  N   UNL     1       7.859  -5.908  27.580  0.00  0.00    -0.202 NA
ATOM     15  H   UNL     1       7.593  -6.873  27.783  0.00  0.00    +0.144 HD
ATOM     16  H   UNL     1       8.799  -5.830  27.190  0.00  0.00    +0.144 HD
ENDBRANCH  11  14
ENDBRANCH   7  11
TORSDOF 2
ENDMDL
MODEL 4
REMARK VINA RESULT:      -5.1      4.627      7.205
REMARK  Name = 
REMARK  3 active torsions:
REMARK  status: ('A' for Active; 'I' for Inactive)
REMARK    1  A    between atoms: C_1  and  C_2
REMARK    2  A    between atoms: C_8  and  S_10
REMARK    3  A    between atoms: S_10  and  N_11
REMARK                            x       y       z     vdW  Elec       q    Type
REMARK                         _______ _______ _______ _____ _____    ______ ____
ROOT
ATOM      1  C   UNL     1       2.494  -6.884  28.848  0.00  0.00    +0.109 C 
ATOM      2  C   UNL     1       3.988  -6.738  28.722  0.00  0.00    +0.216 C 
ATOM      3  N   UNL     1       4.365  -6.176  27.523  0.00  0.00    -0.263 N 
ATOM      4  H   UNL     1       3.690  -6.001  26.793  0.00  0.00    +0.157 HD
ATOM      5  C   UNL     1       5.678  -5.889  27.262  0.00  0.00    +0.189 A 
ATOM      6  S   UNL     1       5.999  -5.327  25.679  0.00  0.00    -0.011 S 
ATOM      7  C   UNL     1       7.640  -5.273  26.146  0.00  0.00    +0.256 A 
ATOM      8  N   UNL     1       7.889  -5.609  27.393  0.00  0.00    -0.119 NA
ATOM      9  N   UNL     1       6.728  -5.976  28.044  0.00  0.00    -0.124 NA
ATOM     10  O   UNL     1       4.730  -7.101  29.627  0.00  0.00    -0.276 OA
ENDROOT
BRANCH   7  11
ATOM     11  S   UNL     1       8.866  -4.817  24.971  0.00  0.00    +0.081 S 
ATOM     12  O   UNL     1       9.040  -3.390  25.113  0.00  0.00    -0.151 OA
ATOM     13  O   UNL     1       8.470  -5.442  23.729  0.00  0.00    -0.151 OA
BRANCH  11  14
ATOM     14  N   UNL     1      10.318  -5.544  25.444  0.00  0.00    -0.202 NA
ATOM     15  H   UNL     1      10.451  -5.484  26.455  0.00  0.00    +0.144 HD
ATOM     16  H   UNL     1      10.384  -6.500  25.092  0.00  0.00    +0.144 HD
ENDBRANCH  11  14
ENDBRANCH   7  11
TORSDOF 2
ENDMDL
MODEL 5
REMARK VINA RESULT:      -5.1      2.489      5.804
REMARK  Name = 
REMARK  3 active torsions:
REMARK  status: ('A' for Active; 'I' for Inactive)
REMARK    1  A    between atoms: C_1  and  C_2
REMARK    2  A    between atoms: C_8  and  S_10
REMARK    3  A    between atoms: S_10  and  N_11
REMARK                            x       y       z     vdW  Elec       q    Type
REMARK                         _______ _______ _______ _____ _____    ______ ____
ROOT
ATOM      1  C   UNL     1       8.384  -4.867  26.511  0.00  0.00    +0.109 C 
ATOM      2  C   UNL     1       8.930  -4.006  25.401  0.00  0.00    +0.216 C 
ATOM      3  N   UNL     1       8.729  -2.664  25.626  0.00  0.00    -0.263 N 
ATOM      4  H   UNL     1       8.174  -2.341  26.405  0.00  0.00    +0.157 HD
ATOM      5  C   UNL     1       9.231  -1.724  24.765  0.00  0.00    +0.189 A 
ATOM      6  S   UNL     1       8.777  -0.110  25.106  0.00  0.00    -0.011 S 
ATOM      7  C   UNL     1       9.671   0.322  23.717  0.00  0.00    +0.256 A 
ATOM      8  N   UNL     1      10.279  -0.668  23.100  0.00  0.00    -0.119 NA
ATOM      9  N   UNL     1      10.011  -1.872  23.721  0.00  0.00    -0.124 NA
ATOM     10  O   UNL     1       9.482  -4.514  24.431  0.00  0.00    -0.276 OA
ENDROOT
BRANCH   7  11
ATOM     11  S   UNL     1       9.704   1.998  23.189  0.00  0.00    +0.081 S 
ATOM     12  O   UNL     1      10.931   2.554  23.710  0.00  0.00    -0.151 OA
ATOM     13  O   UNL     1       8.400   2.536  23.506  0.00  0.00    -0.151 OA
BRANCH  11  14
ATOM     14  N   UNL     1       9.836   1.997  21.503  0.00  0.00    -0.202 NA
ATOM     15  H   UNL     1       9.615   2.915  21.113  0.00  0.00    +0.144 HD
ATOM     16  H   UNL     1      10.747   1.647  21.203  0.00  0.00    +0.144 HD
ENDBRANCH  11  14
ENDBRANCH   7  11
TORSDOF 2
ENDMDL
MODEL 6
REMARK VINA RESULT:      -4.9      4.449      5.428
REMARK  Name = 
REMARK  3 active torsions:
REMARK  status: ('A' for Active; 'I' for Inactive)
REMARK    1  A    between atoms: C_1  and  C_2
REMARK    2  A    between atoms: C_8  and  S_10
REMARK    3  A    between atoms: S_10  and  N_11
REMARK                            x       y       z     vdW  Elec       q    Type
REMARK                         _______ _______ _______ _____ _____    ______ ____
ROOT
ATOM      1  C   UNL     1       6.478  -4.372  21.802  0.00  0.00    +0.109 C 
ATOM      2  C   UNL     1       7.022  -4.468  23.203  0.00  0.00    +0.216 C 
ATOM      3  N   UNL     1       6.171  -5.132  24.056  0.00  0.00    -0.263 N 
ATOM      4  H   UNL     1       5.246  -5.409  23.761  0.00  0.00    +0.157 HD
ATOM      5  C   UNL     1       6.533  -5.390  25.351  0.00  0.00    +0.189 A 
ATOM      6  S   UNL     1       5.313  -6.097  26.321  0.00  0.00    -0.011 S 
ATOM      7  C   UNL     1       6.443  -6.035  27.599  0.00  0.00    +0.256 A 
ATOM      8  N   UNL     1       7.631  -5.564  27.287  0.00  0.00    -0.119 NA
ATOM      9  N   UNL     1       7.676  -5.180  25.962  0.00  0.00    -0.124 NA
ATOM     10  O   UNL     1       8.113  -3.984  23.484  0.00  0.00    -0.276 OA
ENDROOT
BRANCH   7  11
ATOM     11  S   UNL     1       5.966  -6.557  29.209  0.00  0.00    +0.081 S 
ATOM     12  O   UNL     1       5.786  -5.348  29.979  0.00  0.00    -0.151 OA
ATOM     13  O   UNL     1       6.904  -7.592  29.579  0.00  0.00    -0.151 OA
BRANCH  11  14
ATOM     14  N   UNL     1       4.450  -7.293  29.077  0.00  0.00    -0.202 NA
ATOM     15  H   UNL     1       4.496  -8.284  29.321  0.00  0.00    +0.144 HD
ATOM     16  H   UNL     1       3.744  -6.785  29.611  0.00  0.00    +0.144 HD
ENDBRANCH  11  14
ENDBRANCH   7  11
TORSDOF 2
ENDMDL
MODEL 7
REMARK VINA RESULT:      -4.8      2.625      5.194
REMARK  Name = 
REMARK  3 active torsions:
REMARK  status: ('A' for Active; 'I' for Inactive)
REMARK    1  A    between atoms: C_1  and  C_2
REMARK    2  A    between atoms: C_8  and  S_10
REMARK    3  A    between atoms: S_10  and  N_11
REMARK                            x       y       z     vdW  Elec       q    Type
REMARK                         _______ _______ _______ _____ _____    ______ ____
ROOT
ATOM      1  C   UNL     1       6.181  -5.736  21.847  0.00  0.00    +0.109 C 
ATOM      2  C   UNL     1       7.320  -5.024  22.529  0.00  0.00    +0.216 C 
ATOM      3  N   UNL     1       7.257  -3.658  22.376  0.00  0.00    -0.263 N 
ATOM      4  H   UNL     1       6.570  -3.231  21.772  0.00  0.00    +0.157 HD
ATOM      5  C   UNL     1       8.162  -2.838  22.996  0.00  0.00    +0.189 A 
ATOM      6  S   UNL     1       8.037  -1.180  22.594  0.00  0.00    -0.011 S 
ATOM      7  C   UNL     1       9.375  -0.939  23.625  0.00  0.00    +0.256 A 
ATOM      8  N   UNL     1       9.826  -2.014  24.235  0.00  0.00    -0.119 NA
ATOM      9  N   UNL     1       9.110  -3.131  23.856  0.00  0.00    -0.124 NA
ATOM     10  O   UNL     1       8.176  -5.656  23.137  0.00  0.00    -0.276 OA
ENDROOT
BRANCH   7  11
ATOM     11  S   UNL     1      10.072   0.667  23.787  0.00  0.00    +0.081 S 
ATOM     12  O   UNL     1      10.228   1.169  22.441  0.00  0.00    -0.151 OA
ATOM     13  O   UNL     1      11.179   0.524  24.706  0.00  0.00    -0.151 OA
BRANCH  11  14
ATOM     14  N   UNL     1       8.924   1.645  24.552  0.00  0.00    -0.202 NA
ATOM     15  H   UNL     1       8.527   2.327  23.904  0.00  0.00    +0.144 HD
ATOM     16  H   UNL     1       8.213   1.082  25.021  0.00  0.00    +0.144 HD
ENDBRANCH  11  14
ENDBRANCH   7  11
TORSDOF 2
ENDMDL
MODEL 8
REMARK VINA RESULT:      -4.8      3.037      5.241
REMARK  Name = 
REMARK  3 active torsions:
REMARK  status: ('A' for Active; 'I' for Inactive)
REMARK    1  A    between atoms: C_1  and  C_2
REMARK    2  A    between atoms: C_8  and  S_10
REMARK    3  A    between atoms: S_10  and  N_11
REMARK                            x       y       z     vdW  Elec       q    Type
REMARK                         _______ _______ _______ _____ _____    ______ ____
ROOT
ATOM      1  C   UNL     1       6.427  -5.606  21.447  0.00  0.00    +0.109 C 
ATOM      2  C   UNL     1       6.341  -4.184  21.936  0.00  0.00    +0.216 C 
ATOM      3  N   UNL     1       7.561  -3.685  22.329  0.00  0.00    -0.263 N 
ATOM      4  H   UNL     1       8.379  -4.277  22.373  0.00  0.00    +0.157 HD
ATOM      5  C   UNL     1       7.694  -2.381  22.725  0.00  0.00    +0.189 A 
ATOM      6  S   UNL     1       9.242  -1.954  23.316  0.00  0.00    -0.011 S 
ATOM      7  C   UNL     1       8.592  -0.400  23.590  0.00  0.00    +0.256 A 
ATOM      8  N   UNL     1       7.340  -0.233  23.222  0.00  0.00    -0.119 NA
ATOM      9  N   UNL     1       6.815  -1.407  22.718  0.00  0.00    -0.124 NA
ATOM     10  O   UNL     1       5.266  -3.594  21.956  0.00  0.00    -0.276 OA
ENDROOT
BRANCH   7  11
ATOM     11  S   UNL     1       9.583   0.839  24.347  0.00  0.00    +0.081 S 
ATOM     12  O   UNL     1       9.988   1.728  23.283  0.00  0.00    -0.151 OA
ATOM     13  O   UNL     1      10.526   0.130  25.182  0.00  0.00    -0.151 OA
BRANCH  11  14
ATOM     14  N   UNL     1       8.583   1.727  25.383  0.00  0.00    -0.202 NA
ATOM     15  H   UNL     1       8.416   1.225  26.257  0.00  0.00    +0.144 HD
ATOM     16  H   UNL     1       8.946   2.669  25.529  0.00  0.00    +0.144 HD
ENDBRANCH  11  14
ENDBRANCH   7  11
TORSDOF 2
ENDMDL
MODEL 9
REMARK VINA RESULT:      -4.8      3.207      4.389
REMARK  Name = 
REMARK  3 active torsions:
REMARK  status: ('A' for Active; 'I' for Inactive)
REMARK    1  A    between atoms: C_1  and  C_2
REMARK    2  A    between atoms: C_8  and  S_10
REMARK    3  A    between atoms: S_10  and  N_11
REMARK                            x       y       z     vdW  Elec       q    Type
REMARK                         _______ _______ _______ _____ _____    ______ ____
ROOT
ATOM      1  C   UNL     1       7.459   6.009  22.105  0.00  0.00    +0.109 C 
ATOM      2  C   UNL     1       7.065   4.578  22.359  0.00  0.00    +0.216 C 
ATOM      3  N   UNL     1       8.135   3.715  22.295  0.00  0.00    -0.263 N 
ATOM      4  H   UNL     1       9.046   4.033  21.998  0.00  0.00    +0.157 HD
ATOM      5  C   UNL     1       7.984   2.384  22.581  0.00  0.00    +0.189 A 
ATOM      6  S   UNL     1       9.374   1.421  22.320  0.00  0.00    -0.011 S 
ATOM      7  C   UNL     1       8.416   0.095  22.809  0.00  0.00    +0.256 A 
ATOM      8  N   UNL     1       7.185   0.384  23.170  0.00  0.00    -0.119 NA
ATOM      9  N   UNL     1       6.935   1.734  23.029  0.00  0.00    -0.124 NA
ATOM     10  O   UNL     1       5.897   4.283  22.591  0.00  0.00    -0.276 OA
ENDROOT
BRANCH   7  11
ATOM     11  S   UNL     1       9.092  -1.527  22.774  0.00  0.00    +0.081 S 
ATOM     12  O   UNL     1       8.007  -2.400  22.389  0.00  0.00    -0.151 OA
ATOM     13  O   UNL     1       9.819  -1.676  24.015  0.00  0.00    -0.151 OA
BRANCH  11  14
ATOM     14  N   UNL     1      10.235  -1.575  21.529  0.00  0.00    -0.202 NA
ATOM     15  H   UNL     1      11.030  -2.167  21.777  0.00  0.00    +0.144 HD
ATOM     16  H   UNL     1       9.805  -1.841  20.642  0.00  0.00    +0.144 HD
ENDBRANCH  11  14
ENDBRANCH   7  11
TORSDOF 2
ENDMDL
