MODEL 1
REMARK VINA RESULT:      -7.1      0.000      0.000
REMARK  Name = 
REMARK  2 active torsions:
REMARK  status: ('A' for Active; 'I' for Inactive)
REMARK    1  A    between atoms: C_1  and  C_2
REMARK    2  A    between atoms: C_11  and  C_12
REMARK                            x       y       z     vdW  Elec       q    Type
REMARK                         _______ _______ _______ _____ _____    ______ ____
ROOT
ATOM      1  C   UNL     1      10.068   0.074  25.202  0.00  0.00    +0.044 C 
ATOM      2  C   UNL     1       9.325  -0.918  24.349  0.00  0.00    -0.045 A 
ATOM      3  C   UNL     1       9.376  -0.863  22.948  0.00  0.00    -0.045 A 
ATOM      4  C   UNL     1      10.178   0.183  22.225  0.00  0.00    +0.044 C 
ATOM      5  C   UNL     1       8.659  -1.814  22.206  0.00  0.00    +0.033 A 
ATOM      6  C   UNL     1       7.903  -2.806  22.812  0.00  0.00    +0.090 A 
ATOM      7  C   UNL     1       7.850  -2.867  24.229  0.00  0.00    +0.092 A 
ATOM      8  N   UNL     1       7.129  -3.815  24.869  0.00  0.00    -0.226 NA
ATOM      9  C   UNL     1       6.469  -4.693  24.088  0.00  0.00    +0.166 A 
ATOM     10  N   UNL     1       5.722  -5.679  24.719  0.00  0.00    -0.291 N 
ATOM     11  H   UNL     1       5.708  -5.693  25.729  0.00  0.00    +0.172 HD
ATOM     12  C   UNL     1       5.012  -6.622  24.044  0.00  0.00    +0.328 A 
ATOM     13  O   UNL     1       4.360  -7.483  24.625  0.00  0.00    -0.247 OA
ATOM     14  N   UNL     1       5.065  -6.558  22.680  0.00  0.00    -0.273 N 
ATOM     15  H   UNL     1       4.541  -7.254  22.169  0.00  0.00    +0.173 HD
ATOM     16  C   UNL     1       5.766  -5.635  21.934  0.00  0.00    +0.282 A 
ATOM     17  O   UNL     1       5.747  -5.665  20.709  0.00  0.00    -0.265 OA
ATOM     18  C   UNL     1       6.525  -4.627  22.706  0.00  0.00    +0.171 A 
ATOM     19  N   UNL     1       7.240  -3.686  22.042  0.00  0.00    -0.237 NA
ATOM     20  C   UNL     1       8.559  -1.924  24.964  0.00  0.00    +0.033 A 
ENDROOT
TORSDOF 0
ENDMDL
MODEL 2
REMARK VINA RESULT:      -7.0      4.329      6.668
REMARK  Name = 
REMARK  2 active torsions:
REMARK  status: ('A' for Active; 'I' for Inactive)
REMARK    1  A    between atoms: C_1  and  C_2
REMARK    2  A    between atoms: C_11  and  C_12
REMARK                            x       y       z     vdW  Elec       q    Type
REMARK                         _______ _______ _______ _____ _____    ______ ____
ROOT
ATOM      1  C   UNL     1       9.087  -5.461  25.210  0.00  0.00    +0.044 C 
ATOM      2  C   UNL     1       8.818  -4.190  24.452  0.00  0.00    -0.045 A 
ATOM      3  C   UNL     1       7.804  -4.114  23.486  0.00  0.00    -0.045 A 
ATOM      4  C   UNL     1       6.930  -5.294  23.160  0.00  0.00    +0.044 C 
ATOM      5  C   UNL     1       7.601  -2.902  22.808  0.00  0.00    +0.033 A 
ATOM      6  C   UNL     1       8.370  -1.777  23.064  0.00  0.00    +0.090 A 
ATOM      7  C   UNL     1       9.396  -1.848  24.042  0.00  0.00    +0.092 A 
ATOM      8  N   UNL     1      10.173  -0.779  24.332  0.00  0.00    -0.226 NA
ATOM      9  C   UNL     1       9.918   0.350  23.640  0.00  0.00    +0.166 A 
ATOM     10  N   UNL     1      10.700   1.463  23.918  0.00  0.00    -0.291 N 
ATOM     11  H   UNL     1      11.419   1.377  24.621  0.00  0.00    +0.172 HD
ATOM     12  C   UNL     1      10.541   2.659  23.290  0.00  0.00    +0.328 A 
ATOM     13  O   UNL     1      11.245   3.628  23.554  0.00  0.00    -0.247 OA
ATOM     14  N   UNL     1       9.554   2.722  22.348  0.00  0.00    -0.273 N 
ATOM     15  H   UNL     1       9.428   3.606  21.875  0.00  0.00    +0.173 HD
ATOM     16  C   UNL     1       8.711   1.695  21.980  0.00  0.00    +0.282 A 
ATOM     17  O   UNL     1       7.854   1.856  21.119  0.00  0.00    -0.265 OA
ATOM     18  C   UNL     1       8.915   0.411  22.687  0.00  0.00    +0.171 A 
ATOM     19  N   UNL     1       8.125  -0.646  22.380  0.00  0.00    -0.237 NA
ATOM     20  C   UNL     1       9.597  -3.050  24.712  0.00  0.00    +0.033 A 
ENDROOT
TORSDOF 0
ENDMDL
MODEL 3
REMARK VINA RESULT:      -7.0      3.209      3.499
REMARK  Name = 
REMARK  2 active torsions:
REMARK  status: ('A' for Active; 'I' for Inactive)
REMARK    1  A    between atoms: C_1  and  C_2
REMARK    2  A    between atoms: C_11  and  C_12
REMARK                            x       y       z     vdW  Elec       q    Type
REMARK                         _______ _______ _______ _____ _____    ______ ____
ROOT
ATOM      1  C   UNL     1       6.686   1.826  22.653  0.00  0.00    +0.044 C 
ATOM      2  C   UNL     1       7.399   0.566  23.059  0.00  0.00    -0.045 A 
ATOM      3  C   UNL     1       8.621   0.196  22.479  0.00  0.00    -0.045 A 
ATOM      4  C   UNL     1       9.285   1.039  21.425  0.00  0.00    +0.044 C 
ATOM      5  C   UNL     1       9.239  -0.993  22.896  0.00  0.00    +0.033 A 
ATOM      6  C   UNL     1       8.681  -1.813  23.866  0.00  0.00    +0.090 A 
ATOM      7  C   UNL     1       7.445  -1.441  24.458  0.00  0.00    +0.092 A 
ATOM      8  N   UNL     1       6.859  -2.204  25.409  0.00  0.00    -0.226 NA
ATOM      9  C   UNL     1       7.513  -3.330  25.758  0.00  0.00    +0.166 A 
ATOM     10  N   UNL     1       6.935  -4.132  26.734  0.00  0.00    -0.291 N 
ATOM     11  H   UNL     1       6.056  -3.836  27.134  0.00  0.00    +0.172 HD
ATOM     12  C   UNL     1       7.495  -5.291  27.172  0.00  0.00    +0.328 A 
ATOM     13  O   UNL     1       6.964  -5.981  28.036  0.00  0.00    -0.247 OA
ATOM     14  N   UNL     1       8.683  -5.645  26.598  0.00  0.00    -0.273 N 
ATOM     15  H   UNL     1       9.107  -6.505  26.917  0.00  0.00    +0.173 HD
ATOM     16  C   UNL     1       9.360  -4.941  25.625  0.00  0.00    +0.282 A 
ATOM     17  O   UNL     1      10.425  -5.347  25.174  0.00  0.00    -0.265 OA
ATOM     18  C   UNL     1       8.718  -3.685  25.175  0.00  0.00    +0.171 A 
ATOM     19  N   UNL     1       9.324  -2.938  24.222  0.00  0.00    -0.237 NA
ATOM     20  C   UNL     1       6.833  -0.265  24.042  0.00  0.00    +0.033 A 
ENDROOT
TORSDOF 0
ENDMDL
MODEL 4
REMARK VINA RESULT:      -6.8      2.042      2.640
REMARK  Name = 
REMARK  2 active torsions:
REMARK  status: ('A' for Active; 'I' for Inactive)
REMARK    1  A    between atoms: C_1  and  C_2
REMARK    2  A    between atoms: C_11  and  C_12
REMARK                            x       y       z     vdW  Elec       q    Type
REMARK                         _______ _______ _______ _____ _____    ______ ____
ROOT
ATOM      1  C   UNL     1      10.505   1.839  24.101  0.00  0.00    +0.044 C 
ATOM      2  C   UNL     1       9.743   0.550  23.961  0.00  0.00    -0.045 A 
ATOM      3  C   UNL     1       9.181   0.160  22.736  0.00  0.00    -0.045 A 
ATOM      4  C   UNL     1       9.313   1.005  21.499  0.00  0.00    +0.044 C 
ATOM      5  C   UNL     1       8.478  -1.052  22.666  0.00  0.00    +0.033 A 
ATOM      6  C   UNL     1       8.323  -1.879  23.769  0.00  0.00    +0.090 A 
ATOM      7  C   UNL     1       8.891  -1.490  25.010  0.00  0.00    +0.092 A 
ATOM      8  N   UNL     1       8.771  -2.261  26.116  0.00  0.00    -0.226 NA
ATOM      9  C   UNL     1       8.083  -3.411  25.970  0.00  0.00    +0.166 A 
ATOM     10  N   UNL     1       7.945  -4.223  27.089  0.00  0.00    -0.291 N 
ATOM     11  H   UNL     1       8.364  -3.915  27.954  0.00  0.00    +0.172 HD
ATOM     12  C   UNL     1       7.275  -5.406  27.071  0.00  0.00    +0.328 A 
ATOM     13  O   UNL     1       7.167  -6.105  28.073  0.00  0.00    -0.247 OA
ATOM     14  N   UNL     1       6.728  -5.774  25.875  0.00  0.00    -0.273 N 
ATOM     15  H   UNL     1       6.227  -6.652  25.851  0.00  0.00    +0.173 HD
ATOM     16  C   UNL     1       6.793  -5.064  24.695  0.00  0.00    +0.282 A 
ATOM     17  O   UNL     1       6.265  -5.485  23.672  0.00  0.00    -0.265 OA
ATOM     18  C   UNL     1       7.531  -3.782  24.755  0.00  0.00    +0.171 A 
ATOM     19  N   UNL     1       7.638  -3.028  23.636  0.00  0.00    -0.237 NA
ATOM     20  C   UNL     1       9.586  -0.288  25.079  0.00  0.00    +0.033 A 
ENDROOT
TORSDOF 0
ENDMDL
MODEL 5
REMARK VINA RESULT:      -6.7      3.515      6.481
REMARK  Name = 
REMARK  2 active torsions:
REMARK  status: ('A' for Active; 'I' for Inactive)
REMARK    1  A    between atoms: C_1  and  C_2
REMARK    2  A    between atoms: C_11  and  C_12
REMARK                            x       y       z     vdW  Elec       q    Type
REMARK                         _______ _______ _______ _____ _____    ______ ____
ROOT
ATOM      1  C   UNL     1       6.068  -6.009  21.116  0.00  0.00    +0.044 C 
ATOM      2  C   UNL     1       6.477  -5.113  22.253  0.00  0.00    -0.045 A 
ATOM      3  C   UNL     1       5.952  -5.280  23.543  0.00  0.00    -0.045 A 
ATOM      4  C   UNL     1       4.958  -6.364  23.859  0.00  0.00    +0.044 C 
ATOM      5  C   UNL     1       6.368  -4.412  24.564  0.00  0.00    +0.033 A 
ATOM      6  C   UNL     1       7.283  -3.395  24.338  0.00  0.00    +0.090 A 
ATOM      7  C   UNL     1       7.819  -3.222  23.035  0.00  0.00    +0.092 A 
ATOM      8  N   UNL     1       8.716  -2.247  22.763  0.00  0.00    -0.226 NA
ATOM      9  C   UNL     1       9.068  -1.454  23.794  0.00  0.00    +0.166 A 
ATOM     10  N   UNL     1       9.989  -0.445  23.543  0.00  0.00    -0.291 N 
ATOM     11  H   UNL     1      10.350  -0.353  22.605  0.00  0.00    +0.172 HD
ATOM     12  C   UNL     1      10.424   0.420  24.498  0.00  0.00    +0.328 A 
ATOM     13  O   UNL     1      11.238   1.303  24.251  0.00  0.00    -0.247 OA
ATOM     14  N   UNL     1       9.904   0.251  25.750  0.00  0.00    -0.273 N 
ATOM     15  H   UNL     1      10.220   0.889  26.467  0.00  0.00    +0.173 HD
ATOM     16  C   UNL     1       8.988  -0.707  26.131  0.00  0.00    +0.282 A 
ATOM     17  O   UNL     1       8.582  -0.773  27.285  0.00  0.00    -0.265 OA
ATOM     18  C   UNL     1       8.540  -1.628  25.063  0.00  0.00    +0.171 A 
ATOM     19  N   UNL     1       7.641  -2.597  25.360  0.00  0.00    -0.237 NA
ATOM     20  C   UNL     1       7.405  -4.082  22.025  0.00  0.00    +0.033 A 
ENDROOT
TORSDOF 0
ENDMDL
MODEL 6
REMARK VINA RESULT:      -6.6      4.031      5.601
REMARK  Name = 
REMARK  2 active torsions:
REMARK  status: ('A' for Active; 'I' for Inactive)
REMARK    1  A    between atoms: C_1  and  C_2
REMARK    2  A    between atoms: C_11  and  C_12
REMARK                            x       y       z     vdW  Elec       q    Type
REMARK                         _______ _______ _______ _____ _____    ______ ____
ROOT
ATOM      1  C   UNL     1       9.077   6.213  24.257  0.00  0.00    +0.044 C 
ATOM      2  C   UNL     1       9.394   4.788  23.896  0.00  0.00    -0.045 A 
ATOM      3  C   UNL     1      10.709   4.369  23.648  0.00  0.00    -0.045 A 
ATOM      4  C   UNL     1      11.872   5.319  23.735  0.00  0.00    +0.044 C 
ATOM      5  C   UNL     1      10.943   3.027  23.313  0.00  0.00    +0.033 A 
ATOM      6  C   UNL     1       9.915   2.100  23.220  0.00  0.00    +0.090 A 
ATOM      7  C   UNL     1       8.582   2.519  23.471  0.00  0.00    +0.092 A 
ATOM      8  N   UNL     1       7.544   1.655  23.395  0.00  0.00    -0.226 NA
ATOM      9  C   UNL     1       7.848   0.383  23.069  0.00  0.00    +0.166 A 
ATOM     10  N   UNL     1       6.801  -0.526  22.985  0.00  0.00    -0.291 N 
ATOM     11  H   UNL     1       5.866  -0.194  23.172  0.00  0.00    +0.172 HD
ATOM     12  C   UNL     1       6.977  -1.836  22.665  0.00  0.00    +0.328 A 
ATOM     13  O   UNL     1       6.035  -2.619  22.598  0.00  0.00    -0.247 OA
ATOM     14  N   UNL     1       8.262  -2.233  22.422  0.00  0.00    -0.273 N 
ATOM     15  H   UNL     1       8.403  -3.204  22.183  0.00  0.00    +0.173 HD
ATOM     16  C   UNL     1       9.385  -1.435  22.472  0.00  0.00    +0.282 A 
ATOM     17  O   UNL     1      10.497  -1.892  22.235  0.00  0.00    -0.265 OA
ATOM     18  C   UNL     1       9.151  -0.017  22.824  0.00  0.00    +0.171 A 
ATOM     19  N   UNL     1      10.207   0.829  22.894  0.00  0.00    -0.237 NA
ATOM     20  C   UNL     1       8.352   3.849  23.801  0.00  0.00    +0.033 A 
ENDROOT
TORSDOF 0
ENDMDL
MODEL 7
REMARK VINA RESULT:      -6.5      2.521      3.394
REMARK  Name = 
REMARK  2 active torsions:
REMARK  status: ('A' for Active; 'I' for Inactive)
REMARK    1  A    between atoms: C_1  and  C_2
REMARK    2  A    between atoms: C_11  and  C_12
REMARK                            x       y       z     vdW  Elec       q    Type
REMARK                         _______ _______ _______ _____ _____    ______ ____
ROOT
ATOM      1  C   UNL     1       7.894   3.281  22.290  0.00  0.00    +0.044 C 
ATOM      2  C   UNL     1       8.331   1.919  22.756  0.00  0.00    -0.045 A 
ATOM      3  C   UNL     1       9.610   1.702  23.290  0.00  0.00    -0.045 A 
ATOM      4  C   UNL     1      10.610   2.817  23.429  0.00  0.00    +0.044 C 
ATOM      5  C   UNL     1       9.961   0.409  23.705  0.00  0.00    +0.033 A 
ATOM      6  C   UNL     1       9.085  -0.662  23.607  0.00  0.00    +0.090 A 
ATOM      7  C   UNL     1       7.789  -0.447  23.070  0.00  0.00    +0.092 A 
ATOM      8  N   UNL     1       6.895  -1.456  22.953  0.00  0.00    -0.226 NA
ATOM      9  C   UNL     1       7.305  -2.669  23.375  0.00  0.00    +0.166 A 
ATOM     10  N   UNL     1       6.408  -3.723  23.268  0.00  0.00    -0.291 N 
ATOM     11  H   UNL     1       5.494  -3.533  22.883  0.00  0.00    +0.172 HD
ATOM     12  C   UNL     1       6.701  -4.992  23.658  0.00  0.00    +0.328 A 
ATOM     13  O   UNL     1       5.890  -5.906  23.554  0.00  0.00    -0.247 OA
ATOM     14  N   UNL     1       7.950  -5.194  24.173  0.00  0.00    -0.273 N 
ATOM     15  H   UNL     1       8.178  -6.134  24.465  0.00  0.00    +0.173 HD
ATOM     16  C   UNL     1       8.931  -4.238  24.333  0.00  0.00    +0.282 A 
ATOM     17  O   UNL     1      10.024  -4.525  24.807  0.00  0.00    -0.265 OA
ATOM     18  C   UNL     1       8.572  -2.870  23.897  0.00  0.00    +0.171 A 
ATOM     19  N   UNL     1       9.484  -1.876  24.024  0.00  0.00    -0.237 NA
ATOM     20  C   UNL     1       7.442   0.834  22.656  0.00  0.00    +0.033 A 
ENDROOT
TORSDOF 0
ENDMDL
MODEL 8
REMARK VINA RESULT:      -6.4      2.809      3.675
REMARK  Name = 
REMARK  2 active torsions:
REMARK  status: ('A' for Active; 'I' for Inactive)
REMARK    1  A    between atoms: C_1  and  C_2
REMARK    2  A    between atoms: C_11  and  C_12
REMARK                            x       y       z     vdW  Elec       q    Type
REMARK                         _______ _______ _______ _____ _____    ______ ____
ROOT
ATOM      1  C   UNL     1      10.138   3.753  23.735  0.00  0.00    +0.044 C 
ATOM      2  C   UNL     1       9.373   2.480  23.498  0.00  0.00    -0.045 A 
ATOM      3  C   UNL     1       8.160   2.474  22.794  0.00  0.00    -0.045 A 
ATOM      4  C   UNL     1       7.562   3.736  22.235  0.00  0.00    +0.044 C 
ATOM      5  C   UNL     1       7.490   1.256  22.606  0.00  0.00    +0.033 A 
ATOM      6  C   UNL     1       7.989   0.057  23.093  0.00  0.00    +0.090 A 
ATOM      7  C   UNL     1       9.217   0.057  23.804  0.00  0.00    +0.092 A 
ATOM      8  N   UNL     1       9.749  -1.085  24.298  0.00  0.00    -0.226 NA
ATOM      9  C   UNL     1       9.048  -2.215  24.076  0.00  0.00    +0.166 A 
ATOM     10  N   UNL     1       9.571  -3.402  24.571  0.00  0.00    -0.291 N 
ATOM     11  H   UNL     1      10.448  -3.365  25.071  0.00  0.00    +0.172 HD
ATOM     12  C   UNL     1       8.960  -4.607  24.414  0.00  0.00    +0.328 A 
ATOM     13  O   UNL     1       9.443  -5.642  24.860  0.00  0.00    -0.247 OA
ATOM     14  N   UNL     1       7.777  -4.602  23.730  0.00  0.00    -0.273 N 
ATOM     15  H   UNL     1       7.315  -5.492  23.608  0.00  0.00    +0.173 HD
ATOM     16  C   UNL     1       7.153  -3.498  23.189  0.00  0.00    +0.282 A 
ATOM     17  O   UNL     1       6.088  -3.601  22.592  0.00  0.00    -0.265 OA
ATOM     18  C   UNL     1       7.850  -2.206  23.382  0.00  0.00    +0.171 A 
ATOM     19  N   UNL     1       7.298  -1.076  22.878  0.00  0.00    -0.237 NA
ATOM     20  C   UNL     1       9.880   1.265  23.991  0.00  0.00    +0.033 A 
ENDROOT
TORSDOF 0
ENDMDL
MODEL 9
REMARK VINA RESULT:      -6.4      2.336      3.197
REMARK  Name = 
REMARK  2 active torsions:
REMARK  status: ('A' for Active; 'I' for Inactive)
REMARK    1  A    between atoms: C_1  and  C_2
REMARK    2  A    between atoms: C_11  and  C_12
REMARK                            x       y       z     vdW  Elec       q    Type
REMARK                         _______ _______ _______ _____ _____    ______ ____
ROOT
ATOM      1  C   UNL     1       9.867  -0.755  24.599  0.00  0.00    +0.044 C 
ATOM      2  C   UNL     1       8.912  -1.917  24.606  0.00  0.00    -0.045 A 
ATOM      3  C   UNL     1       8.373  -2.431  23.417  0.00  0.00    -0.045 A 
ATOM      4  C   UNL     1       8.723  -1.853  22.074  0.00  0.00    +0.044 C 
ATOM      5  C   UNL     1       7.484  -3.515  23.487  0.00  0.00    +0.033 A 
ATOM      6  C   UNL     1       7.123  -4.096  24.694  0.00  0.00    +0.090 A 
ATOM      7  C   UNL     1       7.667  -3.581  25.900  0.00  0.00    +0.092 A 
ATOM      8  N   UNL     1       7.349  -4.112  27.102  0.00  0.00    -0.226 NA
ATOM      9  C   UNL     1       6.491  -5.152  27.088  0.00  0.00    +0.166 A 
ATOM     10  N   UNL     1       6.148  -5.717  28.309  0.00  0.00    -0.291 N 
ATOM     11  H   UNL     1       6.556  -5.326  29.147  0.00  0.00    +0.172 HD
ATOM     12  C   UNL     1       5.294  -6.769  28.429  0.00  0.00    +0.328 A 
ATOM     13  O   UNL     1       5.007  -7.251  29.519  0.00  0.00    -0.247 OA
ATOM     14  N   UNL     1       4.771  -7.259  27.265  0.00  0.00    -0.273 N 
ATOM     15  H   UNL     1       4.135  -8.040  27.343  0.00  0.00    +0.173 HD
ATOM     16  C   UNL     1       5.029  -6.791  25.995  0.00  0.00    +0.282 A 
ATOM     17  O   UNL     1       4.506  -7.304  25.012  0.00  0.00    -0.265 OA
ATOM     18  C   UNL     1       5.964  -5.647  25.907  0.00  0.00    +0.171 A 
ATOM     19  N   UNL     1       6.267  -5.132  24.692  0.00  0.00    -0.237 NA
ATOM     20  C   UNL     1       8.546  -2.506  25.829  0.00  0.00    +0.033 A 
ENDROOT
TORSDOF 0
ENDMDL
