MODEL 1
REMARK VINA RESULT:      -8.3      0.000      0.000
REMARK  Name = 
REMARK  5 active torsions:
REMARK  status: ('A' for Active; 'I' for Inactive)
REMARK    1  A    between atoms: C_9  and  O_10
REMARK    2  A    between atoms: O_10  and  C_11
REMARK    3  A    between atoms: C_11  and  C_12
REMARK    4  A    between atoms: N_15  and  C_16
REMARK    5  A    between atoms: C_16  and  C_17
REMARK                            x       y       z     vdW  Elec       q    Type
REMARK                         _______ _______ _______ _____ _____    ______ ____
ROOT
ATOM      1  O   UNL     1       9.065  -4.267  24.102  0.00  0.00    -0.491 OA
ENDROOT
BRANCH   1  12
ATOM      2  N   UNL     1       4.589  -7.255  27.364  0.00  0.00    -0.327 N 
ATOM      3  H   UNL     1       4.663  -6.891  28.303  0.00  0.00    +0.145 HD
ATOM      4  H   UNL     1       3.664  -7.369  26.977  0.00  0.00    +0.145 HD
ATOM      5  C   UNL     1       5.352  -6.492  26.511  0.00  0.00    +0.215 A 
ATOM      6  N   UNL     1       6.389  -5.835  27.021  0.00  0.00    -0.199 NA
ATOM      7  C   UNL     1       7.165  -5.172  26.156  0.00  0.00    +0.133 A 
ATOM      8  N   UNL     1       8.119  -4.334  26.746  0.00  0.00    -0.342 N 
ATOM      9  H   UNL     1       8.168  -4.539  27.739  0.00  0.00    +0.144 HD
ATOM     10  H   UNL     1       9.010  -4.378  26.264  0.00  0.00    +0.144 HD
ATOM     11  C   UNL     1       6.942  -5.165  24.771  0.00  0.00    +0.082 A 
ATOM     12  C   UNL     1       7.774  -4.602  23.771  0.00  0.00    +0.133 A 
ATOM     13  C   UNL     1       7.352  -4.510  22.442  0.00  0.00    +0.046 A 
ATOM     14  C   UNL     1       6.106  -5.000  22.094  0.00  0.00    +0.006 A 
ATOM     15  C   UNL     1       5.334  -5.656  23.057  0.00  0.00    +0.029 A 
ATOM     16  C   UNL     1       5.740  -5.770  24.381  0.00  0.00    +0.081 A 
ATOM     17  N   UNL     1       4.957  -6.434  25.235  0.00  0.00    -0.214 NA
ENDBRANCH   1  12
BRANCH   1  18
ATOM     18  C   UNL     1       9.394  -2.954  23.662  0.00  0.00    +0.232 C 
BRANCH  18  19
ATOM     19  C   UNL     1       8.370  -1.940  24.197  0.00  0.00    +0.029 C 
ATOM     20  C   UNL     1       7.842  -0.984  23.114  0.00  0.00    +0.022 C 
ATOM     21  C   UNL     1       8.935  -0.039  22.594  0.00  0.00    +0.085 C 
ATOM     22  N   UNL     1       9.697   0.654  23.649  0.00  0.00    -0.298 NA
ATOM     23  C   UNL     1      10.167  -0.272  24.692  0.00  0.00    +0.085 C 
ATOM     24  C   UNL     1       9.043  -1.116  25.292  0.00  0.00    +0.022 C 
BRANCH  22  25
ATOM     25  C   UNL     1       8.949   1.796  24.211  0.00  0.00    +0.121 C 
BRANCH  25  26
ATOM     26  C   UNL     1       9.659   3.114  23.955  0.00  0.00    -0.014 A 
ATOM     27  C   UNL     1      10.973   3.055  23.446  0.00  0.00    +0.006 A 
ATOM     28  C   UNL     1      11.731   4.209  23.273  0.00  0.00    +0.002 A 
ATOM     29  C   UNL     1      11.194   5.446  23.613  0.00  0.00    +0.021 A 
ATOM     30  C   UNL     1       9.894   5.532  24.120  0.00  0.00    +0.060 A 
ATOM     31 CL   UNL     1       9.320   7.108  24.549  0.00  0.00    -0.082 Cl
ATOM     32  C   UNL     1       9.115   4.373  24.285  0.00  0.00    +0.064 A 
ATOM     33 CL   UNL     1       7.504   4.504  24.919  0.00  0.00    -0.082 Cl
ENDBRANCH  25  26
ENDBRANCH  22  25
ENDBRANCH  18  19
ENDBRANCH   1  18
TORSDOF 5
ENDMDL
MODEL 2
REMARK VINA RESULT:      -8.2      1.323      2.307
REMARK  Name = 
REMARK  5 active torsions:
REMARK  status: ('A' for Active; 'I' for Inactive)
REMARK    1  A    between atoms: C_9  and  O_10
REMARK    2  A    between atoms: O_10  and  C_11
REMARK    3  A    between atoms: C_11  and  C_12
REMARK    4  A    between atoms: N_15  and  C_16
REMARK    5  A    between atoms: C_16  and  C_17
REMARK                            x       y       z     vdW  Elec       q    Type
REMARK                         _______ _______ _______ _____ _____    ______ ____
ROOT
ATOM      1  O   UNL     1       9.021  -4.218  23.726  0.00  0.00    -0.491 OA
ENDROOT
BRANCH   1  12
ATOM      2  N   UNL     1       2.817  -5.162  23.258  0.00  0.00    -0.327 N 
ATOM      3  H   UNL     1       2.675  -5.502  22.318  0.00  0.00    +0.145 HD
ATOM      4  H   UNL     1       2.311  -5.617  24.003  0.00  0.00    +0.145 HD
ATOM      5  C   UNL     1       4.161  -5.160  23.550  0.00  0.00    +0.215 A 
ATOM      6  N   UNL     1       5.019  -5.062  22.538  0.00  0.00    -0.199 NA
ATOM      7  C   UNL     1       6.315  -4.974  22.858  0.00  0.00    +0.133 A 
ATOM      8  N   UNL     1       7.194  -5.076  21.772  0.00  0.00    -0.342 N 
ATOM      9  H   UNL     1       6.663  -5.005  20.911  0.00  0.00    +0.144 HD
ATOM     10  H   UNL     1       7.964  -4.420  21.847  0.00  0.00    +0.144 HD
ATOM     11  C   UNL     1       6.784  -4.959  24.180  0.00  0.00    +0.082 A 
ATOM     12  C   UNL     1       8.115  -4.744  24.616  0.00  0.00    +0.133 A 
ATOM     13  C   UNL     1       8.481  -4.927  25.952  0.00  0.00    +0.046 A 
ATOM     14  C   UNL     1       7.516  -5.304  26.870  0.00  0.00    +0.006 A 
ATOM     15  C   UNL     1       6.184  -5.406  26.461  0.00  0.00    +0.029 A 
ATOM     16  C   UNL     1       5.797  -5.216  25.140  0.00  0.00    +0.081 A 
ATOM     17  N   UNL     1       4.500  -5.307  24.835  0.00  0.00    -0.214 NA
ENDBRANCH   1  12
BRANCH   1  18
ATOM     18  C   UNL     1       9.477  -2.935  24.140  0.00  0.00    +0.232 C 
BRANCH  18  19
ATOM     19  C   UNL     1       8.323  -1.920  24.098  0.00  0.00    +0.029 C 
ATOM     20  C   UNL     1       8.224  -1.170  22.759  0.00  0.00    +0.022 C 
ATOM     21  C   UNL     1       9.427  -0.245  22.525  0.00  0.00    +0.085 C 
ATOM     22  N   UNL     1       9.745   0.643  23.657  0.00  0.00    -0.298 NA
ATOM     23  C   UNL     1       9.805  -0.087  24.934  0.00  0.00    +0.085 C 
ATOM     24  C   UNL     1       8.543  -0.902  25.215  0.00  0.00    +0.022 C 
BRANCH  22  25
ATOM     25  C   UNL     1       8.838   1.806  23.720  0.00  0.00    +0.121 C 
BRANCH  25  26
ATOM     26  C   UNL     1       9.597   3.118  23.625  0.00  0.00    -0.014 A 
ATOM     27  C   UNL     1      10.981   3.050  23.362  0.00  0.00    +0.006 A 
ATOM     28  C   UNL     1      11.771   4.195  23.355  0.00  0.00    +0.002 A 
ATOM     29  C   UNL     1      11.194   5.433  23.616  0.00  0.00    +0.021 A 
ATOM     30  C   UNL     1       9.824   5.529  23.879  0.00  0.00    +0.060 A 
ATOM     31 CL   UNL     1       9.199   7.105  24.228  0.00  0.00    -0.082 Cl
ATOM     32  C   UNL     1       9.015   4.379  23.876  0.00  0.00    +0.064 A 
ATOM     33 CL   UNL     1       7.317   4.521  24.208  0.00  0.00    -0.082 Cl
ENDBRANCH  25  26
ENDBRANCH  22  25
ENDBRANCH  18  19
ENDBRANCH   1  18
TORSDOF 5
ENDMDL
MODEL 3
REMARK VINA RESULT:      -8.1      1.892      3.042
REMARK  Name = 
REMARK  5 active torsions:
REMARK  status: ('A' for Active; 'I' for Inactive)
REMARK    1  A    between atoms: C_9  and  O_10
REMARK    2  A    between atoms: O_10  and  C_11
REMARK    3  A    between atoms: C_11  and  C_12
REMARK    4  A    between atoms: N_15  and  C_16
REMARK    5  A    between atoms: C_16  and  C_17
REMARK                            x       y       z     vdW  Elec       q    Type
REMARK                         _______ _______ _______ _____ _____    ______ ____
ROOT
ATOM      1  O   UNL     1       8.787  -4.399  23.819  0.00  0.00    -0.491 OA
ENDROOT
BRANCH   1  12
ATOM      2  N   UNL     1       2.661  -5.617  23.053  0.00  0.00    -0.327 N 
ATOM      3  H   UNL     1       2.586  -6.005  22.124  0.00  0.00    +0.145 HD
ATOM      4  H   UNL     1       2.131  -6.059  23.790  0.00  0.00    +0.145 HD
ATOM      5  C   UNL     1       3.985  -5.547  23.419  0.00  0.00    +0.215 A 
ATOM      6  N   UNL     1       4.895  -5.459  22.453  0.00  0.00    -0.199 NA
ATOM      7  C   UNL     1       6.167  -5.304  22.839  0.00  0.00    +0.133 A 
ATOM      8  N   UNL     1       7.109  -5.418  21.810  0.00  0.00    -0.342 N 
ATOM      9  H   UNL     1       6.626  -5.408  20.918  0.00  0.00    +0.144 HD
ATOM     10  H   UNL     1       7.848  -4.728  21.896  0.00  0.00    +0.144 HD
ATOM     11  C   UNL     1       6.558  -5.210  24.183  0.00  0.00    +0.082 A 
ATOM     12  C   UNL     1       7.852  -4.921  24.681  0.00  0.00    +0.133 A 
ATOM     13  C   UNL     1       8.148  -5.029  26.043  0.00  0.00    +0.046 A 
ATOM     14  C   UNL     1       7.148  -5.404  26.922  0.00  0.00    +0.006 A 
ATOM     15  C   UNL     1       5.847  -5.579  26.446  0.00  0.00    +0.029 A 
ATOM     16  C   UNL     1       5.528  -5.465  25.098  0.00  0.00    +0.081 A 
ATOM     17  N   UNL     1       4.255  -5.622  24.726  0.00  0.00    -0.214 NA
ENDBRANCH   1  12
BRANCH   1  18
ATOM     18  C   UNL     1       8.913  -2.990  23.973  0.00  0.00    +0.232 C 
BRANCH  18  19
ATOM     19  C   UNL     1       8.792  -2.291  22.609  0.00  0.00    +0.029 C 
ATOM     20  C   UNL     1      10.024  -1.442  22.253  0.00  0.00    +0.022 C 
ATOM     21  C   UNL     1      10.178  -0.230  23.183  0.00  0.00    +0.085 C 
ATOM     22  N   UNL     1       8.955   0.576  23.346  0.00  0.00    -0.298 NA
ATOM     23  C   UNL     1       7.781  -0.257  23.656  0.00  0.00    +0.085 C 
ATOM     24  C   UNL     1       7.565  -1.383  22.646  0.00  0.00    +0.022 C 
BRANCH  22  25
ATOM     25  C   UNL     1       8.720   1.465  22.192  0.00  0.00    +0.121 C 
BRANCH  25  26
ATOM     26  C   UNL     1       8.262   2.846  22.630  0.00  0.00    -0.014 A 
ATOM     27  C   UNL     1       6.919   3.195  22.376  0.00  0.00    +0.006 A 
ATOM     28  C   UNL     1       6.440   4.471  22.654  0.00  0.00    +0.002 A 
ATOM     29  C   UNL     1       7.297   5.429  23.188  0.00  0.00    +0.021 A 
ATOM     30  C   UNL     1       8.633   5.109  23.449  0.00  0.00    +0.060 A 
ATOM     31 CL   UNL     1       9.635   6.372  24.079  0.00  0.00    -0.082 Cl
ATOM     32  C   UNL     1       9.122   3.818  23.183  0.00  0.00    +0.064 A 
ATOM     33 CL   UNL     1      10.785   3.444  23.513  0.00  0.00    -0.082 Cl
ENDBRANCH  25  26
ENDBRANCH  22  25
ENDBRANCH  18  19
ENDBRANCH   1  18
TORSDOF 5
ENDMDL
MODEL 4
REMARK VINA RESULT:      -8.0      1.349      2.117
REMARK  Name = 
REMARK  5 active torsions:
REMARK  status: ('A' for Active; 'I' for Inactive)
REMARK    1  A    between atoms: C_9  and  O_10
REMARK    2  A    between atoms: O_10  and  C_11
REMARK    3  A    between atoms: C_11  and  C_12
REMARK    4  A    between atoms: N_15  and  C_16
REMARK    5  A    between atoms: C_16  and  C_17
REMARK                            x       y       z     vdW  Elec       q    Type
REMARK                         _______ _______ _______ _____ _____    ______ ____
ROOT
ATOM      1  O   UNL     1       8.121  -4.240  23.970  0.00  0.00    -0.491 OA
ENDROOT
BRANCH   1  12
ATOM      2  N   UNL     1       5.738  -7.457  28.825  0.00  0.00    -0.327 N 
ATOM      3  H   UNL     1       6.110  -7.004  29.647  0.00  0.00    +0.145 HD
ATOM      4  H   UNL     1       4.763  -7.720  28.836  0.00  0.00    +0.145 HD
ATOM      5  C   UNL     1       5.992  -6.685  27.716  0.00  0.00    +0.215 A 
ATOM      6  N   UNL     1       7.035  -5.860  27.756  0.00  0.00    -0.199 NA
ATOM      7  C   UNL     1       7.311  -5.187  26.634  0.00  0.00    +0.133 A 
ATOM      8  N   UNL     1       8.281  -4.187  26.774  0.00  0.00    -0.342 N 
ATOM      9  H   UNL     1       8.736  -4.294  27.674  0.00  0.00    +0.144 HD
ATOM     10  H   UNL     1       8.916  -4.163  25.983  0.00  0.00    +0.144 HD
ATOM     11  C   UNL     1       6.576  -5.333  25.448  0.00  0.00    +0.082 A 
ATOM     12  C   UNL     1       6.867  -4.763  24.183  0.00  0.00    +0.133 A 
ATOM     13  C   UNL     1       5.959  -4.843  23.124  0.00  0.00    +0.046 A 
ATOM     14  C   UNL     1       4.764  -5.514  23.309  0.00  0.00    +0.006 A 
ATOM     15  C   UNL     1       4.528  -6.172  24.519  0.00  0.00    +0.029 A 
ATOM     16  C   UNL     1       5.422  -6.114  25.582  0.00  0.00    +0.081 A 
ATOM     17  N   UNL     1       5.134  -6.792  26.696  0.00  0.00    -0.214 NA
ENDBRANCH   1  12
BRANCH   1  18
ATOM     18  C   UNL     1       8.090  -3.172  23.030  0.00  0.00    +0.232 C 
BRANCH  18  19
ATOM     19  C   UNL     1       9.413  -2.390  23.068  0.00  0.00    +0.029 C 
ATOM     20  C   UNL     1       9.791  -1.909  24.480  0.00  0.00    +0.022 C 
ATOM     21  C   UNL     1       8.815  -0.848  25.009  0.00  0.00    +0.085 C 
ATOM     22  N   UNL     1       8.554   0.263  24.075  0.00  0.00    -0.298 NA
ATOM     23  C   UNL     1       8.225  -0.216  22.723  0.00  0.00    +0.085 C 
ATOM     24  C   UNL     1       9.273  -1.173  22.157  0.00  0.00    +0.022 C 
BRANCH  22  25
ATOM     25  C   UNL     1       9.653   1.248  24.066  0.00  0.00    +0.121 C 
BRANCH  25  26
ATOM     26  C   UNL     1       9.180   2.624  24.503  0.00  0.00    -0.014 A 
ATOM     27  C   UNL     1       7.986   2.691  25.252  0.00  0.00    +0.006 A 
ATOM     28  C   UNL     1       7.428   3.915  25.609  0.00  0.00    +0.002 A 
ATOM     29  C   UNL     1       8.050   5.097  25.222  0.00  0.00    +0.021 A 
ATOM     30  C   UNL     1       9.234   5.058  24.480  0.00  0.00    +0.060 A 
ATOM     31 CL   UNL     1       9.919   6.577  24.012  0.00  0.00    -0.082 Cl
ATOM     32  C   UNL     1       9.812   3.826  24.125  0.00  0.00    +0.064 A 
ATOM     33 CL   UNL     1      11.282   3.802  23.202  0.00  0.00    -0.082 Cl
ENDBRANCH  25  26
ENDBRANCH  22  25
ENDBRANCH  18  19
ENDBRANCH   1  18
TORSDOF 5
ENDMDL
MODEL 5
REMARK VINA RESULT:      -7.7      3.879      9.228
REMARK  Name = 
REMARK  5 active torsions:
REMARK  status: ('A' for Active; 'I' for Inactive)
REMARK    1  A    between atoms: C_9  and  O_10
REMARK    2  A    between atoms: O_10  and  C_11
REMARK    3  A    between atoms: C_11  and  C_12
REMARK    4  A    between atoms: N_15  and  C_16
REMARK    5  A    between atoms: C_16  and  C_17
REMARK                            x       y       z     vdW  Elec       q    Type
REMARK                         _______ _______ _______ _____ _____    ______ ____
ROOT
ATOM      1  O   UNL     1       9.205   0.915  22.401  0.00  0.00    -0.491 OA
ENDROOT
BRANCH   1  12
ATOM      2  N   UNL     1       4.902   5.505  22.370  0.00  0.00    -0.327 N 
ATOM      3  H   UNL     1       4.020   5.038  22.525  0.00  0.00    +0.145 HD
ATOM      4  H   UNL     1       5.069   6.368  22.867  0.00  0.00    +0.145 HD
ATOM      5  C   UNL     1       5.936   4.631  22.606  0.00  0.00    +0.215 A 
ATOM      6  N   UNL     1       5.698   3.330  22.463  0.00  0.00    -0.199 NA
ATOM      7  C   UNL     1       6.744   2.509  22.613  0.00  0.00    +0.133 A 
ATOM      8  N   UNL     1       6.418   1.148  22.655  0.00  0.00    -0.342 N 
ATOM      9  H   UNL     1       5.452   1.031  22.368  0.00  0.00    +0.144 HD
ATOM     10  H   UNL     1       7.082   0.584  22.136  0.00  0.00    +0.144 HD
ATOM     11  C   UNL     1       8.044   2.959  22.884  0.00  0.00    +0.082 A 
ATOM     12  C   UNL     1       9.228   2.181  22.935  0.00  0.00    +0.133 A 
ATOM     13  C   UNL     1      10.434   2.722  23.388  0.00  0.00    +0.046 A 
ATOM     14  C   UNL     1      10.475   4.051  23.773  0.00  0.00    +0.006 A 
ATOM     15  C   UNL     1       9.336   4.845  23.617  0.00  0.00    +0.029 A 
ATOM     16  C   UNL     1       8.130   4.330  23.157  0.00  0.00    +0.081 A 
ATOM     17  N   UNL     1       7.095   5.161  23.011  0.00  0.00    -0.214 NA
ENDBRANCH   1  12
BRANCH   1  18
ATOM     18  C   UNL     1       9.656  -0.056  23.339  0.00  0.00    +0.232 C 
BRANCH  18  19
ATOM     19  C   UNL     1       9.797  -1.429  22.659  0.00  0.00    +0.029 C 
ATOM     20  C   UNL     1       8.502  -1.903  21.979  0.00  0.00    +0.022 C 
ATOM     21  C   UNL     1       7.392  -2.202  22.997  0.00  0.00    +0.085 C 
ATOM     22  N   UNL     1       7.803  -3.069  24.115  0.00  0.00    -0.298 NA
ATOM     23  C   UNL     1       9.060  -2.616  24.733  0.00  0.00    +0.085 C 
ATOM     24  C   UNL     1      10.195  -2.448  23.723  0.00  0.00    +0.022 C 
BRANCH  22  25
ATOM     25  C   UNL     1       7.854  -4.491  23.723  0.00  0.00    +0.121 C 
BRANCH  25  26
ATOM     26  C   UNL     1       6.679  -5.272  24.287  0.00  0.00    -0.014 A 
ATOM     27  C   UNL     1       5.614  -5.564  23.410  0.00  0.00    +0.006 A 
ATOM     28  C   UNL     1       4.457  -6.189  23.865  0.00  0.00    +0.002 A 
ATOM     29  C   UNL     1       4.339  -6.531  25.209  0.00  0.00    +0.021 A 
ATOM     30  C   UNL     1       5.381  -6.252  26.099  0.00  0.00    +0.060 A 
ATOM     31 CL   UNL     1       5.132  -6.680  27.757  0.00  0.00    -0.082 Cl
ATOM     32  C   UNL     1       6.559  -5.633  25.646  0.00  0.00    +0.064 A 
ATOM     33 CL   UNL     1       7.838  -5.295  26.769  0.00  0.00    -0.082 Cl
ENDBRANCH  25  26
ENDBRANCH  22  25
ENDBRANCH  18  19
ENDBRANCH   1  18
TORSDOF 5
ENDMDL
MODEL 6
REMARK VINA RESULT:      -7.6      1.820      2.822
REMARK  Name = 
REMARK  5 active torsions:
REMARK  status: ('A' for Active; 'I' for Inactive)
REMARK    1  A    between atoms: C_9  and  O_10
REMARK    2  A    between atoms: O_10  and  C_11
REMARK    3  A    between atoms: C_11  and  C_12
REMARK    4  A    between atoms: N_15  and  C_16
REMARK    5  A    between atoms: C_16  and  C_17
REMARK                            x       y       z     vdW  Elec       q    Type
REMARK                         _______ _______ _______ _____ _____    ______ ____
ROOT
ATOM      1  O   UNL     1       7.955  -3.639  23.223  0.00  0.00    -0.491 OA
ENDROOT
BRANCH   1  12
ATOM      2  N   UNL     1       3.709  -7.309  26.069  0.00  0.00    -0.327 N 
ATOM      3  H   UNL     1       3.321  -7.879  25.332  0.00  0.00    +0.145 HD
ATOM      4  H   UNL     1       3.927  -7.760  26.945  0.00  0.00    +0.145 HD
ATOM      5  C   UNL     1       4.821  -6.647  25.604  0.00  0.00    +0.215 A 
ATOM      6  N   UNL     1       4.905  -6.411  24.298  0.00  0.00    -0.199 NA
ATOM      7  C   UNL     1       5.953  -5.688  23.885  0.00  0.00    +0.133 A 
ATOM      8  N   UNL     1       6.116  -5.634  22.495  0.00  0.00    -0.342 N 
ATOM      9  H   UNL     1       5.282  -6.002  22.051  0.00  0.00    +0.144 HD
ATOM     10  H   UNL     1       6.384  -4.707  22.183  0.00  0.00    +0.144 HD
ATOM     11  C   UNL     1       6.922  -5.169  24.757  0.00  0.00    +0.082 A 
ATOM     12  C   UNL     1       7.989  -4.295  24.431  0.00  0.00    +0.133 A 
ATOM     13  C   UNL     1       8.988  -3.990  25.358  0.00  0.00    +0.046 A 
ATOM     14  C   UNL     1       8.920  -4.537  26.628  0.00  0.00    +0.006 A 
ATOM     15  C   UNL     1       7.810  -5.308  26.983  0.00  0.00    +0.029 A 
ATOM     16  C   UNL     1       6.798  -5.612  26.080  0.00  0.00    +0.081 A 
ATOM     17  N   UNL     1       5.758  -6.334  26.505  0.00  0.00    -0.214 NA
ENDBRANCH   1  12
BRANCH   1  18
ATOM     18  C   UNL     1       8.718  -2.438  23.259  0.00  0.00    +0.232 C 
BRANCH  18  19
ATOM     19  C   UNL     1       8.205  -1.449  22.199  0.00  0.00    +0.029 C 
ATOM     20  C   UNL     1       9.335  -0.708  21.465  0.00  0.00    +0.022 C 
ATOM     21  C   UNL     1      10.102   0.242  22.396  0.00  0.00    +0.085 C 
ATOM     22  N   UNL     1       9.247   1.143  23.190  0.00  0.00    -0.298 NA
ATOM     23  C   UNL     1       8.154   0.420  23.860  0.00  0.00    +0.085 C 
ATOM     24  C   UNL     1       7.317  -0.422  22.897  0.00  0.00    +0.022 C 
BRANCH  22  25
ATOM     25  C   UNL     1       8.757   2.285  22.394  0.00  0.00    +0.121 C 
BRANCH  25  26
ATOM     26  C   UNL     1       8.287   3.427  23.279  0.00  0.00    -0.014 A 
ATOM     27  C   UNL     1       9.246   4.039  24.114  0.00  0.00    +0.006 A 
ATOM     28  C   UNL     1       8.883   5.025  25.026  0.00  0.00    +0.002 A 
ATOM     29  C   UNL     1       7.552   5.417  25.126  0.00  0.00    +0.021 A 
ATOM     30  C   UNL     1       6.582   4.827  24.311  0.00  0.00    +0.060 A 
ATOM     31 CL   UNL     1       4.947   5.351  24.529  0.00  0.00    -0.082 Cl
ATOM     32  C   UNL     1       6.941   3.839  23.377  0.00  0.00    +0.064 A 
ATOM     33 CL   UNL     1       5.719   3.118  22.376  0.00  0.00    -0.082 Cl
ENDBRANCH  25  26
ENDBRANCH  22  25
ENDBRANCH  18  19
ENDBRANCH   1  18
TORSDOF 5
ENDMDL
MODEL 7
REMARK VINA RESULT:      -7.6      3.843      9.702
REMARK  Name = 
REMARK  5 active torsions:
REMARK  status: ('A' for Active; 'I' for Inactive)
REMARK    1  A    between atoms: C_9  and  O_10
REMARK    2  A    between atoms: O_10  and  C_11
REMARK    3  A    between atoms: C_11  and  C_12
REMARK    4  A    between atoms: N_15  and  C_16
REMARK    5  A    between atoms: C_16  and  C_17
REMARK                            x       y       z     vdW  Elec       q    Type
REMARK                         _______ _______ _______ _____ _____    ______ ____
ROOT
ATOM      1  O   UNL     1       8.203   2.028  23.944  0.00  0.00    -0.491 OA
ENDROOT
BRANCH   1  12
ATOM      2  N   UNL     1      12.947   6.161  23.835  0.00  0.00    -0.327 N 
ATOM      3  H   UNL     1      13.506   5.896  23.037  0.00  0.00    +0.145 HD
ATOM      4  H   UNL     1      12.773   7.144  23.980  0.00  0.00    +0.145 HD
ATOM      5  C   UNL     1      11.751   5.481  23.808  0.00  0.00    +0.215 A 
ATOM      6  N   UNL     1      11.711   4.315  23.170  0.00  0.00    -0.199 NA
ATOM      7  C   UNL     1      10.560   3.636  23.235  0.00  0.00    +0.133 A 
ATOM      8  N   UNL     1      10.491   2.521  22.391  0.00  0.00    -0.342 N 
ATOM      9  H   UNL     1      11.416   2.326  22.024  0.00  0.00    +0.144 HD
ATOM     10  H   UNL     1      10.044   1.731  22.845  0.00  0.00    +0.144 HD
ATOM     11  C   UNL     1       9.439   4.086  23.948  0.00  0.00    +0.082 A 
ATOM     12  C   UNL     1       8.230   3.383  24.177  0.00  0.00    +0.133 A 
ATOM     13  C   UNL     1       7.123   4.010  24.755  0.00  0.00    +0.046 A 
ATOM     14  C   UNL     1       7.220   5.339  25.131  0.00  0.00    +0.006 A 
ATOM     15  C   UNL     1       8.447   5.997  25.008  0.00  0.00    +0.029 A 
ATOM     16  C   UNL     1       9.563   5.388  24.447  0.00  0.00    +0.081 A 
ATOM     17  N   UNL     1      10.705   6.078  24.389  0.00  0.00    -0.214 NA
ENDBRANCH   1  12
BRANCH   1  18
ATOM     18  C   UNL     1       8.320   1.287  25.154  0.00  0.00    +0.232 C 
BRANCH  18  19
ATOM     19  C   UNL     1       9.285   0.105  24.964  0.00  0.00    +0.029 C 
ATOM     20  C   UNL     1       9.209  -0.518  23.560  0.00  0.00    +0.022 C 
ATOM     21  C   UNL     1       7.860  -1.207  23.307  0.00  0.00    +0.085 C 
ATOM     22  N   UNL     1       7.438  -2.136  24.371  0.00  0.00    -0.298 NA
ATOM     23  C   UNL     1       7.548  -1.532  25.709  0.00  0.00    +0.085 C 
ATOM     24  C   UNL     1       8.937  -0.964  25.996  0.00  0.00    +0.022 C 
BRANCH  22  25
ATOM     25  C   UNL     1       8.139  -3.432  24.284  0.00  0.00    +0.121 C 
BRANCH  25  26
ATOM     26  C   UNL     1       7.283  -4.491  23.611  0.00  0.00    -0.014 A 
ATOM     27  C   UNL     1       7.464  -4.688  22.227  0.00  0.00    +0.006 A 
ATOM     28  C   UNL     1       6.656  -5.567  21.512  0.00  0.00    +0.002 A 
ATOM     29  C   UNL     1       5.646  -6.265  22.167  0.00  0.00    +0.021 A 
ATOM     30  C   UNL     1       5.446  -6.087  23.539  0.00  0.00    +0.060 A 
ATOM     31 CL   UNL     1       4.144  -6.968  24.264  0.00  0.00    -0.082 Cl
ATOM     32  C   UNL     1       6.266  -5.211  24.272  0.00  0.00    +0.064 A 
ATOM     33 CL   UNL     1       5.997  -5.005  25.975  0.00  0.00    -0.082 Cl
ENDBRANCH  25  26
ENDBRANCH  22  25
ENDBRANCH  18  19
ENDBRANCH   1  18
TORSDOF 5
ENDMDL
MODEL 8
REMARK VINA RESULT:      -7.5      2.117      2.934
REMARK  Name = 
REMARK  5 active torsions:
REMARK  status: ('A' for Active; 'I' for Inactive)
REMARK    1  A    between atoms: C_9  and  O_10
REMARK    2  A    between atoms: O_10  and  C_11
REMARK    3  A    between atoms: C_11  and  C_12
REMARK    4  A    between atoms: N_15  and  C_16
REMARK    5  A    between atoms: C_16  and  C_17
REMARK                            x       y       z     vdW  Elec       q    Type
REMARK                         _______ _______ _______ _____ _____    ______ ____
ROOT
ATOM      1  O   UNL     1       8.393  -2.755  25.829  0.00  0.00    -0.491 OA
ENDROOT
BRANCH   1  12
ATOM      2  N   UNL     1       5.928  -6.195  21.172  0.00  0.00    -0.327 N 
ATOM      3  H   UNL     1       6.527  -7.005  21.101  0.00  0.00    +0.145 HD
ATOM      4  H   UNL     1       4.931  -6.342  21.117  0.00  0.00    +0.145 HD
ATOM      5  C   UNL     1       6.227  -5.500  22.321  0.00  0.00    +0.215 A 
ATOM      6  N   UNL     1       7.453  -5.619  22.821  0.00  0.00    -0.199 NA
ATOM      7  C   UNL     1       7.742  -4.864  23.887  0.00  0.00    +0.133 A 
ATOM      8  N   UNL     1       8.964  -5.165  24.503  0.00  0.00    -0.342 N 
ATOM      9  H   UNL     1       9.495  -5.782  23.898  0.00  0.00    +0.144 HD
ATOM     10  H   UNL     1       9.459  -4.327  24.788  0.00  0.00    +0.144 HD
ATOM     11  C   UNL     1       6.834  -3.964  24.463  0.00  0.00    +0.082 A 
ATOM     12  C   UNL     1       7.088  -3.039  25.505  0.00  0.00    +0.133 A 
ATOM     13  C   UNL     1       6.052  -2.320  26.108  0.00  0.00    +0.046 A 
ATOM     14  C   UNL     1       4.755  -2.501  25.659  0.00  0.00    +0.006 A 
ATOM     15  C   UNL     1       4.521  -3.328  24.558  0.00  0.00    +0.029 A 
ATOM     16  C   UNL     1       5.538  -4.042  23.936  0.00  0.00    +0.081 A 
ATOM     17  N   UNL     1       5.236  -4.792  22.873  0.00  0.00    -0.214 NA
ENDBRANCH   1  12
BRANCH   1  18
ATOM     18  C   UNL     1       8.661  -1.359  25.750  0.00  0.00    +0.232 C 
BRANCH  18  19
ATOM     19  C   UNL     1       8.754  -0.917  24.280  0.00  0.00    +0.029 C 
ATOM     20  C   UNL     1      10.186  -0.562  23.845  0.00  0.00    +0.022 C 
ATOM     21  C   UNL     1      10.710   0.695  24.554  0.00  0.00    +0.085 C 
ATOM     22  N   UNL     1       9.794   1.849  24.512  0.00  0.00    -0.298 NA
ATOM     23  C   UNL     1       8.423   1.482  24.902  0.00  0.00    +0.085 C 
ATOM     24  C   UNL     1       7.865   0.310  24.095  0.00  0.00    +0.022 C 
BRANCH  22  25
ATOM     25  C   UNL     1       9.838   2.542  23.210  0.00  0.00    +0.121 C 
BRANCH  25  26
ATOM     26  C   UNL     1       9.467   4.010  23.340  0.00  0.00    -0.014 A 
ATOM     27  C   UNL     1      10.420   4.870  23.922  0.00  0.00    +0.006 A 
ATOM     28  C   UNL     1      10.128   6.208  24.170  0.00  0.00    +0.002 A 
ATOM     29  C   UNL     1       8.873   6.712  23.844  0.00  0.00    +0.021 A 
ATOM     30  C   UNL     1       7.910   5.880  23.266  0.00  0.00    +0.060 A 
ATOM     31 CL   UNL     1       6.365   6.584  22.927  0.00  0.00    -0.082 Cl
ATOM     32  C   UNL     1       8.201   4.530  23.000  0.00  0.00    +0.064 A 
ATOM     33 CL   UNL     1       6.988   3.515  22.284  0.00  0.00    -0.082 Cl
ENDBRANCH  25  26
ENDBRANCH  22  25
ENDBRANCH  18  19
ENDBRANCH   1  18
TORSDOF 5
ENDMDL
MODEL 9
REMARK VINA RESULT:      -7.5      1.791      2.546
REMARK  Name = 
REMARK  5 active torsions:
REMARK  status: ('A' for Active; 'I' for Inactive)
REMARK    1  A    between atoms: C_9  and  O_10
REMARK    2  A    between atoms: O_10  and  C_11
REMARK    3  A    between atoms: C_11  and  C_12
REMARK    4  A    between atoms: N_15  and  C_16
REMARK    5  A    between atoms: C_16  and  C_17
REMARK                            x       y       z     vdW  Elec       q    Type
REMARK                         _______ _______ _______ _____ _____    ______ ____
ROOT
ATOM      1  O   UNL     1       8.900  -2.761  23.343  0.00  0.00    -0.491 OA
ENDROOT
BRANCH   1  12
ATOM      2  N   UNL     1       6.872  -6.245  28.174  0.00  0.00    -0.327 N 
ATOM      3  H   UNL     1       6.981  -5.655  28.986  0.00  0.00    +0.145 HD
ATOM      4  H   UNL     1       6.021  -6.783  28.096  0.00  0.00    +0.145 HD
ATOM      5  C   UNL     1       7.050  -5.499  27.032  0.00  0.00    +0.215 A 
ATOM      6  N   UNL     1       7.799  -4.403  27.114  0.00  0.00    -0.199 NA
ATOM      7  C   UNL     1       8.027  -3.746  25.972  0.00  0.00    +0.133 A 
ATOM      8  N   UNL     1       8.644  -2.498  26.127  0.00  0.00    -0.342 N 
ATOM      9  H   UNL     1       8.979  -2.413  27.081  0.00  0.00    +0.144 HD
ATOM     10  H   UNL     1       9.349  -2.335  25.417  0.00  0.00    +0.144 HD
ATOM     11  C   UNL     1       7.538  -4.170  24.728  0.00  0.00    +0.082 A 
ATOM     12  C   UNL     1       7.829  -3.615  23.457  0.00  0.00    +0.133 A 
ATOM     13  C   UNL     1       7.140  -4.022  22.311  0.00  0.00    +0.046 A 
ATOM     14  C   UNL     1       6.171  -5.003  22.419  0.00  0.00    +0.006 A 
ATOM     15  C   UNL     1       5.963  -5.628  23.651  0.00  0.00    +0.029 A 
ATOM     16  C   UNL     1       6.646  -5.248  24.800  0.00  0.00    +0.081 A 
ATOM     17  N   UNL     1       6.409  -5.913  25.934  0.00  0.00    -0.214 NA
ENDBRANCH   1  12
BRANCH   1  18
ATOM     18  C   UNL     1       8.675  -1.770  22.346  0.00  0.00    +0.232 C 
BRANCH  18  19
ATOM     19  C   UNL     1       9.716  -0.645  22.467  0.00  0.00    +0.029 C 
ATOM     20  C   UNL     1       9.834  -0.082  23.893  0.00  0.00    +0.022 C 
ATOM     21  C   UNL     1       8.562   0.659  24.329  0.00  0.00    +0.085 C 
ATOM     22  N   UNL     1       8.070   1.653  23.358  0.00  0.00    -0.298 NA
ATOM     23  C   UNL     1       7.993   1.105  21.995  0.00  0.00    +0.085 C 
ATOM     24  C   UNL     1       9.308   0.485  21.525  0.00  0.00    +0.022 C 
BRANCH  22  25
ATOM     25  C   UNL     1       8.843   2.909  23.412  0.00  0.00    +0.121 C 
BRANCH  25  26
ATOM     26  C   UNL     1       7.936   4.126  23.483  0.00  0.00    -0.014 A 
ATOM     27  C   UNL     1       7.727   4.849  22.290  0.00  0.00    +0.006 A 
ATOM     28  C   UNL     1       6.991   6.030  22.282  0.00  0.00    +0.002 A 
ATOM     29  C   UNL     1       6.453   6.516  23.470  0.00  0.00    +0.021 A 
ATOM     30  C   UNL     1       6.646   5.818  24.666  0.00  0.00    +0.060 A 
ATOM     31 CL   UNL     1       5.972   6.515  26.099  0.00  0.00    -0.082 Cl
ATOM     32  C   UNL     1       7.377   4.617  24.681  0.00  0.00    +0.064 A 
ATOM     33 CL   UNL     1       7.606   3.770  26.179  0.00  0.00    -0.082 Cl
ENDBRANCH  25  26
ENDBRANCH  22  25
ENDBRANCH  18  19
ENDBRANCH   1  18
TORSDOF 5
ENDMDL
