MODEL 1
REMARK VINA RESULT:      -3.4      0.000      0.000
REMARK  Name = 
REMARK  4 active torsions:
REMARK  status: ('A' for Active; 'I' for Inactive)
REMARK    1  A    between atoms: N_1  and  C_2
REMARK    2  A    between atoms: C_2  and  C_4
REMARK    3  A    between atoms: C_2  and  C_6
REMARK    4  A    between atoms: C_4  and  S_5
REMARK                            x       y       z     vdW  Elec       q    Type
REMARK                         _______ _______ _______ _____ _____    ______ ____
ROOT
ATOM      1  C   UNL     1       7.949  -4.835  26.301  0.00  0.00    +0.147 C 
ENDROOT
BRANCH   1   2
ATOM      2  C   UNL     1       8.978  -5.261  25.239  0.00  0.00    +0.228 C 
ATOM      3  O   UNL     1       8.742  -5.376  24.041  0.00  0.00    -0.274 OA
ATOM      4  N   UNL     1      10.229  -5.493  25.741  0.00  0.00    -0.328 N 
ATOM      5  H   UNL     1      10.916  -5.890  25.116  0.00  0.00    +0.145 HD
ATOM      6  H   UNL     1      10.304  -5.689  26.734  0.00  0.00    +0.145 HD
ENDBRANCH   1   2
BRANCH   1   7
ATOM      7  N   UNL     1       7.949  -5.851  27.390  0.00  0.00    -0.319 NA
ATOM      8  H   UNL     1       7.538  -6.708  27.017  0.00  0.00    +0.119 HD
ATOM      9  H   UNL     1       8.919  -6.085  27.613  0.00  0.00    +0.119 HD
ENDBRANCH   1   7
BRANCH   1  10
ATOM     10  C   UNL     1       6.576  -4.625  25.645  0.00  0.00    +0.093 C 
BRANCH  10  11
ATOM     11  S   UNL     1       5.432  -6.015  25.957  0.00  0.00    -0.176 S 
ATOM     12  H   UNL     1       5.450  -6.516  24.714  0.00  0.00    +0.102 HD
ENDBRANCH  10  11
ENDBRANCH   1  10
TORSDOF 4
ENDMDL
MODEL 2
REMARK VINA RESULT:      -3.3      2.645      3.242
REMARK  Name = 
REMARK  4 active torsions:
REMARK  status: ('A' for Active; 'I' for Inactive)
REMARK    1  A    between atoms: N_1  and  C_2
REMARK    2  A    between atoms: C_2  and  C_4
REMARK    3  A    between atoms: C_2  and  C_6
REMARK    4  A    between atoms: C_4  and  S_5
REMARK                            x       y       z     vdW  Elec       q    Type
REMARK                         _______ _______ _______ _____ _____    ______ ____
ROOT
ATOM      1  C   UNL     1       8.780  -5.063  24.980  0.00  0.00    +0.147 C 
ENDROOT
BRANCH   1   2
ATOM      2  C   UNL     1       8.151  -4.796  26.359  0.00  0.00    +0.228 C 
ATOM      3  O   UNL     1       7.791  -3.695  26.763  0.00  0.00    -0.274 OA
ATOM      4  N   UNL     1       7.997  -5.919  27.125  0.00  0.00    -0.328 N 
ATOM      5  H   UNL     1       7.703  -5.793  28.083  0.00  0.00    +0.145 HD
ATOM      6  H   UNL     1       8.573  -6.723  26.896  0.00  0.00    +0.145 HD
ENDBRANCH   1   2
BRANCH   1   7
ATOM      7  N   UNL     1      10.248  -5.235  25.159  0.00  0.00    -0.319 NA
ATOM      8  H   UNL     1      10.416  -6.198  25.457  0.00  0.00    +0.119 HD
ATOM      9  H   UNL     1      10.698  -5.147  24.246  0.00  0.00    +0.119 HD
ENDBRANCH   1   7
BRANCH   1  10
ATOM     10  C   UNL     1       8.399  -3.940  24.004  0.00  0.00    +0.093 C 
BRANCH  10  11
ATOM     11  S   UNL     1       9.667  -2.628  23.918  0.00  0.00    -0.176 S 
ATOM     12  H   UNL     1      10.213  -3.012  22.755  0.00  0.00    +0.102 HD
ENDBRANCH  10  11
ENDBRANCH   1  10
TORSDOF 4
ENDMDL
MODEL 3
REMARK VINA RESULT:      -3.3      6.452      6.850
REMARK  Name = 
REMARK  4 active torsions:
REMARK  status: ('A' for Active; 'I' for Inactive)
REMARK    1  A    between atoms: N_1  and  C_2
REMARK    2  A    between atoms: C_2  and  C_4
REMARK    3  A    between atoms: C_2  and  C_6
REMARK    4  A    between atoms: C_4  and  S_5
REMARK                            x       y       z     vdW  Elec       q    Type
REMARK                         _______ _______ _______ _____ _____    ______ ____
ROOT
ATOM      1  C   UNL     1      10.159  -0.298  22.380  0.00  0.00    +0.147 C 
ENDROOT
BRANCH   1   2
ATOM      2  C   UNL     1       9.232   0.874  22.009  0.00  0.00    +0.228 C 
ATOM      3  O   UNL     1       8.009   0.854  22.100  0.00  0.00    -0.274 OA
ATOM      4  N   UNL     1       9.895   1.989  21.574  0.00  0.00    -0.328 N 
ATOM      5  H   UNL     1       9.339   2.746  21.203  0.00  0.00    +0.145 HD
ATOM      6  H   UNL     1      10.840   1.863  21.225  0.00  0.00    +0.145 HD
ENDBRANCH   1   2
BRANCH   1   7
ATOM      7  N   UNL     1       9.969  -1.382  21.377  0.00  0.00    -0.319 NA
ATOM      8  H   UNL     1      10.883  -1.794  21.186  0.00  0.00    +0.119 HD
ATOM      9  H   UNL     1       9.415  -2.126  21.806  0.00  0.00    +0.119 HD
ENDBRANCH   1   7
BRANCH   1  10
ATOM     10  C   UNL     1       9.896  -0.736  23.828  0.00  0.00    +0.093 C 
BRANCH  10  11
ATOM     11  S   UNL     1       9.568  -2.527  23.969  0.00  0.00    -0.176 S 
ATOM     12  H   UNL     1       8.261  -2.472  23.678  0.00  0.00    +0.102 HD
ENDBRANCH  10  11
ENDBRANCH   1  10
TORSDOF 4
ENDMDL
MODEL 4
REMARK VINA RESULT:      -3.2      7.353      7.651
REMARK  Name = 
REMARK  4 active torsions:
REMARK  status: ('A' for Active; 'I' for Inactive)
REMARK    1  A    between atoms: N_1  and  C_2
REMARK    2  A    between atoms: C_2  and  C_4
REMARK    3  A    between atoms: C_2  and  C_6
REMARK    4  A    between atoms: C_4  and  S_5
REMARK                            x       y       z     vdW  Elec       q    Type
REMARK                         _______ _______ _______ _____ _____    ______ ____
ROOT
ATOM      1  C   UNL     1       9.166   1.087  21.636  0.00  0.00    +0.147 C 
ENDROOT
BRANCH   1   2
ATOM      2  C   UNL     1       9.921  -0.155  22.144  0.00  0.00    +0.228 C 
ATOM      3  O   UNL     1      10.558  -0.208  23.191  0.00  0.00    -0.274 OA
ATOM      4  N   UNL     1       9.810  -1.245  21.324  0.00  0.00    -0.328 N 
ATOM      5  H   UNL     1      10.379  -2.051  21.540  0.00  0.00    +0.145 HD
ATOM      6  H   UNL     1       9.553  -1.076  20.356  0.00  0.00    +0.145 HD
ENDBRANCH   1   2
BRANCH   1   7
ATOM      7  N   UNL     1      10.092   2.252  21.688  0.00  0.00    -0.319 NA
ATOM      8  H   UNL     1      10.926   2.013  21.151  0.00  0.00    +0.119 HD
ATOM      9  H   UNL     1       9.658   3.033  21.191  0.00  0.00    +0.119 HD
ENDBRANCH   1   7
BRANCH   1  10
ATOM     10  C   UNL     1       7.874   1.281  22.442  0.00  0.00    +0.093 C 
BRANCH  10  11
ATOM     11  S   UNL     1       7.090   2.900  22.129  0.00  0.00    -0.176 S 
ATOM     12  H   UNL     1       7.766   3.587  23.060  0.00  0.00    +0.102 HD
ENDBRANCH  10  11
ENDBRANCH   1  10
TORSDOF 4
ENDMDL
MODEL 5
REMARK VINA RESULT:      -3.2      7.135      7.396
REMARK  Name = 
REMARK  4 active torsions:
REMARK  status: ('A' for Active; 'I' for Inactive)
REMARK    1  A    between atoms: N_1  and  C_2
REMARK    2  A    between atoms: C_2  and  C_4
REMARK    3  A    between atoms: C_2  and  C_6
REMARK    4  A    between atoms: C_4  and  S_5
REMARK                            x       y       z     vdW  Elec       q    Type
REMARK                         _______ _______ _______ _____ _____    ______ ____
ROOT
ATOM      1  C   UNL     1       9.867   0.731  23.702  0.00  0.00    +0.147 C 
ENDROOT
BRANCH   1   2
ATOM      2  C   UNL     1      10.285   2.028  22.986  0.00  0.00    +0.228 C 
ATOM      3  O   UNL     1      10.895   2.953  23.513  0.00  0.00    -0.274 OA
ATOM      4  N   UNL     1       9.934   2.070  21.665  0.00  0.00    -0.328 N 
ATOM      5  H   UNL     1      10.074   2.941  21.173  0.00  0.00    +0.145 HD
ATOM      6  H   UNL     1       9.186   1.455  21.361  0.00  0.00    +0.145 HD
ENDBRANCH   1   2
BRANCH   1   7
ATOM      7  N   UNL     1      10.496   0.715  25.051  0.00  0.00    -0.319 NA
ATOM      8  H   UNL     1       9.895   0.168  25.669  0.00  0.00    +0.119 HD
ATOM      9  H   UNL     1      11.375   0.197  24.992  0.00  0.00    +0.119 HD
ENDBRANCH   1   7
BRANCH   1  10
ATOM     10  C   UNL     1      10.223  -0.485  22.833  0.00  0.00    +0.093 C 
BRANCH  10  11
ATOM     11  S   UNL     1       9.787  -2.068  23.633  0.00  0.00    -0.176 S 
ATOM     12  H   UNL     1      10.967  -2.270  24.236  0.00  0.00    +0.102 HD
ENDBRANCH  10  11
ENDBRANCH   1  10
TORSDOF 4
ENDMDL
MODEL 6
REMARK VINA RESULT:      -3.1      7.232      7.540
REMARK  Name = 
REMARK  4 active torsions:
REMARK  status: ('A' for Active; 'I' for Inactive)
REMARK    1  A    between atoms: N_1  and  C_2
REMARK    2  A    between atoms: C_2  and  C_4
REMARK    3  A    between atoms: C_2  and  C_6
REMARK    4  A    between atoms: C_4  and  S_5
REMARK                            x       y       z     vdW  Elec       q    Type
REMARK                         _______ _______ _______ _____ _____    ______ ____
ROOT
ATOM      1  C   UNL     1      10.022   1.079  22.660  0.00  0.00    +0.147 C 
ENDROOT
BRANCH   1   2
ATOM      2  C   UNL     1       9.967   1.603  24.106  0.00  0.00    +0.228 C 
ATOM      3  O   UNL     1       9.464   2.668  24.447  0.00  0.00    -0.274 OA
ATOM      4  N   UNL     1      10.522   0.754  25.024  0.00  0.00    -0.328 N 
ATOM      5  H   UNL     1      10.625   1.093  25.970  0.00  0.00    +0.145 HD
ATOM      6  H   UNL     1      11.182   0.063  24.682  0.00  0.00    +0.145 HD
ENDBRANCH   1   2
BRANCH   1   7
ATOM      7  N   UNL     1      10.151   2.245  21.743  0.00  0.00    -0.319 NA
ATOM      8  H   UNL     1      11.064   2.186  21.290  0.00  0.00    +0.119 HD
ATOM      9  H   UNL     1       9.463   2.144  20.993  0.00  0.00    +0.119 HD
ENDBRANCH   1   7
BRANCH   1  10
ATOM     10  C   UNL     1       8.798   0.195  22.376  0.00  0.00    +0.093 C 
BRANCH  10  11
ATOM     11  S   UNL     1       9.253  -1.543  22.046  0.00  0.00    -0.176 S 
ATOM     12  H   UNL     1       8.449  -2.095  22.966  0.00  0.00    +0.102 HD
ENDBRANCH  10  11
ENDBRANCH   1  10
TORSDOF 4
ENDMDL
MODEL 7
REMARK VINA RESULT:      -3.0      5.566      5.932
REMARK  Name = 
REMARK  4 active torsions:
REMARK  status: ('A' for Active; 'I' for Inactive)
REMARK    1  A    between atoms: N_1  and  C_2
REMARK    2  A    between atoms: C_2  and  C_4
REMARK    3  A    between atoms: C_2  and  C_6
REMARK    4  A    between atoms: C_4  and  S_5
REMARK                            x       y       z     vdW  Elec       q    Type
REMARK                         _______ _______ _______ _____ _____    ______ ____
ROOT
ATOM      1  C   UNL     1       9.042  -1.410  22.506  0.00  0.00    +0.147 C 
ENDROOT
BRANCH   1   2
ATOM      2  C   UNL     1       9.580  -2.008  23.819  0.00  0.00    +0.228 C 
ATOM      3  O   UNL     1      10.171  -3.079  23.910  0.00  0.00    -0.274 OA
ATOM      4  N   UNL     1       9.362  -1.221  24.917  0.00  0.00    -0.328 N 
ATOM      5  H   UNL     1       9.583  -1.612  25.821  0.00  0.00    +0.145 HD
ATOM      6  H   UNL     1       8.624  -0.527  24.854  0.00  0.00    +0.145 HD
ENDBRANCH   1   2
BRANCH   1   7
ATOM      7  N   UNL     1      10.103  -1.523  21.469  0.00  0.00    -0.319 NA
ATOM      8  H   UNL     1       9.919  -2.367  20.924  0.00  0.00    +0.119 HD
ATOM      9  H   UNL     1      10.001  -0.745  20.814  0.00  0.00    +0.119 HD
ENDBRANCH   1   7
BRANCH   1  10
ATOM     10  C   UNL     1       8.555   0.027  22.747  0.00  0.00    +0.093 C 
BRANCH  10  11
ATOM     11  S   UNL     1       9.681   1.275  22.030  0.00  0.00    -0.176 S 
ATOM     12  H   UNL     1      10.818   0.763  22.521  0.00  0.00    +0.102 HD
ENDBRANCH  10  11
ENDBRANCH   1  10
TORSDOF 4
ENDMDL
MODEL 8
REMARK VINA RESULT:      -3.0      4.486      4.937
REMARK  Name = 
REMARK  4 active torsions:
REMARK  status: ('A' for Active; 'I' for Inactive)
REMARK    1  A    between atoms: N_1  and  C_2
REMARK    2  A    between atoms: C_2  and  C_4
REMARK    3  A    between atoms: C_2  and  C_6
REMARK    4  A    between atoms: C_4  and  S_5
REMARK                            x       y       z     vdW  Elec       q    Type
REMARK                         _______ _______ _______ _____ _____    ______ ____
ROOT
ATOM      1  C   UNL     1       9.004  -1.962  22.398  0.00  0.00    +0.147 C 
ENDROOT
BRANCH   1   2
ATOM      2  C   UNL     1       9.743  -2.244  23.719  0.00  0.00    +0.228 C 
ATOM      3  O   UNL     1      10.127  -3.350  24.084  0.00  0.00    -0.274 OA
ATOM      4  N   UNL     1       9.969  -1.127  24.476  0.00  0.00    -0.328 N 
ATOM      5  H   UNL     1      10.340  -1.262  25.406  0.00  0.00    +0.145 HD
ATOM      6  H   UNL     1       9.383  -0.317  24.300  0.00  0.00    +0.145 HD
ENDBRANCH   1   2
BRANCH   1   7
ATOM      7  N   UNL     1       9.989  -1.435  21.412  0.00  0.00    -0.319 NA
ATOM      8  H   UNL     1       9.931  -0.416  21.428  0.00  0.00    +0.119 HD
ATOM      9  H   UNL     1      10.929  -1.663  21.741  0.00  0.00    +0.119 HD
ENDBRANCH   1   7
BRANCH   1  10
ATOM     10  C   UNL     1       7.815  -1.024  22.653  0.00  0.00    +0.093 C 
BRANCH  10  11
ATOM     11  S   UNL     1       6.401  -1.883  23.427  0.00  0.00    -0.176 S 
ATOM     12  H   UNL     1       6.630  -1.466  24.681  0.00  0.00    +0.102 HD
ENDBRANCH  10  11
ENDBRANCH   1  10
TORSDOF 4
ENDMDL
MODEL 9
REMARK VINA RESULT:      -3.0      4.927      5.120
REMARK  Name = 
REMARK  4 active torsions:
REMARK  status: ('A' for Active; 'I' for Inactive)
REMARK    1  A    between atoms: N_1  and  C_2
REMARK    2  A    between atoms: C_2  and  C_4
REMARK    3  A    between atoms: C_2  and  C_6
REMARK    4  A    between atoms: C_4  and  S_5
REMARK                            x       y       z     vdW  Elec       q    Type
REMARK                         _______ _______ _______ _____ _____    ______ ____
ROOT
ATOM      1  C   UNL     1       6.152  -4.412  22.343  0.00  0.00    +0.147 C 
ENDROOT
BRANCH   1   2
ATOM      2  C   UNL     1       6.109  -5.615  21.383  0.00  0.00    +0.228 C 
ATOM      3  O   UNL     1       6.000  -5.534  20.164  0.00  0.00    -0.274 OA
ATOM      4  N   UNL     1       6.226  -6.826  22.007  0.00  0.00    -0.328 N 
ATOM      5  H   UNL     1       6.084  -7.655  21.447  0.00  0.00    +0.145 HD
ATOM      6  H   UNL     1       6.003  -6.865  22.997  0.00  0.00    +0.145 HD
ENDBRANCH   1   2
BRANCH   1   7
ATOM      7  N   UNL     1       5.494  -3.255  21.675  0.00  0.00    -0.319 NA
ATOM      8  H   UNL     1       4.541  -3.187  22.035  0.00  0.00    +0.119 HD
ATOM      9  H   UNL     1       5.964  -2.398  21.976  0.00  0.00    +0.119 HD
ENDBRANCH   1   7
BRANCH   1  10
ATOM     10  C   UNL     1       7.600  -4.141  22.777  0.00  0.00    +0.093 C 
BRANCH  10  11
ATOM     11  S   UNL     1       8.092  -2.400  22.521  0.00  0.00    -0.176 S 
ATOM     12  H   UNL     1       7.424  -2.214  21.374  0.00  0.00    +0.102 HD
ENDBRANCH  10  11
ENDBRANCH   1  10
TORSDOF 4
ENDMDL
