MODEL 1
REMARK VINA RESULT:      -5.9      0.000      0.000
REMARK  Name = 
REMARK  4 active torsions:
REMARK  status: ('A' for Active; 'I' for Inactive)
REMARK    1  A    between atoms: C_1  and  C_2
REMARK    2  A    between atoms: C_2  and  C_3
REMARK    3  A    between atoms: C_3  and  C_11
REMARK    4  A    between atoms: N_7  and  C_8
REMARK                            x       y       z     vdW  Elec       q    Type
REMARK                         _______ _______ _______ _____ _____    ______ ____
ROOT
ATOM      1  C   UNL     1       6.889  -2.441  23.420  0.00  0.00    +0.138 C 
ATOM      2  C   UNL     1       6.382  -3.492  22.392  0.00  0.00    +0.251 C 
ATOM      3  O   UNL     1       5.476  -3.330  21.582  0.00  0.00    -0.272 OA
ATOM      4  N   UNL     1       7.153  -4.617  22.507  0.00  0.00    -0.227 N 
ATOM      5  C   UNL     1       7.056  -5.766  21.644  0.00  0.00    +0.143 C 
ATOM      6  C   UNL     1       7.955  -4.527  23.599  0.00  0.00    +0.309 C 
ATOM      7  O   UNL     1       8.750  -5.353  24.013  0.00  0.00    -0.252 OA
ATOM      8  N   UNL     1       7.718  -3.323  24.219  0.00  0.00    -0.281 N 
ATOM      9  H   UNL     1       8.296  -3.045  24.999  0.00  0.00    +0.152 HD
ENDROOT
BRANCH   1  10
ATOM     10  C   UNL     1       7.732  -1.344  22.749  0.00  0.00    -0.015 A 
ATOM     11  C   UNL     1       7.370   0.011  22.854  0.00  0.00    +0.006 A 
ATOM     12  C   UNL     1       8.163   1.015  22.292  0.00  0.00    +0.000 A 
ATOM     13  C   UNL     1       9.339   0.689  21.626  0.00  0.00    +0.000 A 
ATOM     14  C   UNL     1       9.724  -0.643  21.522  0.00  0.00    +0.000 A 
ATOM     15  C   UNL     1       8.933  -1.650  22.081  0.00  0.00    +0.006 A 
ENDBRANCH   1  10
BRANCH   1  17
ATOM     16  C   UNL     1       4.848  -2.744  24.984  0.00  0.00    +0.007 C 
ATOM     17  C   UNL     1       5.761  -1.784  24.233  0.00  0.00    +0.037 C 
ENDBRANCH   1  17
TORSDOF 2
ENDMDL
MODEL 2
REMARK VINA RESULT:      -5.7      2.465      4.643
REMARK  Name = 
REMARK  4 active torsions:
REMARK  status: ('A' for Active; 'I' for Inactive)
REMARK    1  A    between atoms: C_1  and  C_2
REMARK    2  A    between atoms: C_2  and  C_3
REMARK    3  A    between atoms: C_3  and  C_11
REMARK    4  A    between atoms: N_7  and  C_8
REMARK                            x       y       z     vdW  Elec       q    Type
REMARK                         _______ _______ _______ _____ _____    ______ ____
ROOT
ATOM      1  C   UNL     1       8.627  -3.365  24.315  0.00  0.00    +0.138 C 
ATOM      2  C   UNL     1       9.548  -2.291  23.667  0.00  0.00    +0.251 C 
ATOM      3  O   UNL     1      10.544  -2.509  22.987  0.00  0.00    -0.272 OA
ATOM      4  N   UNL     1       9.030  -1.054  23.944  0.00  0.00    -0.227 N 
ATOM      5  C   UNL     1       9.546   0.184  23.419  0.00  0.00    +0.143 C 
ATOM      6  C   UNL     1       8.021  -1.158  24.847  0.00  0.00    +0.309 C 
ATOM      7  O   UNL     1       7.355  -0.259  25.331  0.00  0.00    -0.252 OA
ATOM      8  N   UNL     1       7.862  -2.484  25.176  0.00  0.00    -0.281 N 
ATOM      9  H   UNL     1       7.091  -2.758  25.767  0.00  0.00    +0.152 HD
ENDROOT
BRANCH   1  10
ATOM     10  C   UNL     1       7.723  -4.046  23.274  0.00  0.00    -0.015 A 
ATOM     11  C   UNL     1       6.884  -3.287  22.438  0.00  0.00    +0.006 A 
ATOM     12  C   UNL     1       6.102  -3.898  21.454  0.00  0.00    +0.000 A 
ATOM     13  C   UNL     1       6.151  -5.276  21.276  0.00  0.00    +0.000 A 
ATOM     14  C   UNL     1       6.984  -6.045  22.081  0.00  0.00    +0.000 A 
ATOM     15  C   UNL     1       7.766  -5.438  23.067  0.00  0.00    +0.006 A 
ENDBRANCH   1  10
BRANCH   1  17
ATOM     16  C   UNL     1       8.984  -4.618  26.552  0.00  0.00    +0.007 C 
ATOM     17  C   UNL     1       9.397  -4.443  25.096  0.00  0.00    +0.037 C 
ENDBRANCH   1  17
TORSDOF 2
ENDMDL
MODEL 3
REMARK VINA RESULT:      -5.7      1.954      3.248
REMARK  Name = 
REMARK  4 active torsions:
REMARK  status: ('A' for Active; 'I' for Inactive)
REMARK    1  A    between atoms: C_1  and  C_2
REMARK    2  A    between atoms: C_2  and  C_3
REMARK    3  A    between atoms: C_3  and  C_11
REMARK    4  A    between atoms: N_7  and  C_8
REMARK                            x       y       z     vdW  Elec       q    Type
REMARK                         _______ _______ _______ _____ _____    ______ ____
ROOT
ATOM      1  C   UNL     1       7.603  -3.923  23.449  0.00  0.00    +0.138 C 
ATOM      2  C   UNL     1       8.203  -4.847  24.547  0.00  0.00    +0.251 C 
ATOM      3  O   UNL     1       9.190  -5.563  24.428  0.00  0.00    -0.272 OA
ATOM      4  N   UNL     1       7.470  -4.689  25.692  0.00  0.00    -0.227 N 
ATOM      5  C   UNL     1       7.790  -5.298  26.958  0.00  0.00    +0.143 C 
ATOM      6  C   UNL     1       6.358  -3.951  25.441  0.00  0.00    +0.309 C 
ATOM      7  O   UNL     1       5.476  -3.637  26.222  0.00  0.00    -0.252 OA
ATOM      8  N   UNL     1       6.350  -3.610  24.109  0.00  0.00    -0.281 N 
ATOM      9  H   UNL     1       5.641  -2.980  23.763  0.00  0.00    +0.152 HD
ENDROOT
BRANCH   1  10
ATOM     10  C   UNL     1       8.451  -2.658  23.239  0.00  0.00    -0.015 A 
ATOM     11  C   UNL     1       9.224  -2.124  24.286  0.00  0.00    +0.006 A 
ATOM     12  C   UNL     1      10.038  -1.006  24.084  0.00  0.00    +0.000 A 
ATOM     13  C   UNL     1      10.108  -0.408  22.831  0.00  0.00    +0.000 A 
ATOM     14  C   UNL     1       9.364  -0.927  21.778  0.00  0.00    +0.000 A 
ATOM     15  C   UNL     1       8.547  -2.043  21.976  0.00  0.00    +0.006 A 
ENDBRANCH   1  10
BRANCH   1  17
ATOM     16  C   UNL     1       6.532  -5.876  22.127  0.00  0.00    +0.007 C 
ATOM     17  C   UNL     1       7.404  -4.628  22.096  0.00  0.00    +0.037 C 
ENDBRANCH   1  17
TORSDOF 2
ENDMDL
MODEL 4
REMARK VINA RESULT:      -5.6      4.240      6.152
REMARK  Name = 
REMARK  4 active torsions:
REMARK  status: ('A' for Active; 'I' for Inactive)
REMARK    1  A    between atoms: C_1  and  C_2
REMARK    2  A    between atoms: C_2  and  C_3
REMARK    3  A    between atoms: C_3  and  C_11
REMARK    4  A    between atoms: N_7  and  C_8
REMARK                            x       y       z     vdW  Elec       q    Type
REMARK                         _______ _______ _______ _____ _____    ______ ____
ROOT
ATOM      1  C   UNL     1       9.444   1.888  23.319  0.00  0.00    +0.138 C 
ATOM      2  C   UNL     1       9.699   0.909  24.500  0.00  0.00    +0.251 C 
ATOM      3  O   UNL     1      10.776   0.406  24.801  0.00  0.00    -0.272 OA
ATOM      4  N   UNL     1       8.525   0.738  25.181  0.00  0.00    -0.227 N 
ATOM      5  C   UNL     1       8.390  -0.013  26.403  0.00  0.00    +0.143 C 
ATOM      6  C   UNL     1       7.498   1.303  24.496  0.00  0.00    +0.309 C 
ATOM      7  O   UNL     1       6.317   1.321  24.798  0.00  0.00    -0.252 OA
ATOM      8  N   UNL     1       7.995   1.861  23.342  0.00  0.00    -0.281 N 
ATOM      9  H   UNL     1       7.384   2.408  22.753  0.00  0.00    +0.152 HD
ENDROOT
BRANCH   1  10
ATOM     10  C   UNL     1       9.978   3.298  23.619  0.00  0.00    -0.015 A 
ATOM     11  C   UNL     1      11.299   3.656  23.295  0.00  0.00    +0.006 A 
ATOM     12  C   UNL     1      11.771   4.952  23.517  0.00  0.00    +0.000 A 
ATOM     13  C   UNL     1      10.931   5.921  24.054  0.00  0.00    +0.000 A 
ATOM     14  C   UNL     1       9.617   5.595  24.369  0.00  0.00    +0.000 A 
ATOM     15  C   UNL     1       9.142   4.299  24.150  0.00  0.00    +0.006 A 
ENDBRANCH   1  10
BRANCH   1  17
ATOM     16  C   UNL     1       9.422   0.120  21.427  0.00  0.00    +0.007 C 
ATOM     17  C   UNL     1      10.029   1.402  21.981  0.00  0.00    +0.037 C 
ENDBRANCH   1  17
TORSDOF 2
ENDMDL
MODEL 5
REMARK VINA RESULT:      -5.5      2.619      4.961
REMARK  Name = 
REMARK  4 active torsions:
REMARK  status: ('A' for Active; 'I' for Inactive)
REMARK    1  A    between atoms: C_1  and  C_2
REMARK    2  A    between atoms: C_2  and  C_3
REMARK    3  A    between atoms: C_3  and  C_11
REMARK    4  A    between atoms: N_7  and  C_8
REMARK                            x       y       z     vdW  Elec       q    Type
REMARK                         _______ _______ _______ _____ _____    ______ ____
ROOT
ATOM      1  C   UNL     1       7.961  -3.858  25.109  0.00  0.00    +0.138 C 
ATOM      2  C   UNL     1       9.152  -3.018  24.567  0.00  0.00    +0.251 C 
ATOM      3  O   UNL     1      10.196  -3.463  24.101  0.00  0.00    -0.272 OA
ATOM      4  N   UNL     1       8.822  -1.693  24.651  0.00  0.00    -0.227 N 
ATOM      5  C   UNL     1       9.629  -0.615  24.141  0.00  0.00    +0.143 C 
ATOM      6  C   UNL     1       7.671  -1.540  25.356  0.00  0.00    +0.309 C 
ATOM      7  O   UNL     1       7.101  -0.501  25.641  0.00  0.00    -0.252 OA
ATOM      8  N   UNL     1       7.227  -2.782  25.746  0.00  0.00    -0.281 N 
ATOM      9  H   UNL     1       6.331  -2.866  26.202  0.00  0.00    +0.152 HD
ENDROOT
BRANCH   1  10
ATOM     10  C   UNL     1       7.142  -4.490  23.972  0.00  0.00    -0.015 A 
ATOM     11  C   UNL     1       7.729  -5.406  23.080  0.00  0.00    +0.006 A 
ATOM     12  C   UNL     1       6.976  -6.024  22.079  0.00  0.00    +0.000 A 
ATOM     13  C   UNL     1       5.618  -5.751  21.956  0.00  0.00    +0.000 A 
ATOM     14  C   UNL     1       5.012  -4.860  22.834  0.00  0.00    +0.000 A 
ATOM     15  C   UNL     1       5.763  -4.239  23.835  0.00  0.00    +0.006 A 
ENDBRANCH   1  10
BRANCH   1  17
ATOM     16  C   UNL     1       7.333  -5.358  27.124  0.00  0.00    +0.007 C 
ATOM     17  C   UNL     1       8.385  -4.958  26.097  0.00  0.00    +0.037 C 
ENDBRANCH   1  17
TORSDOF 2
ENDMDL
MODEL 6
REMARK VINA RESULT:      -5.5      1.825      2.100
REMARK  Name = 
REMARK  4 active torsions:
REMARK  status: ('A' for Active; 'I' for Inactive)
REMARK    1  A    between atoms: C_1  and  C_2
REMARK    2  A    between atoms: C_2  and  C_3
REMARK    3  A    between atoms: C_3  and  C_11
REMARK    4  A    between atoms: N_7  and  C_8
REMARK                            x       y       z     vdW  Elec       q    Type
REMARK                         _______ _______ _______ _____ _____    ______ ____
ROOT
ATOM      1  C   UNL     1       8.119  -1.181  24.591  0.00  0.00    +0.138 C 
ATOM      2  C   UNL     1       7.275  -2.140  23.703  0.00  0.00    +0.251 C 
ATOM      3  O   UNL     1       6.188  -1.886  23.197  0.00  0.00    -0.272 OA
ATOM      4  N   UNL     1       7.974  -3.305  23.538  0.00  0.00    -0.227 N 
ATOM      5  C   UNL     1       7.564  -4.392  22.687  0.00  0.00    +0.143 C 
ATOM      6  C   UNL     1       9.059  -3.321  24.356  0.00  0.00    +0.309 C 
ATOM      7  O   UNL     1       9.885  -4.208  24.484  0.00  0.00    -0.252 OA
ATOM      8  N   UNL     1       9.084  -2.149  25.075  0.00  0.00    -0.281 N 
ATOM      9  H   UNL     1       9.876  -1.948  25.667  0.00  0.00    +0.152 HD
ENDROOT
BRANCH   1  10
ATOM     10  C   UNL     1       8.803  -0.085  23.758  0.00  0.00    -0.015 A 
ATOM     11  C   UNL     1       9.550   0.934  24.378  0.00  0.00    +0.006 A 
ATOM     12  C   UNL     1      10.217   1.901  23.623  0.00  0.00    +0.000 A 
ATOM     13  C   UNL     1      10.165   1.864  22.234  0.00  0.00    +0.000 A 
ATOM     14  C   UNL     1       9.445   0.859  21.598  0.00  0.00    +0.000 A 
ATOM     15  C   UNL     1       8.774  -0.109  22.351  0.00  0.00    +0.006 A 
ENDBRANCH   1  10
BRANCH   1  17
ATOM     16  C   UNL     1       6.672  -1.487  26.716  0.00  0.00    +0.007 C 
ATOM     17  C   UNL     1       7.312  -0.525  25.724  0.00  0.00    +0.037 C 
ENDBRANCH   1  17
TORSDOF 2
ENDMDL
MODEL 7
REMARK VINA RESULT:      -5.4      2.351      2.712
REMARK  Name = 
REMARK  4 active torsions:
REMARK  status: ('A' for Active; 'I' for Inactive)
REMARK    1  A    between atoms: C_1  and  C_2
REMARK    2  A    between atoms: C_2  and  C_3
REMARK    3  A    between atoms: C_3  and  C_11
REMARK    4  A    between atoms: N_7  and  C_8
REMARK                            x       y       z     vdW  Elec       q    Type
REMARK                         _______ _______ _______ _____ _____    ______ ____
ROOT
ATOM      1  C   UNL     1       8.131  -3.436  24.928  0.00  0.00    +0.138 C 
ATOM      2  C   UNL     1       6.607  -3.269  24.666  0.00  0.00    +0.251 C 
ATOM      3  O   UNL     1       5.830  -2.598  25.336  0.00  0.00    -0.272 OA
ATOM      4  N   UNL     1       6.285  -3.958  23.529  0.00  0.00    -0.227 N 
ATOM      5  C   UNL     1       4.986  -3.947  22.906  0.00  0.00    +0.143 C 
ATOM      6  C   UNL     1       7.337  -4.716  23.125  0.00  0.00    +0.309 C 
ATOM      7  O   UNL     1       7.393  -5.468  22.168  0.00  0.00    -0.252 OA
ATOM      8  N   UNL     1       8.376  -4.528  24.005  0.00  0.00    -0.281 N 
ATOM      9  H   UNL     1       9.275  -4.944  23.807  0.00  0.00    +0.152 HD
ENDROOT
BRANCH   1  10
ATOM     10  C   UNL     1       8.922  -2.181  24.525  0.00  0.00    -0.015 A 
ATOM     11  C   UNL     1       9.057  -1.096  25.410  0.00  0.00    +0.006 A 
ATOM     12  C   UNL     1       9.820   0.024  25.069  0.00  0.00    +0.000 A 
ATOM     13  C   UNL     1      10.476   0.077  23.844  0.00  0.00    +0.000 A 
ATOM     14  C   UNL     1      10.370  -0.990  22.959  0.00  0.00    +0.000 A 
ATOM     15  C   UNL     1       9.606  -2.110  23.296  0.00  0.00    +0.006 A 
ENDBRANCH   1  10
BRANCH   1  17
ATOM     16  C   UNL     1       7.951  -5.151  26.860  0.00  0.00    +0.007 C 
ATOM     17  C   UNL     1       8.468  -3.799  26.384  0.00  0.00    +0.037 C 
ENDBRANCH   1  17
TORSDOF 2
ENDMDL
MODEL 8
REMARK VINA RESULT:      -5.4      2.602      5.479
REMARK  Name = 
REMARK  4 active torsions:
REMARK  status: ('A' for Active; 'I' for Inactive)
REMARK    1  A    between atoms: C_1  and  C_2
REMARK    2  A    between atoms: C_2  and  C_3
REMARK    3  A    between atoms: C_3  and  C_11
REMARK    4  A    between atoms: N_7  and  C_8
REMARK                            x       y       z     vdW  Elec       q    Type
REMARK                         _______ _______ _______ _____ _____    ______ ____
ROOT
ATOM      1  C   UNL     1       6.746  -5.010  23.919  0.00  0.00    +0.138 C 
ATOM      2  C   UNL     1       6.507  -3.490  23.693  0.00  0.00    +0.251 C 
ATOM      3  O   UNL     1       5.435  -2.961  23.422  0.00  0.00    -0.272 OA
ATOM      4  N   UNL     1       7.689  -2.831  23.896  0.00  0.00    -0.227 N 
ATOM      5  C   UNL     1       7.839  -1.399  23.885  0.00  0.00    +0.143 C 
ATOM      6  C   UNL     1       8.707  -3.721  24.022  0.00  0.00    +0.309 C 
ATOM      7  O   UNL     1       9.891  -3.484  24.190  0.00  0.00    -0.252 OA
ATOM      8  N   UNL     1       8.196  -4.992  23.904  0.00  0.00    -0.281 N 
ATOM      9  H   UNL     1       8.799  -5.785  24.065  0.00  0.00    +0.152 HD
ENDROOT
BRANCH   1  10
ATOM     10  C   UNL     1       6.212  -5.477  25.283  0.00  0.00    -0.015 A 
ATOM     11  C   UNL     1       5.078  -6.306  25.371  0.00  0.00    +0.006 A 
ATOM     12  C   UNL     1       4.622  -6.776  26.604  0.00  0.00    +0.000 A 
ATOM     13  C   UNL     1       5.294  -6.441  27.774  0.00  0.00    +0.000 A 
ATOM     14  C   UNL     1       6.425  -5.635  27.711  0.00  0.00    +0.000 A 
ATOM     15  C   UNL     1       6.884  -5.161  26.479  0.00  0.00    +0.006 A 
ENDBRANCH   1  10
BRANCH   1  17
ATOM     16  C   UNL     1       6.802  -5.767  21.443  0.00  0.00    +0.007 C 
ATOM     17  C   UNL     1       6.149  -5.897  22.813  0.00  0.00    +0.037 C 
ENDBRANCH   1  17
TORSDOF 2
ENDMDL
MODEL 9
REMARK VINA RESULT:      -5.4      4.321      5.867
REMARK  Name = 
REMARK  4 active torsions:
REMARK  status: ('A' for Active; 'I' for Inactive)
REMARK    1  A    between atoms: C_1  and  C_2
REMARK    2  A    between atoms: C_2  and  C_3
REMARK    3  A    between atoms: C_3  and  C_11
REMARK    4  A    between atoms: N_7  and  C_8
REMARK                            x       y       z     vdW  Elec       q    Type
REMARK                         _______ _______ _______ _____ _____    ______ ____
ROOT
ATOM      1  C   UNL     1       8.821   2.659  23.817  0.00  0.00    +0.138 C 
ATOM      2  C   UNL     1       9.132   1.558  22.763  0.00  0.00    +0.251 C 
ATOM      3  O   UNL     1       8.983   1.658  21.550  0.00  0.00    -0.272 OA
ATOM      4  N   UNL     1       9.649   0.471  23.413  0.00  0.00    -0.227 N 
ATOM      5  C   UNL     1      10.159  -0.707  22.759  0.00  0.00    +0.143 C 
ATOM      6  C   UNL     1       9.530   0.626  24.757  0.00  0.00    +0.309 C 
ATOM      7  O   UNL     1       9.864  -0.153  25.633  0.00  0.00    -0.252 OA
ATOM      8  N   UNL     1       8.928   1.837  25.006  0.00  0.00    -0.281 N 
ATOM      9  H   UNL     1       8.844   2.162  25.958  0.00  0.00    +0.152 HD
ENDROOT
BRANCH   1  10
ATOM     10  C   UNL     1       9.884   3.770  23.813  0.00  0.00    -0.015 A 
ATOM     11  C   UNL     1      11.187   3.524  23.343  0.00  0.00    +0.006 A 
ATOM     12  C   UNL     1      12.139   4.545  23.288  0.00  0.00    +0.000 A 
ATOM     13  C   UNL     1      11.807   5.835  23.687  0.00  0.00    +0.000 A 
ATOM     14  C   UNL     1      10.521   6.106  24.142  0.00  0.00    +0.000 A 
ATOM     15  C   UNL     1       9.567   5.087  24.200  0.00  0.00    +0.006 A 
ENDBRANCH   1  10
BRANCH   1  17
ATOM     16  C   UNL     1       6.381   2.847  24.663  0.00  0.00    +0.007 C 
ATOM     17  C   UNL     1       7.429   3.292  23.651  0.00  0.00    +0.037 C 
ENDBRANCH   1  17
TORSDOF 2
ENDMDL
