MODEL 1
REMARK VINA RESULT:      -7.2      0.000      0.000
REMARK  Name = 
REMARK  5 active torsions:
REMARK  status: ('A' for Active; 'I' for Inactive)
REMARK    1  A    between atoms: O_1  and  C_2
REMARK    2  A    between atoms: C_9  and  N_12
REMARK    3  A    between atoms: N_12  and  C_13
REMARK    4  A    between atoms: C_13  and  C_14
REMARK    5  A    between atoms: C_20  and  C_22
REMARK                            x       y       z     vdW  Elec       q    Type
REMARK                         _______ _______ _______ _____ _____    ______ ____
ROOT
ATOM      1  C   UNL     1       7.553   1.256  22.890  0.00  0.00    +0.068 C 
ATOM      2  C   UNL     1       7.905  -0.181  23.307  0.00  0.00    +0.057 C 
ATOM      3  C   UNL     1       9.416  -0.302  23.626  0.00  0.00    +0.023 C 
ATOM      4  C   UNL     1       9.799   0.712  24.734  0.00  0.00    +0.026 C 
ATOM      5  C   UNL     1       9.435   2.145  24.309  0.00  0.00    -0.006 C 
ATOM      6  C   UNL     1      10.207   2.509  23.032  0.00  0.00    +0.007 C 
ATOM      7  C   UNL     1       9.847   1.530  21.903  0.00  0.00    -0.006 C 
ATOM      8  C   UNL     1      10.197   0.092  22.338  0.00  0.00    +0.026 C 
ATOM      9  C   UNL     1       8.339   1.626  21.624  0.00  0.00    +0.038 C 
ATOM     10  C   UNL     1       7.925   2.216  24.033  0.00  0.00    +0.038 C 
ENDROOT
BRANCH   1  11
ATOM     11  O   UNL     1       6.159   1.330  22.630  0.00  0.00    -0.388 OA
ATOM     12  H   UNL     1       5.702   0.728  23.241  0.00  0.00    +0.210 HD
ENDBRANCH   1  11
BRANCH   3  13
ATOM     13  N   UNL     1       9.803  -1.683  23.981  0.00  0.00    -0.303 NA
ATOM     14  H   UNL     1      10.611  -1.655  24.607  0.00  0.00    +0.123 HD
BRANCH  13  15
ATOM     15  C   UNL     1       8.741  -2.459  24.651  0.00  0.00    +0.178 C 
BRANCH  15  16
ATOM     16  C   UNL     1       8.743  -3.921  24.192  0.00  0.00    +0.230 C 
ATOM     17  N   UNL     1       7.733  -4.352  23.361  0.00  0.00    -0.285 N 
ATOM     18  C   UNL     1       6.679  -3.544  22.733  0.00  0.00    +0.179 C 
ATOM     19  C   UNL     1       6.133  -4.440  21.607  0.00  0.00    +0.039 C 
ATOM     20  C   UNL     1       7.058  -5.656  21.560  0.00  0.00    +0.022 C 
ATOM     21  C   UNL     1       7.630  -5.738  22.959  0.00  0.00    +0.109 C 
ATOM     22  O   UNL     1       9.621  -4.690  24.594  0.00  0.00    -0.274 OA
BRANCH  18  23
ATOM     23  C   UNL     1       5.605  -3.180  23.681  0.00  0.00    +0.085 C 
ATOM     24  N   UNL     1       4.771  -2.899  24.440  0.00  0.00    -0.195 NA
ENDBRANCH  18  23
ENDBRANCH  15  16
ENDBRANCH  13  15
ENDBRANCH   3  13
TORSDOF 5
ENDMDL
MODEL 2
REMARK VINA RESULT:      -6.9      1.867      2.407
REMARK  Name = 
REMARK  5 active torsions:
REMARK  status: ('A' for Active; 'I' for Inactive)
REMARK    1  A    between atoms: O_1  and  C_2
REMARK    2  A    between atoms: C_9  and  N_12
REMARK    3  A    between atoms: N_12  and  C_13
REMARK    4  A    between atoms: C_13  and  C_14
REMARK    5  A    between atoms: C_20  and  C_22
REMARK                            x       y       z     vdW  Elec       q    Type
REMARK                         _______ _______ _______ _____ _____    ______ ____
ROOT
ATOM      1  C   UNL     1       7.566   1.180  22.893  0.00  0.00    +0.068 C 
ATOM      2  C   UNL     1       7.964  -0.241  23.324  0.00  0.00    +0.057 C 
ATOM      3  C   UNL     1       9.482  -0.315  23.623  0.00  0.00    +0.023 C 
ATOM      4  C   UNL     1       9.851   0.725  24.713  0.00  0.00    +0.026 C 
ATOM      5  C   UNL     1       9.440   2.141  24.274  0.00  0.00    -0.006 C 
ATOM      6  C   UNL     1      10.185   2.509  22.982  0.00  0.00    +0.007 C 
ATOM      7  C   UNL     1       9.837   1.505  21.870  0.00  0.00    -0.006 C 
ATOM      8  C   UNL     1      10.233   0.084  22.320  0.00  0.00    +0.026 C 
ATOM      9  C   UNL     1       8.324   1.554  21.611  0.00  0.00    +0.038 C 
ATOM     10  C   UNL     1       7.926   2.166  24.018  0.00  0.00    +0.038 C 
ENDROOT
BRANCH   1  11
ATOM     11  O   UNL     1       6.166   1.211  22.652  0.00  0.00    -0.388 OA
ATOM     12  H   UNL     1       5.961   2.016  22.147  0.00  0.00    +0.210 HD
ENDBRANCH   1  11
BRANCH   3  13
ATOM     13  N   UNL     1       9.912  -1.679  23.991  0.00  0.00    -0.303 NA
ATOM     14  H   UNL     1      10.155  -1.699  24.985  0.00  0.00    +0.123 HD
BRANCH  13  15
ATOM     15  C   UNL     1       8.894  -2.722  23.757  0.00  0.00    +0.178 C 
BRANCH  15  16
ATOM     16  C   UNL     1       9.045  -3.881  24.749  0.00  0.00    +0.230 C 
ATOM     17  N   UNL     1       8.147  -3.978  25.790  0.00  0.00    -0.285 N 
ATOM     18  C   UNL     1       6.948  -3.163  26.021  0.00  0.00    +0.179 C 
ATOM     19  C   UNL     1       6.125  -3.976  27.037  0.00  0.00    +0.039 C 
ATOM     20  C   UNL     1       6.851  -5.314  27.181  0.00  0.00    +0.022 C 
ATOM     21  C   UNL     1       8.283  -4.998  26.806  0.00  0.00    +0.109 C 
ATOM     22  O   UNL     1       9.975  -4.682  24.622  0.00  0.00    -0.274 OA
BRANCH  18  23
ATOM     23  C   UNL     1       7.268  -1.824  26.558  0.00  0.00    +0.085 C 
ATOM     24  N   UNL     1       7.538  -0.777  26.984  0.00  0.00    -0.195 NA
ENDBRANCH  18  23
ENDBRANCH  15  16
ENDBRANCH  13  15
ENDBRANCH   3  13
TORSDOF 5
ENDMDL
MODEL 3
REMARK VINA RESULT:      -6.9      2.017      2.770
REMARK  Name = 
REMARK  5 active torsions:
REMARK  status: ('A' for Active; 'I' for Inactive)
REMARK    1  A    between atoms: O_1  and  C_2
REMARK    2  A    between atoms: C_9  and  N_12
REMARK    3  A    between atoms: N_12  and  C_13
REMARK    4  A    between atoms: C_13  and  C_14
REMARK    5  A    between atoms: C_20  and  C_22
REMARK                            x       y       z     vdW  Elec       q    Type
REMARK                         _______ _______ _______ _____ _____    ______ ____
ROOT
ATOM      1  C   UNL     1       8.553   2.065  22.624  0.00  0.00    +0.068 C 
ATOM      2  C   UNL     1       7.467   0.998  22.413  0.00  0.00    +0.057 C 
ATOM      3  C   UNL     1       7.876  -0.338  23.082  0.00  0.00    +0.023 C 
ATOM      4  C   UNL     1       8.146  -0.104  24.591  0.00  0.00    +0.026 C 
ATOM      5  C   UNL     1       9.229   0.970  24.790  0.00  0.00    -0.006 C 
ATOM      6  C   UNL     1      10.535   0.504  24.130  0.00  0.00    +0.007 C 
ATOM      7  C   UNL     1      10.311   0.271  22.627  0.00  0.00    -0.006 C 
ATOM      8  C   UNL     1       9.214  -0.794  22.430  0.00  0.00    +0.026 C 
ATOM      9  C   UNL     1       9.864   1.591  21.980  0.00  0.00    +0.038 C 
ATOM     10  C   UNL     1       8.761   2.278  24.133  0.00  0.00    +0.038 C 
ENDROOT
BRANCH   1  11
ATOM     11  O   UNL     1       8.129   3.278  22.017  0.00  0.00    -0.388 OA
ATOM     12  H   UNL     1       8.483   3.306  21.112  0.00  0.00    +0.210 HD
ENDBRANCH   1  11
BRANCH   3  13
ATOM     13  N   UNL     1       6.879  -1.404  22.856  0.00  0.00    -0.303 NA
ATOM     14  H   UNL     1       6.182  -1.076  22.183  0.00  0.00    +0.123 HD
BRANCH  13  15
ATOM     15  C   UNL     1       7.444  -2.665  22.338  0.00  0.00    +0.178 C 
BRANCH  15  16
ATOM     16  C   UNL     1       6.372  -3.756  22.235  0.00  0.00    +0.230 C 
ATOM     17  N   UNL     1       6.210  -4.623  23.293  0.00  0.00    -0.285 N 
ATOM     18  C   UNL     1       6.865  -4.569  24.607  0.00  0.00    +0.179 C 
ATOM     19  C   UNL     1       6.003  -5.481  25.499  0.00  0.00    +0.039 C 
ATOM     20  C   UNL     1       4.788  -5.858  24.653  0.00  0.00    +0.022 C 
ATOM     21  C   UNL     1       5.275  -5.724  23.226  0.00  0.00    +0.109 C 
ATOM     22  O   UNL     1       5.701  -3.862  21.205  0.00  0.00    -0.274 OA
BRANCH  18  23
ATOM     23  C   UNL     1       8.263  -5.048  24.562  0.00  0.00    +0.085 C 
ATOM     24  N   UNL     1       9.363  -5.418  24.510  0.00  0.00    -0.195 NA
ENDBRANCH  18  23
ENDBRANCH  15  16
ENDBRANCH  13  15
ENDBRANCH   3  13
TORSDOF 5
ENDMDL
MODEL 4
REMARK VINA RESULT:      -6.9      1.792      2.574
REMARK  Name = 
REMARK  5 active torsions:
REMARK  status: ('A' for Active; 'I' for Inactive)
REMARK    1  A    between atoms: O_1  and  C_2
REMARK    2  A    between atoms: C_9  and  N_12
REMARK    3  A    between atoms: N_12  and  C_13
REMARK    4  A    between atoms: C_13  and  C_14
REMARK    5  A    between atoms: C_20  and  C_22
REMARK                            x       y       z     vdW  Elec       q    Type
REMARK                         _______ _______ _______ _____ _____    ______ ____
ROOT
ATOM      1  C   UNL     1       9.753   1.535  22.475  0.00  0.00    +0.068 C 
ATOM      2  C   UNL     1       9.649   0.114  21.899  0.00  0.00    +0.057 C 
ATOM      3  C   UNL     1       8.932  -0.828  22.898  0.00  0.00    +0.023 C 
ATOM      4  C   UNL     1       7.531  -0.258  23.240  0.00  0.00    +0.026 C 
ATOM      5  C   UNL     1       7.647   1.166  23.808  0.00  0.00    -0.006 C 
ATOM      6  C   UNL     1       8.485   1.134  25.095  0.00  0.00    +0.007 C 
ATOM      7  C   UNL     1       9.889   0.583  24.796  0.00  0.00    -0.006 C 
ATOM      8  C   UNL     1       9.768  -0.839  24.210  0.00  0.00    +0.026 C 
ATOM      9  C   UNL     1      10.575   1.500  23.772  0.00  0.00    +0.038 C 
ATOM     10  C   UNL     1       8.338   2.063  22.769  0.00  0.00    +0.038 C 
ENDROOT
BRANCH   1  11
ATOM     11  O   UNL     1      10.393   2.371  21.521  0.00  0.00    -0.388 OA
ATOM     12  H   UNL     1      10.143   2.068  20.633  0.00  0.00    +0.210 HD
ENDBRANCH   1  11
BRANCH   3  13
ATOM     13  N   UNL     1       8.858  -2.217  22.400  0.00  0.00    -0.303 NA
ATOM     14  H   UNL     1       9.629  -2.759  22.799  0.00  0.00    +0.123 HD
BRANCH  13  15
ATOM     15  C   UNL     1       7.601  -2.916  22.731  0.00  0.00    +0.178 C 
BRANCH  15  16
ATOM     16  C   UNL     1       7.818  -3.965  23.829  0.00  0.00    +0.230 C 
ATOM     17  N   UNL     1       6.742  -4.339  24.604  0.00  0.00    -0.285 N 
ATOM     18  C   UNL     1       5.336  -3.947  24.440  0.00  0.00    +0.179 C 
ATOM     19  C   UNL     1       4.554  -4.976  25.275  0.00  0.00    +0.039 C 
ATOM     20  C   UNL     1       5.584  -6.013  25.723  0.00  0.00    +0.022 C 
ATOM     21  C   UNL     1       6.896  -5.260  25.708  0.00  0.00    +0.109 C 
ATOM     22  O   UNL     1       8.945  -4.428  24.021  0.00  0.00    -0.274 OA
BRANCH  18  23
ATOM     23  C   UNL     1       5.072  -2.573  24.918  0.00  0.00    +0.085 C 
ATOM     24  N   UNL     1       4.848  -1.499  25.301  0.00  0.00    -0.195 NA
ENDBRANCH  18  23
ENDBRANCH  15  16
ENDBRANCH  13  15
ENDBRANCH   3  13
TORSDOF 5
ENDMDL
MODEL 5
REMARK VINA RESULT:      -6.8      2.237      3.136
REMARK  Name = 
REMARK  5 active torsions:
REMARK  status: ('A' for Active; 'I' for Inactive)
REMARK    1  A    between atoms: O_1  and  C_2
REMARK    2  A    between atoms: C_9  and  N_12
REMARK    3  A    between atoms: N_12  and  C_13
REMARK    4  A    between atoms: C_13  and  C_14
REMARK    5  A    between atoms: C_20  and  C_22
REMARK                            x       y       z     vdW  Elec       q    Type
REMARK                         _______ _______ _______ _____ _____    ______ ____
ROOT
ATOM      1  C   UNL     1       9.721   0.620  24.382  0.00  0.00    +0.068 C 
ATOM      2  C   UNL     1       9.203  -0.767  23.970  0.00  0.00    +0.057 C 
ATOM      3  C   UNL     1       8.410  -0.682  22.642  0.00  0.00    +0.023 C 
ATOM      4  C   UNL     1       9.307  -0.068  21.537  0.00  0.00    +0.026 C 
ATOM      5  C   UNL     1       9.826   1.316  21.963  0.00  0.00    -0.006 C 
ATOM      6  C   UNL     1       8.633   2.256  22.196  0.00  0.00    +0.007 C 
ATOM      7  C   UNL     1       7.722   1.686  23.297  0.00  0.00    -0.006 C 
ATOM      8  C   UNL     1       7.218   0.291  22.874  0.00  0.00    +0.026 C 
ATOM      9  C   UNL     1       8.530   1.565  24.597  0.00  0.00    +0.038 C 
ATOM     10  C   UNL     1      10.626   1.170  23.266  0.00  0.00    +0.038 C 
ENDROOT
BRANCH   1  11
ATOM     11  O   UNL     1      10.461   0.495  25.588  0.00  0.00    -0.388 OA
ATOM     12  H   UNL     1      10.809  -0.412  25.640  0.00  0.00    +0.210 HD
ENDBRANCH   1  11
BRANCH   3  13
ATOM     13  N   UNL     1       7.852  -1.989  22.240  0.00  0.00    -0.303 NA
ATOM     14  H   UNL     1       8.438  -2.736  22.621  0.00  0.00    +0.123 HD
BRANCH  13  15
ATOM     15  C   UNL     1       6.469  -2.226  22.697  0.00  0.00    +0.178 C 
BRANCH  15  16
ATOM     16  C   UNL     1       5.966  -3.607  22.262  0.00  0.00    +0.230 C 
ATOM     17  N   UNL     1       5.929  -4.619  23.196  0.00  0.00    -0.285 N 
ATOM     18  C   UNL     1       6.201  -4.523  24.636  0.00  0.00    +0.179 C 
ATOM     19  C   UNL     1       5.595  -5.810  25.225  0.00  0.00    +0.039 C 
ATOM     20  C   UNL     1       4.847  -6.479  24.072  0.00  0.00    +0.022 C 
ATOM     21  C   UNL     1       5.545  -5.965  22.832  0.00  0.00    +0.109 C 
ATOM     22  O   UNL     1       5.637  -3.800  21.089  0.00  0.00    -0.274 OA
BRANCH  18  23
ATOM     23  C   UNL     1       7.646  -4.440  24.935  0.00  0.00    +0.085 C 
ATOM     24  N   UNL     1       8.782  -4.391  25.177  0.00  0.00    -0.195 NA
ENDBRANCH  18  23
ENDBRANCH  15  16
ENDBRANCH  13  15
ENDBRANCH   3  13
TORSDOF 5
ENDMDL
MODEL 6
REMARK VINA RESULT:      -6.8      2.097      3.398
REMARK  Name = 
REMARK  5 active torsions:
REMARK  status: ('A' for Active; 'I' for Inactive)
REMARK    1  A    between atoms: O_1  and  C_2
REMARK    2  A    between atoms: C_9  and  N_12
REMARK    3  A    between atoms: N_12  and  C_13
REMARK    4  A    between atoms: C_13  and  C_14
REMARK    5  A    between atoms: C_20  and  C_22
REMARK                            x       y       z     vdW  Elec       q    Type
REMARK                         _______ _______ _______ _____ _____    ______ ____
ROOT
ATOM      1  C   UNL     1       9.642  -0.609  22.265  0.00  0.00    +0.068 C 
ATOM      2  C   UNL     1       8.268  -1.235  22.551  0.00  0.00    +0.057 C 
ATOM      3  C   UNL     1       7.382  -0.258  23.364  0.00  0.00    +0.023 C 
ATOM      4  C   UNL     1       7.239   1.081  22.594  0.00  0.00    +0.026 C 
ATOM      5  C   UNL     1       8.621   1.693  22.306  0.00  0.00    -0.006 C 
ATOM      6  C   UNL     1       9.339   1.973  23.635  0.00  0.00    +0.007 C 
ATOM      7  C   UNL     1       9.511   0.665  24.425  0.00  0.00    -0.006 C 
ATOM      8  C   UNL     1       8.125   0.045  24.697  0.00  0.00    +0.026 C 
ATOM      9  C   UNL     1      10.353  -0.313  23.593  0.00  0.00    +0.038 C 
ATOM     10  C   UNL     1       9.446   0.697  21.477  0.00  0.00    +0.038 C 
ENDROOT
BRANCH   1  11
ATOM     11  O   UNL     1      10.413  -1.525  21.500  0.00  0.00    -0.388 OA
ATOM     12  H   UNL     1      11.047  -1.019  20.965  0.00  0.00    +0.210 HD
ENDBRANCH   1  11
BRANCH   3  13
ATOM     13  N   UNL     1       6.070  -0.844  23.703  0.00  0.00    -0.303 NA
ATOM     14  H   UNL     1       5.347  -0.410  23.124  0.00  0.00    +0.123 HD
BRANCH  13  15
ATOM     15  C   UNL     1       5.986  -2.305  23.504  0.00  0.00    +0.178 C 
BRANCH  15  16
ATOM     16  C   UNL     1       5.946  -3.049  24.843  0.00  0.00    +0.230 C 
ATOM     17  N   UNL     1       6.858  -4.058  25.064  0.00  0.00    -0.285 N 
ATOM     18  C   UNL     1       7.984  -4.455  24.209  0.00  0.00    +0.179 C 
ATOM     19  C   UNL     1       8.883  -5.298  25.130  0.00  0.00    +0.039 C 
ATOM     20  C   UNL     1       8.278  -5.171  26.528  0.00  0.00    +0.022 C 
ATOM     21  C   UNL     1       6.821  -4.854  26.271  0.00  0.00    +0.109 C 
ATOM     22  O   UNL     1       5.088  -2.760  25.681  0.00  0.00    -0.274 OA
BRANCH  18  23
ATOM     23  C   UNL     1       7.553  -5.241  23.034  0.00  0.00    +0.085 C 
ATOM     24  N   UNL     1       7.226  -5.850  22.100  0.00  0.00    -0.195 NA
ENDBRANCH  18  23
ENDBRANCH  15  16
ENDBRANCH  13  15
ENDBRANCH   3  13
TORSDOF 5
ENDMDL
MODEL 7
REMARK VINA RESULT:      -6.7      2.109      2.902
REMARK  Name = 
REMARK  5 active torsions:
REMARK  status: ('A' for Active; 'I' for Inactive)
REMARK    1  A    between atoms: O_1  and  C_2
REMARK    2  A    between atoms: C_9  and  N_12
REMARK    3  A    between atoms: N_12  and  C_13
REMARK    4  A    between atoms: C_13  and  C_14
REMARK    5  A    between atoms: C_20  and  C_22
REMARK                            x       y       z     vdW  Elec       q    Type
REMARK                         _______ _______ _______ _____ _____    ______ ____
ROOT
ATOM      1  C   UNL     1       9.626   1.353  22.469  0.00  0.00    +0.068 C 
ATOM      2  C   UNL     1       9.426  -0.044  21.860  0.00  0.00    +0.057 C 
ATOM      3  C   UNL     1       8.784  -1.003  22.892  0.00  0.00    +0.023 C 
ATOM      4  C   UNL     1       7.440  -0.412  23.389  0.00  0.00    +0.026 C 
ATOM      5  C   UNL     1       7.651   0.989  23.989  0.00  0.00    -0.006 C 
ATOM      6  C   UNL     1       8.608   0.890  25.187  0.00  0.00    +0.007 C 
ATOM      7  C   UNL     1       9.961   0.316  24.732  0.00  0.00    -0.006 C 
ATOM      8  C   UNL     1       9.744  -1.081  24.115  0.00  0.00    +0.026 C 
ATOM      9  C   UNL     1      10.569   1.251  23.677  0.00  0.00    +0.038 C 
ATOM     10  C   UNL     1       8.262   1.905  22.918  0.00  0.00    +0.038 C 
ENDROOT
BRANCH   1  11
ATOM     11  O   UNL     1      10.193   2.206  21.485  0.00  0.00    -0.388 OA
ATOM     12  H   UNL     1       9.490   2.781  21.138  0.00  0.00    +0.210 HD
ENDBRANCH   1  11
BRANCH   3  13
ATOM     13  N   UNL     1       8.624  -2.372  22.359  0.00  0.00    -0.303 NA
ATOM     14  H   UNL     1       9.503  -2.670  21.929  0.00  0.00    +0.123 HD
BRANCH  13  15
ATOM     15  C   UNL     1       8.254  -3.380  23.372  0.00  0.00    +0.178 C 
BRANCH  15  16
ATOM     16  C   UNL     1       7.197  -4.351  22.833  0.00  0.00    +0.230 C 
ATOM     17  N   UNL     1       6.286  -4.889  23.714  0.00  0.00    -0.285 N 
ATOM     18  C   UNL     1       6.104  -4.556  25.133  0.00  0.00    +0.179 C 
ATOM     19  C   UNL     1       4.712  -5.114  25.479  0.00  0.00    +0.039 C 
ATOM     20  C   UNL     1       4.112  -5.581  24.153  0.00  0.00    +0.022 C 
ATOM     21  C   UNL     1       5.317  -5.874  23.286  0.00  0.00    +0.109 C 
ATOM     22  O   UNL     1       7.199  -4.658  21.637  0.00  0.00    -0.274 OA
BRANCH  18  23
ATOM     23  C   UNL     1       7.141  -5.162  25.995  0.00  0.00    +0.085 C 
ATOM     24  N   UNL     1       7.943  -5.642  26.685  0.00  0.00    -0.195 NA
ENDBRANCH  18  23
ENDBRANCH  15  16
ENDBRANCH  13  15
ENDBRANCH   3  13
TORSDOF 5
ENDMDL
MODEL 8
REMARK VINA RESULT:      -6.7      1.957      2.817
REMARK  Name = 
REMARK  5 active torsions:
REMARK  status: ('A' for Active; 'I' for Inactive)
REMARK    1  A    between atoms: O_1  and  C_2
REMARK    2  A    between atoms: C_9  and  N_12
REMARK    3  A    between atoms: N_12  and  C_13
REMARK    4  A    between atoms: C_13  and  C_14
REMARK    5  A    between atoms: C_20  and  C_22
REMARK                            x       y       z     vdW  Elec       q    Type
REMARK                         _______ _______ _______ _____ _____    ______ ____
ROOT
ATOM      1  C   UNL     1       9.698   0.530  24.311  0.00  0.00    +0.068 C 
ATOM      2  C   UNL     1       9.588  -0.948  23.905  0.00  0.00    +0.057 C 
ATOM      3  C   UNL     1       8.772  -1.096  22.597  0.00  0.00    +0.023 C 
ATOM      4  C   UNL     1       9.429  -0.254  21.474  0.00  0.00    +0.026 C 
ATOM      5  C   UNL     1       9.541   1.222  21.894  0.00  0.00    -0.006 C 
ATOM      6  C   UNL     1       8.135   1.782  22.160  0.00  0.00    +0.007 C 
ATOM      7  C   UNL     1       7.452   0.978  23.279  0.00  0.00    -0.006 C 
ATOM      8  C   UNL     1       7.358  -0.504  22.862  0.00  0.00    +0.026 C 
ATOM      9  C   UNL     1       8.291   1.095  24.560  0.00  0.00    +0.038 C 
ATOM     10  C   UNL     1      10.381   1.314  23.177  0.00  0.00    +0.038 C 
ENDROOT
BRANCH   1  11
ATOM     11  O   UNL     1      10.471   0.624  25.499  0.00  0.00    -0.388 OA
ATOM     12  H   UNL     1      10.862  -0.248  25.679  0.00  0.00    +0.210 HD
ENDBRANCH   1  11
BRANCH   3  13
ATOM     13  N   UNL     1       8.602  -2.509  22.202  0.00  0.00    -0.303 NA
ATOM     14  H   UNL     1       9.384  -3.058  22.569  0.00  0.00    +0.123 HD
BRANCH  13  15
ATOM     15  C   UNL     1       7.353  -3.130  22.687  0.00  0.00    +0.178 C 
BRANCH  15  16
ATOM     16  C   UNL     1       7.628  -4.127  23.818  0.00  0.00    +0.230 C 
ATOM     17  N   UNL     1       6.599  -4.453  24.673  0.00  0.00    -0.285 N 
ATOM     18  C   UNL     1       5.188  -4.055  24.576  0.00  0.00    +0.179 C 
ATOM     19  C   UNL     1       4.450  -5.035  25.505  0.00  0.00    +0.039 C 
ATOM     20  C   UNL     1       5.497  -6.060  25.939  0.00  0.00    +0.022 C 
ATOM     21  C   UNL     1       6.812  -5.323  25.809  0.00  0.00    +0.109 C 
ATOM     22  O   UNL     1       8.761  -4.593  23.964  0.00  0.00    -0.274 OA
BRANCH  18  23
ATOM     23  C   UNL     1       4.964  -2.657  25.004  0.00  0.00    +0.085 C 
ATOM     24  N   UNL     1       4.804  -1.559  25.348  0.00  0.00    -0.195 NA
ENDBRANCH  18  23
ENDBRANCH  15  16
ENDBRANCH  13  15
ENDBRANCH   3  13
TORSDOF 5
ENDMDL
MODEL 9
REMARK VINA RESULT:      -6.6      1.440      1.689
REMARK  Name = 
REMARK  5 active torsions:
REMARK  status: ('A' for Active; 'I' for Inactive)
REMARK    1  A    between atoms: O_1  and  C_2
REMARK    2  A    between atoms: C_9  and  N_12
REMARK    3  A    between atoms: N_12  and  C_13
REMARK    4  A    between atoms: C_13  and  C_14
REMARK    5  A    between atoms: C_20  and  C_22
REMARK                            x       y       z     vdW  Elec       q    Type
REMARK                         _______ _______ _______ _____ _____    ______ ____
ROOT
ATOM      1  C   UNL     1       7.610   1.028  22.877  0.00  0.00    +0.068 C 
ATOM      2  C   UNL     1       7.969  -0.389  23.350  0.00  0.00    +0.057 C 
ATOM      3  C   UNL     1       9.473  -0.482  23.707  0.00  0.00    +0.023 C 
ATOM      4  C   UNL     1       9.819   0.574  24.788  0.00  0.00    +0.026 C 
ATOM      5  C   UNL     1       9.449   1.987  24.307  0.00  0.00    -0.006 C 
ATOM      6  C   UNL     1      10.246   2.317  23.037  0.00  0.00    +0.007 C 
ATOM      7  C   UNL     1       9.923   1.296  21.933  0.00  0.00    -0.006 C 
ATOM      8  C   UNL     1      10.279  -0.121  22.425  0.00  0.00    +0.026 C 
ATOM      9  C   UNL     1       8.421   1.365  21.617  0.00  0.00    +0.038 C 
ATOM     10  C   UNL     1       7.945   2.031  23.995  0.00  0.00    +0.038 C 
ENDROOT
BRANCH   1  11
ATOM     11  O   UNL     1       6.222   1.077  22.583  0.00  0.00    -0.388 OA
ATOM     12  H   UNL     1       5.759   0.484  23.199  0.00  0.00    +0.210 HD
ENDBRANCH   1  11
BRANCH   3  13
ATOM     13  N   UNL     1       9.867  -1.845  24.117  0.00  0.00    -0.303 NA
ATOM     14  H   UNL     1       9.996  -1.867  25.132  0.00  0.00    +0.123 HD
BRANCH  13  15
ATOM     15  C   UNL     1       8.889  -2.893  23.766  0.00  0.00    +0.178 C 
BRANCH  15  16
ATOM     16  C   UNL     1       8.040  -3.293  24.978  0.00  0.00    +0.230 C 
ATOM     17  N   UNL     1       6.955  -4.117  24.780  0.00  0.00    -0.285 N 
ATOM     18  C   UNL     1       6.552  -4.789  23.538  0.00  0.00    +0.179 C 
ATOM     19  C   UNL     1       5.573  -5.884  23.998  0.00  0.00    +0.039 C 
ATOM     20  C   UNL     1       5.626  -5.871  25.525  0.00  0.00    +0.022 C 
ATOM     21  C   UNL     1       6.066  -4.464  25.867  0.00  0.00    +0.109 C 
ATOM     22  O   UNL     1       8.319  -2.850  26.096  0.00  0.00    -0.274 OA
BRANCH  18  23
ATOM     23  C   UNL     1       5.898  -3.869  22.583  0.00  0.00    +0.085 C 
ATOM     24  N   UNL     1       5.369  -3.155  21.834  0.00  0.00    -0.195 NA
ENDBRANCH  18  23
ENDBRANCH  15  16
ENDBRANCH  13  15
ENDBRANCH   3  13
TORSDOF 5
ENDMDL
