MODEL 1
REMARK VINA RESULT:      -7.6      0.000      0.000
REMARK  Name = 
REMARK  7 active torsions:
REMARK  status: ('A' for Active; 'I' for Inactive)
REMARK    1  A    between atoms: O_1  and  C_2
REMARK    2  A    between atoms: C_2  and  C_4
REMARK    3  A    between atoms: C_4  and  N_5
REMARK    4  A    between atoms: N_5  and  S_6
REMARK    5  A    between atoms: S_6  and  C_9
REMARK    6  A    between atoms: C_12  and  N_15
REMARK    7  A    between atoms: C_18  and  C_21
REMARK                            x       y       z     vdW  Elec       q    Type
REMARK                         _______ _______ _______ _____ _____    ______ ____
ROOT
ATOM      1  C   UNL     1       9.208   3.650  24.098  0.00  0.00    +0.105 A 
ATOM      2  C   UNL     1       8.368   3.113  25.067  0.00  0.00    +0.030 A 
ATOM      3  C   UNL     1       8.169   1.734  25.122  0.00  0.00    +0.025 A 
ATOM      4  C   UNL     1       8.816   0.851  24.242  0.00  0.00    +0.030 A 
ATOM      5  C   UNL     1       9.705   1.421  23.317  0.00  0.00    +0.025 A 
ATOM      6  C   UNL     1       9.903   2.807  23.233  0.00  0.00    +0.030 A 
ENDROOT
BRANCH   4   7
ATOM      7  N   UNL     1       8.603  -0.510  24.329  0.00  0.00    -0.330 N 
ATOM      8  C   UNL     1       7.772  -1.092  25.388  0.00  0.00    +0.105 C 
ATOM      9  C   UNL     1       8.543  -2.239  26.045  0.00  0.00    +0.027 C 
ATOM     10  C   UNL     1       8.942  -3.313  25.003  0.00  0.00    +0.022 C 
ATOM     11  C   UNL     1       9.785  -2.592  23.925  0.00  0.00    +0.027 C 
ATOM     12  C   UNL     1       9.012  -1.439  23.275  0.00  0.00    +0.105 C 
BRANCH  10  13
ATOM     13  C   UNL     1       7.777  -4.146  24.454  0.00  0.00    -0.044 A 
ATOM     14  C   UNL     1       6.706  -4.548  25.271  0.00  0.00    +0.004 A 
ATOM     15  C   UNL     1       5.647  -5.312  24.768  0.00  0.00    +0.000 A 
ATOM     16  C   UNL     1       5.646  -5.711  23.437  0.00  0.00    +0.000 A 
ATOM     17  C   UNL     1       6.710  -5.359  22.616  0.00  0.00    +0.000 A 
ATOM     18  C   UNL     1       7.766  -4.597  23.122  0.00  0.00    +0.004 A 
ENDBRANCH  10  13
ENDBRANCH   4   7
BRANCH   1  19
ATOM     19  S   UNL     1       9.417   5.404  24.008  0.00  0.00    +0.059 S 
ATOM     20  O   UNL     1       8.274   5.971  23.341  0.00  0.00    -0.153 OA
ATOM     21  O   UNL     1       9.870   5.874  25.299  0.00  0.00    -0.153 OA
BRANCH  19  22
ATOM     22  N   UNL     1      10.779   5.577  22.995  0.00  0.00    -0.179 NA
ATOM     23  H   UNL     1      10.711   4.834  22.290  0.00  0.00    +0.149 HD
BRANCH  22  24
ATOM     24  C   UNL     1      12.086   5.633  23.712  0.00  0.00    +0.226 C 
BRANCH  24  25
ATOM     25  C   UNL     1      13.226   5.443  22.731  0.00  0.00    +0.320 C 
ATOM     26  O   UNL     1      13.135   5.601  21.525  0.00  0.00    -0.250 OA
BRANCH  25  27
ATOM     27  O   UNL     1      14.367   5.022  23.336  0.00  0.00    -0.480 OA
ATOM     28  H   UNL     1      14.331   5.252  24.291  0.00  0.00    +0.295 HD
ENDBRANCH  25  27
ENDBRANCH  24  25
ENDBRANCH  22  24
ENDBRANCH  19  22
ENDBRANCH   1  19
TORSDOF 7
ENDMDL
MODEL 2
REMARK VINA RESULT:      -7.5      0.908      1.483
REMARK  Name = 
REMARK  7 active torsions:
REMARK  status: ('A' for Active; 'I' for Inactive)
REMARK    1  A    between atoms: O_1  and  C_2
REMARK    2  A    between atoms: C_2  and  C_4
REMARK    3  A    between atoms: C_4  and  N_5
REMARK    4  A    between atoms: N_5  and  S_6
REMARK    5  A    between atoms: S_6  and  C_9
REMARK    6  A    between atoms: C_12  and  N_15
REMARK    7  A    between atoms: C_18  and  C_21
REMARK                            x       y       z     vdW  Elec       q    Type
REMARK                         _______ _______ _______ _____ _____    ______ ____
ROOT
ATOM      1  C   UNL     1       9.230   3.758  24.033  0.00  0.00    +0.105 A 
ATOM      2  C   UNL     1       8.280   3.218  24.892  0.00  0.00    +0.030 A 
ATOM      3  C   UNL     1       8.063   1.840  24.905  0.00  0.00    +0.025 A 
ATOM      4  C   UNL     1       8.800   0.961  24.093  0.00  0.00    +0.030 A 
ATOM      5  C   UNL     1       9.794   1.535  23.283  0.00  0.00    +0.025 A 
ATOM      6  C   UNL     1      10.012   2.919  23.242  0.00  0.00    +0.030 A 
ENDROOT
BRANCH   4   7
ATOM      7  N   UNL     1       8.566  -0.398  24.136  0.00  0.00    -0.330 N 
ATOM      8  C   UNL     1       9.498  -1.317  24.797  0.00  0.00    +0.105 C 
ATOM      9  C   UNL     1       9.813  -2.471  23.844  0.00  0.00    +0.027 C 
ATOM     10  C   UNL     1       8.522  -3.209  23.413  0.00  0.00    +0.022 C 
ATOM     11  C   UNL     1       7.605  -2.149  22.756  0.00  0.00    +0.027 C 
ATOM     12  C   UNL     1       7.298  -0.992  23.713  0.00  0.00    +0.105 C 
BRANCH  10  13
ATOM     13  C   UNL     1       7.854  -4.041  24.514  0.00  0.00    -0.044 A 
ATOM     14  C   UNL     1       8.559  -4.460  25.655  0.00  0.00    +0.004 A 
ATOM     15  C   UNL     1       7.947  -5.222  26.655  0.00  0.00    +0.000 A 
ATOM     16  C   UNL     1       6.617  -5.603  26.527  0.00  0.00    +0.000 A 
ATOM     17  C   UNL     1       5.906  -5.234  25.393  0.00  0.00    +0.000 A 
ATOM     18  C   UNL     1       6.520  -4.473  24.394  0.00  0.00    +0.004 A 
ENDBRANCH  10  13
ENDBRANCH   4   7
BRANCH   1  19
ATOM     19  S   UNL     1       9.463   5.511  23.992  0.00  0.00    +0.059 S 
ATOM     20  O   UNL     1       8.319   6.114  23.358  0.00  0.00    -0.153 OA
ATOM     21  O   UNL     1       9.941   5.936  25.290  0.00  0.00    -0.153 OA
BRANCH  19  22
ATOM     22  N   UNL     1      10.812   5.695  22.965  0.00  0.00    -0.179 NA
ATOM     23  H   UNL     1      10.748   4.946  22.266  0.00  0.00    +0.149 HD
BRANCH  22  24
ATOM     24  C   UNL     1      12.126   5.774  23.669  0.00  0.00    +0.226 C 
BRANCH  24  25
ATOM     25  C   UNL     1      13.251   5.440  22.710  0.00  0.00    +0.320 C 
ATOM     26  O   UNL     1      13.199   5.593  21.501  0.00  0.00    -0.250 OA
BRANCH  25  27
ATOM     27  O   UNL     1      14.325   4.896  23.339  0.00  0.00    -0.480 OA
ATOM     28  H   UNL     1      14.167   4.898  24.309  0.00  0.00    +0.295 HD
ENDBRANCH  25  27
ENDBRANCH  24  25
ENDBRANCH  22  24
ENDBRANCH  19  22
ENDBRANCH   1  19
TORSDOF 7
ENDMDL
MODEL 3
REMARK VINA RESULT:      -7.3      5.380      9.343
REMARK  Name = 
REMARK  7 active torsions:
REMARK  status: ('A' for Active; 'I' for Inactive)
REMARK    1  A    between atoms: O_1  and  C_2
REMARK    2  A    between atoms: C_2  and  C_4
REMARK    3  A    between atoms: C_4  and  N_5
REMARK    4  A    between atoms: N_5  and  S_6
REMARK    5  A    between atoms: S_6  and  C_9
REMARK    6  A    between atoms: C_12  and  N_15
REMARK    7  A    between atoms: C_18  and  C_21
REMARK                            x       y       z     vdW  Elec       q    Type
REMARK                         _______ _______ _______ _____ _____    ______ ____
ROOT
ATOM      1  C   UNL     1       8.209  -3.322  23.461  0.00  0.00    +0.105 A 
ATOM      2  C   UNL     1       7.449  -2.433  22.710  0.00  0.00    +0.030 A 
ATOM      3  C   UNL     1       7.720  -1.066  22.774  0.00  0.00    +0.025 A 
ATOM      4  C   UNL     1       8.765  -0.549  23.557  0.00  0.00    +0.030 A 
ATOM      5  C   UNL     1       9.552  -1.481  24.254  0.00  0.00    +0.025 A 
ATOM      6  C   UNL     1       9.282  -2.856  24.217  0.00  0.00    +0.030 A 
ENDROOT
BRANCH   4   7
ATOM      7  N   UNL     1       9.012   0.809  23.592  0.00  0.00    -0.330 N 
ATOM      8  C   UNL     1       9.184   1.526  24.860  0.00  0.00    +0.105 C 
ATOM      9  C   UNL     1       8.281   2.761  24.854  0.00  0.00    +0.027 C 
ATOM     10  C   UNL     1       8.601   3.681  23.651  0.00  0.00    +0.022 C 
ATOM     11  C   UNL     1       8.417   2.823  22.376  0.00  0.00    +0.027 C 
ATOM     12  C   UNL     1       9.318   1.584  22.390  0.00  0.00    +0.105 C 
BRANCH  10  13
ATOM     13  C   UNL     1       9.943   4.418  23.738  0.00  0.00    -0.044 A 
ATOM     14  C   UNL     1      11.137   3.838  23.275  0.00  0.00    +0.004 A 
ATOM     15  C   UNL     1      12.360   4.512  23.360  0.00  0.00    +0.000 A 
ATOM     16  C   UNL     1      12.422   5.776  23.933  0.00  0.00    +0.000 A 
ATOM     17  C   UNL     1      11.264   6.358  24.432  0.00  0.00    +0.000 A 
ATOM     18  C   UNL     1      10.044   5.683  24.347  0.00  0.00    +0.004 A 
ENDBRANCH  10  13
ENDBRANCH   4   7
BRANCH   1  19
ATOM     19  S   UNL     1       7.827  -5.048  23.407  0.00  0.00    +0.059 S 
ATOM     20  O   UNL     1       7.422  -5.389  22.067  0.00  0.00    -0.153 OA
ATOM     21  O   UNL     1       8.869  -5.768  24.106  0.00  0.00    -0.153 OA
BRANCH  19  22
ATOM     22  N   UNL     1       6.469  -5.174  24.432  0.00  0.00    -0.179 NA
ATOM     23  H   UNL     1       5.671  -4.806  23.900  0.00  0.00    +0.149 HD
BRANCH  22  24
ATOM     24  C   UNL     1       6.647  -4.564  25.782  0.00  0.00    +0.226 C 
BRANCH  24  25
ATOM     25  C   UNL     1       6.996  -5.634  26.795  0.00  0.00    +0.320 C 
ATOM     26  O   UNL     1       6.187  -6.384  27.316  0.00  0.00    -0.250 OA
BRANCH  25  27
ATOM     27  O   UNL     1       8.317  -5.642  27.109  0.00  0.00    -0.480 OA
ATOM     28  H   UNL     1       8.580  -4.749  27.427  0.00  0.00    +0.295 HD
ENDBRANCH  25  27
ENDBRANCH  24  25
ENDBRANCH  22  24
ENDBRANCH  19  22
ENDBRANCH   1  19
TORSDOF 7
ENDMDL
MODEL 4
REMARK VINA RESULT:      -7.2      6.483      9.901
REMARK  Name = 
REMARK  7 active torsions:
REMARK  status: ('A' for Active; 'I' for Inactive)
REMARK    1  A    between atoms: O_1  and  C_2
REMARK    2  A    between atoms: C_2  and  C_4
REMARK    3  A    between atoms: C_4  and  N_5
REMARK    4  A    between atoms: N_5  and  S_6
REMARK    5  A    between atoms: S_6  and  C_9
REMARK    6  A    between atoms: C_12  and  N_15
REMARK    7  A    between atoms: C_18  and  C_21
REMARK                            x       y       z     vdW  Elec       q    Type
REMARK                         _______ _______ _______ _____ _____    ______ ____
ROOT
ATOM      1  C   UNL     1       4.603  -5.507  25.021  0.00  0.00    +0.105 A 
ATOM      2  C   UNL     1       5.949  -5.835  25.137  0.00  0.00    +0.030 A 
ATOM      3  C   UNL     1       6.921  -4.924  24.723  0.00  0.00    +0.025 A 
ATOM      4  C   UNL     1       6.588  -3.658  24.214  0.00  0.00    +0.030 A 
ATOM      5  C   UNL     1       5.222  -3.336  24.169  0.00  0.00    +0.025 A 
ATOM      6  C   UNL     1       4.230  -4.246  24.562  0.00  0.00    +0.030 A 
ENDROOT
BRANCH   4   7
ATOM      7  N   UNL     1       7.575  -2.777  23.820  0.00  0.00    -0.330 N 
ATOM      8  C   UNL     1       7.445  -1.973  22.601  0.00  0.00    +0.105 C 
ATOM      9  C   UNL     1       8.723  -2.123  21.773  0.00  0.00    +0.027 C 
ATOM     10  C   UNL     1       9.969  -1.696  22.587  0.00  0.00    +0.022 C 
ATOM     11  C   UNL     1       9.994  -2.581  23.856  0.00  0.00    +0.027 C 
ATOM     12  C   UNL     1       8.709  -2.433  24.678  0.00  0.00    +0.105 C 
BRANCH  10  13
ATOM     13  C   UNL     1      10.083  -0.190  22.854  0.00  0.00    -0.044 A 
ATOM     14  C   UNL     1       9.813   0.760  21.854  0.00  0.00    +0.004 A 
ATOM     15  C   UNL     1       9.922   2.133  22.101  0.00  0.00    +0.000 A 
ATOM     16  C   UNL     1      10.327   2.588  23.349  0.00  0.00    +0.000 A 
ATOM     17  C   UNL     1      10.635   1.670  24.345  0.00  0.00    +0.000 A 
ATOM     18  C   UNL     1      10.526   0.300  24.096  0.00  0.00    +0.004 A 
ENDBRANCH  10  13
ENDBRANCH   4   7
BRANCH   1  19
ATOM     19  S   UNL     1       3.379  -6.688  25.507  0.00  0.00    +0.059 S 
ATOM     20  O   UNL     1       2.139  -5.996  25.744  0.00  0.00    -0.153 OA
ATOM     21  O   UNL     1       3.471  -7.828  24.621  0.00  0.00    -0.153 OA
BRANCH  19  22
ATOM     22  N   UNL     1       3.973  -7.265  26.998  0.00  0.00    -0.179 NA
ATOM     23  H   UNL     1       3.373  -8.056  27.261  0.00  0.00    +0.149 HD
BRANCH  22  24
ATOM     24  C   UNL     1       4.122  -6.224  28.056  0.00  0.00    +0.226 C 
BRANCH  24  25
ATOM     25  C   UNL     1       5.502  -6.304  28.675  0.00  0.00    +0.320 C 
ATOM     26  O   UNL     1       6.172  -5.338  29.002  0.00  0.00    -0.250 OA
BRANCH  25  27
ATOM     27  O   UNL     1       5.948  -7.582  28.786  0.00  0.00    -0.480 OA
ATOM     28  H   UNL     1       5.296  -8.190  28.371  0.00  0.00    +0.295 HD
ENDBRANCH  25  27
ENDBRANCH  24  25
ENDBRANCH  22  24
ENDBRANCH  19  22
ENDBRANCH   1  19
TORSDOF 7
ENDMDL
MODEL 5
REMARK VINA RESULT:      -7.1      5.216      9.237
REMARK  Name = 
REMARK  7 active torsions:
REMARK  status: ('A' for Active; 'I' for Inactive)
REMARK    1  A    between atoms: O_1  and  C_2
REMARK    2  A    between atoms: C_2  and  C_4
REMARK    3  A    between atoms: C_4  and  N_5
REMARK    4  A    between atoms: N_5  and  S_6
REMARK    5  A    between atoms: S_6  and  C_9
REMARK    6  A    between atoms: C_12  and  N_15
REMARK    7  A    between atoms: C_18  and  C_21
REMARK                            x       y       z     vdW  Elec       q    Type
REMARK                         _______ _______ _______ _____ _____    ______ ____
ROOT
ATOM      1  C   UNL     1       8.759  -3.146  25.264  0.00  0.00    +0.105 A 
ATOM      2  C   UNL     1       9.454  -2.802  24.110  0.00  0.00    +0.030 A 
ATOM      3  C   UNL     1       9.644  -1.457  23.792  0.00  0.00    +0.025 A 
ATOM      4  C   UNL     1       9.180  -0.422  24.621  0.00  0.00    +0.030 A 
ATOM      5  C   UNL     1       8.537  -0.806  25.809  0.00  0.00    +0.025 A 
ATOM      6  C   UNL     1       8.319  -2.152  26.135  0.00  0.00    +0.030 A 
ENDROOT
BRANCH   4   7
ATOM      7  N   UNL     1       9.392   0.899  24.282  0.00  0.00    -0.330 N 
ATOM      8  C   UNL     1       8.753   1.994  25.018  0.00  0.00    +0.105 C 
ATOM      9  C   UNL     1       8.094   2.942  24.015  0.00  0.00    +0.027 C 
ATOM     10  C   UNL     1       9.127   3.489  23.001  0.00  0.00    +0.022 C 
ATOM     11  C   UNL     1       9.758   2.259  22.305  0.00  0.00    +0.027 C 
ATOM     12  C   UNL     1      10.410   1.308  23.314  0.00  0.00    +0.105 C 
BRANCH  10  13
ATOM     13  C   UNL     1      10.139   4.486  23.580  0.00  0.00    -0.044 A 
ATOM     14  C   UNL     1       9.738   5.545  24.414  0.00  0.00    +0.004 A 
ATOM     15  C   UNL     1      10.664   6.454  24.937  0.00  0.00    +0.000 A 
ATOM     16  C   UNL     1      12.011   6.339  24.621  0.00  0.00    +0.000 A 
ATOM     17  C   UNL     1      12.430   5.324  23.770  0.00  0.00    +0.000 A 
ATOM     18  C   UNL     1      11.504   4.417  23.248  0.00  0.00    +0.004 A 
ENDBRANCH  10  13
ENDBRANCH   4   7
BRANCH   1  19
ATOM     19  S   UNL     1       8.483  -4.854  25.632  0.00  0.00    +0.059 S 
ATOM     20  O   UNL     1       9.395  -5.647  24.849  0.00  0.00    -0.153 OA
ATOM     21  O   UNL     1       8.372  -4.997  27.068  0.00  0.00    -0.153 OA
BRANCH  19  22
ATOM     22  N   UNL     1       6.900  -5.121  25.058  0.00  0.00    -0.179 NA
ATOM     23  H   UNL     1       6.786  -6.139  24.986  0.00  0.00    +0.149 HD
BRANCH  22  24
ATOM     24  C   UNL     1       6.551  -4.370  23.816  0.00  0.00    +0.226 C 
BRANCH  24  25
ATOM     25  C   UNL     1       6.381  -5.330  22.657  0.00  0.00    +0.320 C 
ATOM     26  O   UNL     1       5.326  -5.541  22.081  0.00  0.00    -0.250 OA
BRANCH  25  27
ATOM     27  O   UNL     1       7.531  -5.984  22.350  0.00  0.00    -0.480 OA
ATOM     28  H   UNL     1       8.213  -5.329  22.079  0.00  0.00    +0.295 HD
ENDBRANCH  25  27
ENDBRANCH  24  25
ENDBRANCH  22  24
ENDBRANCH  19  22
ENDBRANCH   1  19
TORSDOF 7
ENDMDL
MODEL 6
REMARK VINA RESULT:      -7.1      7.043     10.595
REMARK  Name = 
REMARK  7 active torsions:
REMARK  status: ('A' for Active; 'I' for Inactive)
REMARK    1  A    between atoms: O_1  and  C_2
REMARK    2  A    between atoms: C_2  and  C_4
REMARK    3  A    between atoms: C_4  and  N_5
REMARK    4  A    between atoms: N_5  and  S_6
REMARK    5  A    between atoms: S_6  and  C_9
REMARK    6  A    between atoms: C_12  and  N_15
REMARK    7  A    between atoms: C_18  and  C_21
REMARK                            x       y       z     vdW  Elec       q    Type
REMARK                         _______ _______ _______ _____ _____    ______ ____
ROOT
ATOM      1  C   UNL     1       4.215  -5.440  24.668  0.00  0.00    +0.105 A 
ATOM      2  C   UNL     1       3.973  -4.178  24.138  0.00  0.00    +0.030 A 
ATOM      3  C   UNL     1       5.044  -3.334  23.843  0.00  0.00    +0.025 A 
ATOM      4  C   UNL     1       6.378  -3.728  24.036  0.00  0.00    +0.030 A 
ATOM      5  C   UNL     1       6.589  -5.031  24.514  0.00  0.00    +0.025 A 
ATOM      6  C   UNL     1       5.524  -5.886  24.835  0.00  0.00    +0.030 A 
ENDROOT
BRANCH   4   7
ATOM      7  N   UNL     1       7.416  -2.871  23.727  0.00  0.00    -0.330 N 
ATOM      8  C   UNL     1       7.433  -2.106  22.476  0.00  0.00    +0.105 C 
ATOM      9  C   UNL     1       8.792  -2.299  21.800  0.00  0.00    +0.027 C 
ATOM     10  C   UNL     1       9.947  -1.859  22.732  0.00  0.00    +0.022 C 
ATOM     11  C   UNL     1       9.819  -2.702  24.023  0.00  0.00    +0.027 C 
ATOM     12  C   UNL     1       8.454  -2.512  24.693  0.00  0.00    +0.105 C 
BRANCH  10  13
ATOM     13  C   UNL     1      10.054  -0.347  22.962  0.00  0.00    -0.044 A 
ATOM     14  C   UNL     1       9.827   0.576  21.927  0.00  0.00    +0.004 A 
ATOM     15  C   UNL     1       9.930   1.955  22.140  0.00  0.00    +0.000 A 
ATOM     16  C   UNL     1      10.284   2.444  23.391  0.00  0.00    +0.000 A 
ATOM     17  C   UNL     1      10.549   1.553  24.423  0.00  0.00    +0.000 A 
ATOM     18  C   UNL     1      10.447   0.176  24.208  0.00  0.00    +0.004 A 
ENDBRANCH  10  13
ENDBRANCH   4   7
BRANCH   1  19
ATOM     19  S   UNL     1       2.848  -6.483  25.080  0.00  0.00    +0.059 S 
ATOM     20  O   UNL     1       3.097  -7.083  26.365  0.00  0.00    -0.153 OA
ATOM     21  O   UNL     1       1.625  -5.768  24.785  0.00  0.00    -0.153 OA
BRANCH  19  22
ATOM     22  N   UNL     1       2.920  -7.701  23.888  0.00  0.00    -0.179 NA
ATOM     23  H   UNL     1       3.365  -7.275  23.067  0.00  0.00    +0.149 HD
BRANCH  22  24
ATOM     24  C   UNL     1       1.620  -8.377  23.606  0.00  0.00    +0.226 C 
BRANCH  24  25
ATOM     25  C   UNL     1       1.147  -8.034  22.209  0.00  0.00    +0.320 C 
ATOM     26  O   UNL     1       1.102  -8.824  21.280  0.00  0.00    -0.250 OA
BRANCH  25  27
ATOM     27  O   UNL     1       0.820  -6.723  22.077  0.00  0.00    -0.480 OA
ATOM     28  H   UNL     1       1.584  -6.169  22.355  0.00  0.00    +0.295 HD
ENDBRANCH  25  27
ENDBRANCH  24  25
ENDBRANCH  22  24
ENDBRANCH  19  22
ENDBRANCH   1  19
TORSDOF 7
ENDMDL
MODEL 7
REMARK VINA RESULT:      -7.0      5.381      9.072
REMARK  Name = 
REMARK  7 active torsions:
REMARK  status: ('A' for Active; 'I' for Inactive)
REMARK    1  A    between atoms: O_1  and  C_2
REMARK    2  A    between atoms: C_2  and  C_4
REMARK    3  A    between atoms: C_4  and  N_5
REMARK    4  A    between atoms: N_5  and  S_6
REMARK    5  A    between atoms: S_6  and  C_9
REMARK    6  A    between atoms: C_12  and  N_15
REMARK    7  A    between atoms: C_18  and  C_21
REMARK                            x       y       z     vdW  Elec       q    Type
REMARK                         _______ _______ _______ _____ _____    ______ ____
ROOT
ATOM      1  C   UNL     1       5.772  -2.911  23.884  0.00  0.00    +0.105 A 
ATOM      2  C   UNL     1       6.757  -2.894  22.903  0.00  0.00    +0.030 A 
ATOM      3  C   UNL     1       7.623  -1.805  22.810  0.00  0.00    +0.025 A 
ATOM      4  C   UNL     1       7.557  -0.722  23.702  0.00  0.00    +0.030 A 
ATOM      5  C   UNL     1       6.591  -0.800  24.719  0.00  0.00    +0.025 A 
ATOM      6  C   UNL     1       5.699  -1.877  24.815  0.00  0.00    +0.030 A 
ENDROOT
BRANCH   4   7
ATOM      7  N   UNL     1       8.435   0.338  23.588  0.00  0.00    -0.330 N 
ATOM      8  C   UNL     1       8.391   1.252  22.443  0.00  0.00    +0.105 C 
ATOM      9  C   UNL     1       9.803   1.393  21.871  0.00  0.00    +0.027 C 
ATOM     10  C   UNL     1      10.793   1.902  22.946  0.00  0.00    +0.022 C 
ATOM     11  C   UNL     1      10.740   0.887  24.113  0.00  0.00    +0.027 C 
ATOM     12  C   UNL     1       9.323   0.743  24.678  0.00  0.00    +0.105 C 
BRANCH  10  13
ATOM     13  C   UNL     1      10.601   3.366  23.362  0.00  0.00    -0.044 A 
ATOM     14  C   UNL     1       9.337   3.879  23.700  0.00  0.00    +0.004 A 
ATOM     15  C   UNL     1       9.166   5.216  24.075  0.00  0.00    +0.000 A 
ATOM     16  C   UNL     1      10.254   6.079  24.099  0.00  0.00    +0.000 A 
ATOM     17  C   UNL     1      11.509   5.608  23.735  0.00  0.00    +0.000 A 
ATOM     18  C   UNL     1      11.677   4.273  23.360  0.00  0.00    +0.004 A 
ENDBRANCH  10  13
ENDBRANCH   4   7
BRANCH   1  19
ATOM     19  S   UNL     1       4.651  -4.276  23.962  0.00  0.00    +0.059 S 
ATOM     20  O   UNL     1       3.636  -3.984  24.941  0.00  0.00    -0.153 OA
ATOM     21  O   UNL     1       4.327  -4.677  22.610  0.00  0.00    -0.153 OA
BRANCH  19  22
ATOM     22  N   UNL     1       5.628  -5.543  24.554  0.00  0.00    -0.179 NA
ATOM     23  H   UNL     1       5.143  -6.416  24.317  0.00  0.00    +0.149 HD
BRANCH  22  24
ATOM     24  C   UNL     1       6.008  -5.417  25.992  0.00  0.00    +0.226 C 
BRANCH  24  25
ATOM     25  C   UNL     1       7.515  -5.339  26.127  0.00  0.00    +0.320 C 
ATOM     26  O   UNL     1       8.278  -5.059  25.217  0.00  0.00    -0.250 OA
BRANCH  25  27
ATOM     27  O   UNL     1       7.943  -5.667  27.373  0.00  0.00    -0.480 OA
ATOM     28  H   UNL     1       7.551  -5.043  28.025  0.00  0.00    +0.295 HD
ENDBRANCH  25  27
ENDBRANCH  24  25
ENDBRANCH  22  24
ENDBRANCH  19  22
ENDBRANCH   1  19
TORSDOF 7
ENDMDL
MODEL 8
REMARK VINA RESULT:      -7.0      5.559      9.634
REMARK  Name = 
REMARK  7 active torsions:
REMARK  status: ('A' for Active; 'I' for Inactive)
REMARK    1  A    between atoms: O_1  and  C_2
REMARK    2  A    between atoms: C_2  and  C_4
REMARK    3  A    between atoms: C_4  and  N_5
REMARK    4  A    between atoms: N_5  and  S_6
REMARK    5  A    between atoms: S_6  and  C_9
REMARK    6  A    between atoms: C_12  and  N_15
REMARK    7  A    between atoms: C_18  and  C_21
REMARK                            x       y       z     vdW  Elec       q    Type
REMARK                         _______ _______ _______ _____ _____    ______ ____
ROOT
ATOM      1  C   UNL     1       8.748  -3.146  25.357  0.00  0.00    +0.105 A 
ATOM      2  C   UNL     1       9.419  -2.733  24.212  0.00  0.00    +0.030 A 
ATOM      3  C   UNL     1       9.529  -1.372  23.927  0.00  0.00    +0.025 A 
ATOM      4  C   UNL     1       9.006  -0.387  24.781  0.00  0.00    +0.030 A 
ATOM      5  C   UNL     1       8.390  -0.837  25.961  0.00  0.00    +0.025 A 
ATOM      6  C   UNL     1       8.252  -2.201  26.253  0.00  0.00    +0.030 A 
ENDROOT
BRANCH   4   7
ATOM      7  N   UNL     1       9.140   0.952  24.475  0.00  0.00    -0.330 N 
ATOM      8  C   UNL     1       8.049   1.905  24.702  0.00  0.00    +0.105 C 
ATOM      9  C   UNL     1       7.832   2.720  23.426  0.00  0.00    +0.027 C 
ATOM     10  C   UNL     1       9.128   3.455  23.005  0.00  0.00    +0.022 C 
ATOM     11  C   UNL     1      10.213   2.367  22.820  0.00  0.00    +0.027 C 
ATOM     12  C   UNL     1      10.422   1.549  24.099  0.00  0.00    +0.105 C 
BRANCH  10  13
ATOM     13  C   UNL     1       9.537   4.619  23.915  0.00  0.00    -0.044 A 
ATOM     14  C   UNL     1       8.679   5.114  24.913  0.00  0.00    +0.004 A 
ATOM     15  C   UNL     1       9.054   6.179  25.739  0.00  0.00    +0.000 A 
ATOM     16  C   UNL     1      10.289   6.791  25.571  0.00  0.00    +0.000 A 
ATOM     17  C   UNL     1      11.142   6.346  24.569  0.00  0.00    +0.000 A 
ATOM     18  C   UNL     1      10.766   5.283  23.745  0.00  0.00    +0.004 A 
ENDBRANCH  10  13
ENDBRANCH   4   7
BRANCH   1  19
ATOM     19  S   UNL     1       8.575  -4.875  25.684  0.00  0.00    +0.059 S 
ATOM     20  O   UNL     1       9.623  -5.582  24.993  0.00  0.00    -0.153 OA
ATOM     21  O   UNL     1       8.328  -5.049  27.099  0.00  0.00    -0.153 OA
BRANCH  19  22
ATOM     22  N   UNL     1       7.085  -5.258  24.946  0.00  0.00    -0.179 NA
ATOM     23  H   UNL     1       7.061  -4.742  24.059  0.00  0.00    +0.149 HD
BRANCH  22  24
ATOM     24  C   UNL     1       5.888  -5.054  25.814  0.00  0.00    +0.226 C 
BRANCH  24  25
ATOM     25  C   UNL     1       5.311  -6.392  26.228  0.00  0.00    +0.320 C 
ATOM     26  O   UNL     1       4.547  -7.057  25.548  0.00  0.00    -0.250 OA
BRANCH  25  27
ATOM     27  O   UNL     1       5.697  -6.761  27.477  0.00  0.00    -0.480 OA
ATOM     28  H   UNL     1       6.664  -6.939  27.478  0.00  0.00    +0.295 HD
ENDBRANCH  25  27
ENDBRANCH  24  25
ENDBRANCH  22  24
ENDBRANCH  19  22
ENDBRANCH   1  19
TORSDOF 7
ENDMDL
MODEL 9
REMARK VINA RESULT:      -6.9      1.701      3.129
REMARK  Name = 
REMARK  7 active torsions:
REMARK  status: ('A' for Active; 'I' for Inactive)
REMARK    1  A    between atoms: O_1  and  C_2
REMARK    2  A    between atoms: C_2  and  C_4
REMARK    3  A    between atoms: C_4  and  N_5
REMARK    4  A    between atoms: N_5  and  S_6
REMARK    5  A    between atoms: S_6  and  C_9
REMARK    6  A    between atoms: C_12  and  N_15
REMARK    7  A    between atoms: C_18  and  C_21
REMARK                            x       y       z     vdW  Elec       q    Type
REMARK                         _______ _______ _______ _____ _____    ______ ____
ROOT
ATOM      1  C   UNL     1       9.740   3.991  24.103  0.00  0.00    +0.105 A 
ATOM      2  C   UNL     1       8.689   3.484  24.858  0.00  0.00    +0.030 A 
ATOM      3  C   UNL     1       8.405   2.118  24.818  0.00  0.00    +0.025 A 
ATOM      4  C   UNL     1       9.172   1.219  24.058  0.00  0.00    +0.030 A 
ATOM      5  C   UNL     1      10.264   1.757  23.358  0.00  0.00    +0.025 A 
ATOM      6  C   UNL     1      10.551   3.129  23.369  0.00  0.00    +0.030 A 
ENDROOT
BRANCH   4   7
ATOM      7  N   UNL     1       8.870  -0.128  24.047  0.00  0.00    -0.330 N 
ATOM      8  C   UNL     1       9.831  -1.134  24.508  0.00  0.00    +0.105 C 
ATOM      9  C   UNL     1       9.944  -2.230  23.448  0.00  0.00    +0.027 C 
ATOM     10  C   UNL     1       8.565  -2.874  23.160  0.00  0.00    +0.022 C 
ATOM     11  C   UNL     1       7.627  -1.729  22.712  0.00  0.00    +0.027 C 
ATOM     12  C   UNL     1       7.523  -0.630  23.774  0.00  0.00    +0.105 C 
BRANCH  10  13
ATOM     13  C   UNL     1       8.012  -3.750  24.291  0.00  0.00    -0.044 A 
ATOM     14  C   UNL     1       6.632  -3.969  24.448  0.00  0.00    +0.004 A 
ATOM     15  C   UNL     1       6.131  -4.766  25.483  0.00  0.00    +0.000 A 
ATOM     16  C   UNL     1       6.997  -5.345  26.401  0.00  0.00    +0.000 A 
ATOM     17  C   UNL     1       8.363  -5.116  26.291  0.00  0.00    +0.000 A 
ATOM     18  C   UNL     1       8.861  -4.319  25.257  0.00  0.00    +0.004 A 
ENDBRANCH  10  13
ENDBRANCH   4   7
BRANCH   1  19
ATOM     19  S   UNL     1      10.060   5.730  24.125  0.00  0.00    +0.059 S 
ATOM     20  O   UNL     1       9.540   6.280  25.351  0.00  0.00    -0.153 OA
ATOM     21  O   UNL     1      11.427   5.947  23.701  0.00  0.00    -0.153 OA
BRANCH  19  22
ATOM     22  N   UNL     1       9.119   6.312  22.827  0.00  0.00    -0.179 NA
ATOM     23  H   UNL     1       9.673   7.048  22.376  0.00  0.00    +0.149 HD
BRANCH  22  24
ATOM     24  C   UNL     1       7.731   6.719  23.196  0.00  0.00    +0.226 C 
BRANCH  24  25
ATOM     25  C   UNL     1       6.724   5.837  22.488  0.00  0.00    +0.320 C 
ATOM     26  O   UNL     1       5.518   5.884  22.664  0.00  0.00    -0.250 OA
BRANCH  25  27
ATOM     27  O   UNL     1       7.313   4.938  21.658  0.00  0.00    -0.480 OA
ATOM     28  H   UNL     1       6.638   4.296  21.344  0.00  0.00    +0.295 HD
ENDBRANCH  25  27
ENDBRANCH  24  25
ENDBRANCH  22  24
ENDBRANCH  19  22
ENDBRANCH   1  19
TORSDOF 7
ENDMDL
