MODEL 1
REMARK VINA RESULT:      -7.5      0.000      0.000
REMARK  Name = 
REMARK  17 active torsions:
REMARK  status: ('A' for Active; 'I' for Inactive)
REMARK    1  A    between atoms: O_1  and  C_2
REMARK    2  A    between atoms: C_2  and  C_3
REMARK    3  A    between atoms: C_6  and  O_8
REMARK    4  A    between atoms: O_8  and  P_9
REMARK    5  A    between atoms: P_9  and  O_10
REMARK    6  A    between atoms: P_9  and  O_12
REMARK    7  A    between atoms: O_12  and  P_13
REMARK    8  A    between atoms: P_13  and  O_14
REMARK    9  A    between atoms: P_13  and  O_16
REMARK   10  A    between atoms: O_16  and  C_17
REMARK   11  A    between atoms: C_17  and  C_18
REMARK   12  A    between atoms: C_21  and  N_29
REMARK   13  A    between atoms: C_23  and  O_25
REMARK   14  A    between atoms: C_26  and  O_28
REMARK   15  A    between atoms: C_37  and  O_39
REMARK   16  A    between atoms: C_40  and  O_42
REMARK   17  A    between atoms: C_43  and  O_45
REMARK                            x       y       z     vdW  Elec       q    Type
REMARK                         _______ _______ _______ _____ _____    ______ ____
ROOT
ATOM      1  P   UNL     1       9.081  -1.277  22.643  0.00  0.00    +0.483 P 
ATOM      2  O   UNL     1       9.196  -2.321  23.750  0.00  0.00    -0.227 OA
ENDROOT
BRANCH   1   3
ATOM      3  O   UNL     1      10.108  -1.798  21.481  0.00  0.00    -0.302 OA
ATOM      4  H   UNL     1      10.505  -2.624  21.836  0.00  0.00    +0.222 HD
ENDBRANCH   1   3
BRANCH   1   5
ATOM      5  O   UNL     1      10.362  -0.366  23.365  0.00  0.00    -0.186 OA
BRANCH   5   6
ATOM      6  P   UNL     1       9.694   0.878  24.364  0.00  0.00    +0.486 P 
ATOM      7  O   UNL     1      10.993   1.676  24.337  0.00  0.00    -0.227 OA
BRANCH   6   8
ATOM      8  O   UNL     1       9.026   2.122  25.364  0.00  0.00    -0.302 OA
ATOM      9  H   UNL     1       9.063   1.740  26.269  0.00  0.00    +0.222 HD
ENDBRANCH   6   8
BRANCH   6  10
ATOM     10  O   UNL     1       8.733   1.325  23.122  0.00  0.00    -0.254 OA
BRANCH  10  15
ATOM     11  C   UNL     1       7.343   4.654  23.038  0.00  0.00    +0.178 C 
ATOM     12  C   UNL     1       5.921   4.454  22.498  0.00  0.00    +0.177 C 
ATOM     13  C   UNL     1       5.358   3.127  23.029  0.00  0.00    +0.179 C 
ATOM     14  C   UNL     1       6.318   1.947  22.802  0.00  0.00    +0.202 C 
ATOM     15  C   UNL     1       7.744   2.336  23.266  0.00  0.00    +0.293 C 
ATOM     16  O   UNL     1       8.181   3.548  22.661  0.00  0.00    -0.340 OA
BRANCH  12  17
ATOM     17  O   UNL     1       5.099   5.561  22.892  0.00  0.00    -0.386 OA
ATOM     18  H   UNL     1       4.991   6.157  22.131  0.00  0.00    +0.210 HD
ENDBRANCH  12  17
BRANCH  13  19
ATOM     19  O   UNL     1       4.089   2.834  22.428  0.00  0.00    -0.386 OA
ATOM     20  H   UNL     1       3.746   2.052  22.904  0.00  0.00    +0.210 HD
ENDBRANCH  13  19
BRANCH  14  21
ATOM     21  O   UNL     1       5.749   0.848  23.538  0.00  0.00    -0.384 OA
ATOM     22  H   UNL     1       4.776   0.863  23.443  0.00  0.00    +0.210 HD
ENDBRANCH  14  21
BRANCH  11  23
ATOM     23  C   UNL     1       7.968   5.952  22.526  0.00  0.00    +0.190 C 
BRANCH  23  24
ATOM     24  O   UNL     1       7.403   6.259  21.248  0.00  0.00    -0.392 OA
ATOM     25  H   UNL     1       7.213   5.412  20.816  0.00  0.00    +0.210 HD
ENDBRANCH  23  24
ENDBRANCH  11  23
ENDBRANCH  10  15
ENDBRANCH   6  10
ENDBRANCH   5   6
ENDBRANCH   1   5
BRANCH   1  26
ATOM     26  O   UNL     1       7.800  -2.187  21.921  0.00  0.00    -0.284 OA
BRANCH  26  27
ATOM     27  C   UNL     1       6.782  -2.498  22.856  0.00  0.00    +0.206 C 
BRANCH  27  28
ATOM     28  C   UNL     1       6.320  -3.954  22.733  0.00  0.00    +0.178 C 
ATOM     29  C   UNL     1       7.450  -4.954  22.461  0.00  0.00    +0.178 C 
ATOM     30  C   UNL     1       7.802  -5.545  23.832  0.00  0.00    +0.195 C 
ATOM     31  C   UNL     1       6.847  -4.825  24.799  0.00  0.00    +0.255 C 
ATOM     32  O   UNL     1       5.751  -4.356  23.995  0.00  0.00    -0.346 OA
BRANCH  31  33
ATOM     33  N   UNL     1       6.379  -5.618  25.935  0.00  0.00    -0.271 N 
ATOM     34  C   UNL     1       7.109  -5.515  27.116  0.00  0.00    +0.331 A 
ATOM     35  O   UNL     1       8.176  -4.910  27.196  0.00  0.00    -0.246 OA
ATOM     36  N   UNL     1       6.559  -6.123  28.212  0.00  0.00    -0.275 N 
ATOM     37  H   UNL     1       7.044  -6.004  29.088  0.00  0.00    +0.173 HD
ATOM     38  C   UNL     1       5.327  -6.708  28.266  0.00  0.00    +0.254 A 
ATOM     39  O   UNL     1       4.812  -7.078  29.309  0.00  0.00    -0.268 OA
ATOM     40  C   UNL     1       4.638  -6.858  26.977  0.00  0.00    +0.088 A 
ATOM     41  C   UNL     1       5.175  -6.302  25.891  0.00  0.00    +0.098 A 
ENDBRANCH  31  33
BRANCH  30  42
ATOM     42  O   UNL     1       9.170  -5.281  24.149  0.00  0.00    -0.385 OA
ATOM     43  H   UNL     1       9.626  -6.152  24.186  0.00  0.00    +0.210 HD
ENDBRANCH  30  42
BRANCH  29  44
ATOM     44  O   UNL     1       6.975  -6.005  21.603  0.00  0.00    -0.386 OA
ATOM     45  H   UNL     1       7.323  -6.854  21.927  0.00  0.00    +0.210 HD
ENDBRANCH  29  44
ENDBRANCH  27  28
ENDBRANCH  26  27
ENDBRANCH   1  26
TORSDOF 17
ENDMDL
MODEL 2
REMARK VINA RESULT:      -7.4      1.229      2.409
REMARK  Name = 
REMARK  17 active torsions:
REMARK  status: ('A' for Active; 'I' for Inactive)
REMARK    1  A    between atoms: O_1  and  C_2
REMARK    2  A    between atoms: C_2  and  C_3
REMARK    3  A    between atoms: C_6  and  O_8
REMARK    4  A    between atoms: O_8  and  P_9
REMARK    5  A    between atoms: P_9  and  O_10
REMARK    6  A    between atoms: P_9  and  O_12
REMARK    7  A    between atoms: O_12  and  P_13
REMARK    8  A    between atoms: P_13  and  O_14
REMARK    9  A    between atoms: P_13  and  O_16
REMARK   10  A    between atoms: O_16  and  C_17
REMARK   11  A    between atoms: C_17  and  C_18
REMARK   12  A    between atoms: C_21  and  N_29
REMARK   13  A    between atoms: C_23  and  O_25
REMARK   14  A    between atoms: C_26  and  O_28
REMARK   15  A    between atoms: C_37  and  O_39
REMARK   16  A    between atoms: C_40  and  O_42
REMARK   17  A    between atoms: C_43  and  O_45
REMARK                            x       y       z     vdW  Elec       q    Type
REMARK                         _______ _______ _______ _____ _____    ______ ____
ROOT
ATOM      1  P   UNL     1       8.830  -1.314  22.862  0.00  0.00    +0.483 P 
ATOM      2  O   UNL     1       8.703  -2.186  24.108  0.00  0.00    -0.227 OA
ENDROOT
BRANCH   1   3
ATOM      3  O   UNL     1      10.107  -1.941  22.053  0.00  0.00    -0.302 OA
ATOM      4  H   UNL     1      10.575  -1.168  21.666  0.00  0.00    +0.222 HD
ENDBRANCH   1   3
BRANCH   1   5
ATOM      5  O   UNL     1       9.894  -0.248  23.712  0.00  0.00    -0.186 OA
BRANCH   5   6
ATOM      6  P   UNL     1      10.180   1.165  22.757  0.00  0.00    +0.486 P 
ATOM      7  O   UNL     1       9.367   0.610  21.591  0.00  0.00    -0.227 OA
BRANCH   6   8
ATOM      8  O   UNL     1      10.468   2.578  21.799  0.00  0.00    -0.302 OA
ATOM      9  H   UNL     1       9.731   3.181  22.046  0.00  0.00    +0.222 HD
ENDBRANCH   6   8
BRANCH   6  10
ATOM     10  O   UNL     1       9.215   2.013  23.764  0.00  0.00    -0.254 OA
BRANCH  10  15
ATOM     11  C   UNL     1       5.780   1.518  24.751  0.00  0.00    +0.178 C 
ATOM     12  C   UNL     1       5.038   2.717  24.145  0.00  0.00    +0.177 C 
ATOM     13  C   UNL     1       5.669   3.072  22.791  0.00  0.00    +0.179 C 
ATOM     14  C   UNL     1       7.198   3.220  22.873  0.00  0.00    +0.202 C 
ATOM     15  C   UNL     1       7.801   2.008  23.627  0.00  0.00    +0.293 C 
ATOM     16  O   UNL     1       7.179   1.815  24.893  0.00  0.00    -0.340 OA
BRANCH  12  17
ATOM     17  O   UNL     1       3.648   2.397  24.002  0.00  0.00    -0.386 OA
ATOM     18  H   UNL     1       3.164   2.762  24.763  0.00  0.00    +0.210 HD
ENDBRANCH  12  17
BRANCH  13  19
ATOM     19  O   UNL     1       5.100   4.279  22.264  0.00  0.00    -0.386 OA
ATOM     20  H   UNL     1       5.678   4.541  21.520  0.00  0.00    +0.210 HD
ENDBRANCH  13  19
BRANCH  14  21
ATOM     21  O   UNL     1       7.643   3.333  21.508  0.00  0.00    -0.384 OA
ATOM     22  H   UNL     1       8.362   2.690  21.348  0.00  0.00    +0.210 HD
ENDBRANCH  14  21
BRANCH  11  23
ATOM     23  C   UNL     1       5.210   1.127  26.115  0.00  0.00    +0.190 C 
BRANCH  23  24
ATOM     24  O   UNL     1       4.169   0.165  25.917  0.00  0.00    -0.392 OA
ATOM     25  H   UNL     1       4.501  -0.680  26.261  0.00  0.00    +0.210 HD
ENDBRANCH  23  24
ENDBRANCH  11  23
ENDBRANCH  10  15
ENDBRANCH   6  10
ENDBRANCH   5   6
ENDBRANCH   1   5
BRANCH   1  26
ATOM     26  O   UNL     1       7.766  -2.380  22.012  0.00  0.00    -0.284 OA
BRANCH  26  27
ATOM     27  C   UNL     1       6.589  -2.651  22.753  0.00  0.00    +0.206 C 
BRANCH  27  28
ATOM     28  C   UNL     1       6.204  -4.132  22.689  0.00  0.00    +0.178 C 
ATOM     29  C   UNL     1       7.384  -5.082  22.459  0.00  0.00    +0.178 C 
ATOM     30  C   UNL     1       7.763  -5.597  23.854  0.00  0.00    +0.195 C 
ATOM     31  C   UNL     1       6.769  -4.889  24.790  0.00  0.00    +0.255 C 
ATOM     32  O   UNL     1       5.652  -4.511  23.966  0.00  0.00    -0.346 OA
BRANCH  31  33
ATOM     33  N   UNL     1       6.340  -5.657  25.957  0.00  0.00    -0.271 N 
ATOM     34  C   UNL     1       7.106  -5.527  27.112  0.00  0.00    +0.331 A 
ATOM     35  O   UNL     1       8.174  -4.919  27.145  0.00  0.00    -0.246 OA
ATOM     36  N   UNL     1       6.593  -6.112  28.238  0.00  0.00    -0.275 N 
ATOM     37  H   UNL     1       7.106  -5.973  29.095  0.00  0.00    +0.173 HD
ATOM     38  C   UNL     1       5.365  -6.698  28.344  0.00  0.00    +0.254 A 
ATOM     39  O   UNL     1       4.885  -7.046  29.411  0.00  0.00    -0.268 OA
ATOM     40  C   UNL     1       4.635  -6.877  27.081  0.00  0.00    +0.088 A 
ATOM     41  C   UNL     1       5.136  -6.344  25.967  0.00  0.00    +0.098 A 
ENDBRANCH  31  33
BRANCH  30  42
ATOM     42  O   UNL     1       9.114  -5.249  24.161  0.00  0.00    -0.385 OA
ATOM     43  H   UNL     1       9.384  -5.807  24.925  0.00  0.00    +0.210 HD
ENDBRANCH  30  42
BRANCH  29  44
ATOM     44  O   UNL     1       6.967  -6.191  21.645  0.00  0.00    -0.386 OA
ATOM     45  H   UNL     1       7.515  -6.965  21.866  0.00  0.00    +0.210 HD
ENDBRANCH  29  44
ENDBRANCH  27  28
ENDBRANCH  26  27
ENDBRANCH   1  26
TORSDOF 17
ENDMDL
MODEL 3
REMARK VINA RESULT:      -7.3      2.028      2.835
REMARK  Name = 
REMARK  17 active torsions:
REMARK  status: ('A' for Active; 'I' for Inactive)
REMARK    1  A    between atoms: O_1  and  C_2
REMARK    2  A    between atoms: C_2  and  C_3
REMARK    3  A    between atoms: C_6  and  O_8
REMARK    4  A    between atoms: O_8  and  P_9
REMARK    5  A    between atoms: P_9  and  O_10
REMARK    6  A    between atoms: P_9  and  O_12
REMARK    7  A    between atoms: O_12  and  P_13
REMARK    8  A    between atoms: P_13  and  O_14
REMARK    9  A    between atoms: P_13  and  O_16
REMARK   10  A    between atoms: O_16  and  C_17
REMARK   11  A    between atoms: C_17  and  C_18
REMARK   12  A    between atoms: C_21  and  N_29
REMARK   13  A    between atoms: C_23  and  O_25
REMARK   14  A    between atoms: C_26  and  O_28
REMARK   15  A    between atoms: C_37  and  O_39
REMARK   16  A    between atoms: C_40  and  O_42
REMARK   17  A    between atoms: C_43  and  O_45
REMARK                            x       y       z     vdW  Elec       q    Type
REMARK                         _______ _______ _______ _____ _____    ______ ____
ROOT
ATOM      1  P   UNL     1       8.463  -1.697  22.659  0.00  0.00    +0.483 P 
ATOM      2  O   UNL     1       9.072  -2.932  23.318  0.00  0.00    -0.227 OA
ENDROOT
BRANCH   1   3
ATOM      3  O   UNL     1       9.253  -1.564  21.232  0.00  0.00    -0.302 OA
ATOM      4  H   UNL     1       8.925  -2.310  20.683  0.00  0.00    +0.222 HD
ENDBRANCH   1   3
BRANCH   1   5
ATOM      5  O   UNL     1       9.660  -0.701  23.412  0.00  0.00    -0.186 OA
BRANCH   5   6
ATOM      6  P   UNL     1       9.884   0.738  22.479  0.00  0.00    +0.486 P 
ATOM      7  O   UNL     1       8.406   1.101  22.579  0.00  0.00    -0.227 OA
BRANCH   6   8
ATOM      8  O   UNL     1      10.107   2.176  21.543  0.00  0.00    -0.302 OA
ATOM      9  H   UNL     1       9.193   2.507  21.401  0.00  0.00    +0.222 HD
ENDBRANCH   6   8
BRANCH   6  10
ATOM     10  O   UNL     1      10.710   1.390  23.727  0.00  0.00    -0.254 OA
BRANCH  10  15
ATOM     11  C   UNL     1      11.585   4.890  23.763  0.00  0.00    +0.178 C 
ATOM     12  C   UNL     1      10.236   5.617  23.680  0.00  0.00    +0.177 C 
ATOM     13  C   UNL     1       9.183   4.820  24.464  0.00  0.00    +0.179 C 
ATOM     14  C   UNL     1       9.153   3.334  24.070  0.00  0.00    +0.202 C 
ATOM     15  C   UNL     1      10.594   2.766  24.064  0.00  0.00    +0.293 C 
ATOM     16  O   UNL     1      11.465   3.550  23.256  0.00  0.00    -0.340 OA
BRANCH  12  17
ATOM     17  O   UNL     1      10.375   6.946  24.198  0.00  0.00    -0.386 OA
ATOM     18  H   UNL     1       9.612   7.140  24.768  0.00  0.00    +0.210 HD
ENDBRANCH  12  17
BRANCH  13  19
ATOM     19  O   UNL     1       7.878   5.388  24.285  0.00  0.00    -0.386 OA
ATOM     20  H   UNL     1       7.452   5.356  25.166  0.00  0.00    +0.210 HD
ENDBRANCH  13  19
BRANCH  14  21
ATOM     21  O   UNL     1       8.286   2.703  25.032  0.00  0.00    -0.384 OA
ATOM     22  H   UNL     1       7.420   2.523  24.617  0.00  0.00    +0.210 HD
ENDBRANCH  14  21
BRANCH  11  23
ATOM     23  C   UNL     1      12.676   5.624  22.981  0.00  0.00    +0.190 C 
BRANCH  23  24
ATOM     24  O   UNL     1      13.925   4.966  23.211  0.00  0.00    -0.392 OA
ATOM     25  H   UNL     1      14.619   5.562  22.887  0.00  0.00    +0.210 HD
ENDBRANCH  23  24
ENDBRANCH  11  23
ENDBRANCH  10  15
ENDBRANCH   6  10
ENDBRANCH   5   6
ENDBRANCH   1   5
BRANCH   1  26
ATOM     26  O   UNL     1       7.266  -2.693  21.906  0.00  0.00    -0.284 OA
BRANCH  26  27
ATOM     27  C   UNL     1       5.985  -2.502  22.479  0.00  0.00    +0.206 C 
BRANCH  27  28
ATOM     28  C   UNL     1       5.271  -3.832  22.736  0.00  0.00    +0.178 C 
ATOM     29  C   UNL     1       5.971  -5.053  22.127  0.00  0.00    +0.178 C 
ATOM     30  C   UNL     1       6.784  -5.664  23.275  0.00  0.00    +0.195 C 
ATOM     31  C   UNL     1       6.496  -4.735  24.466  0.00  0.00    +0.255 C 
ATOM     32  O   UNL     1       5.257  -4.071  24.158  0.00  0.00    -0.346 OA
BRANCH  31  33
ATOM     33  N   UNL     1       6.448  -5.380  25.777  0.00  0.00    -0.271 N 
ATOM     34  C   UNL     1       7.649  -5.477  26.474  0.00  0.00    +0.331 A 
ATOM     35  O   UNL     1       8.736  -5.174  25.986  0.00  0.00    -0.246 OA
ATOM     36  N   UNL     1       7.556  -5.922  27.765  0.00  0.00    -0.275 N 
ATOM     37  H   UNL     1       8.409  -5.937  28.302  0.00  0.00    +0.173 HD
ATOM     38  C   UNL     1       6.397  -6.162  28.445  0.00  0.00    +0.254 A 
ATOM     39  O   UNL     1       6.364  -6.386  29.644  0.00  0.00    -0.268 OA
ATOM     40  C   UNL     1       5.168  -6.121  27.640  0.00  0.00    +0.088 A 
ATOM     41  C   UNL     1       5.243  -5.722  26.370  0.00  0.00    +0.098 A 
ENDBRANCH  31  33
BRANCH  30  42
ATOM     42  O   UNL     1       8.173  -5.681  22.945  0.00  0.00    -0.385 OA
ATOM     43  H   UNL     1       8.631  -5.126  23.616  0.00  0.00    +0.210 HD
ENDBRANCH  30  42
BRANCH  29  44
ATOM     44  O   UNL     1       4.991  -6.007  21.683  0.00  0.00    -0.386 OA
ATOM     45  H   UNL     1       4.216  -5.525  21.346  0.00  0.00    +0.210 HD
ENDBRANCH  29  44
ENDBRANCH  27  28
ENDBRANCH  26  27
ENDBRANCH   1  26
TORSDOF 17
ENDMDL
MODEL 4
REMARK VINA RESULT:      -7.3      3.102      9.249
REMARK  Name = 
REMARK  17 active torsions:
REMARK  status: ('A' for Active; 'I' for Inactive)
REMARK    1  A    between atoms: O_1  and  C_2
REMARK    2  A    between atoms: C_2  and  C_3
REMARK    3  A    between atoms: C_6  and  O_8
REMARK    4  A    between atoms: O_8  and  P_9
REMARK    5  A    between atoms: P_9  and  O_10
REMARK    6  A    between atoms: P_9  and  O_12
REMARK    7  A    between atoms: O_12  and  P_13
REMARK    8  A    between atoms: P_13  and  O_14
REMARK    9  A    between atoms: P_13  and  O_16
REMARK   10  A    between atoms: O_16  and  C_17
REMARK   11  A    between atoms: C_17  and  C_18
REMARK   12  A    between atoms: C_21  and  N_29
REMARK   13  A    between atoms: C_23  and  O_25
REMARK   14  A    between atoms: C_26  and  O_28
REMARK   15  A    between atoms: C_37  and  O_39
REMARK   16  A    between atoms: C_40  and  O_42
REMARK   17  A    between atoms: C_43  and  O_45
REMARK                            x       y       z     vdW  Elec       q    Type
REMARK                         _______ _______ _______ _____ _____    ______ ____
ROOT
ATOM      1  P   UNL     1       7.543  -2.720  23.063  0.00  0.00    +0.483 P 
ATOM      2  O   UNL     1       6.661  -1.526  23.417  0.00  0.00    -0.227 OA
ENDROOT
BRANCH   1   3
ATOM      3  O   UNL     1       8.514  -2.170  21.866  0.00  0.00    -0.302 OA
ATOM      4  H   UNL     1       8.193  -2.611  21.048  0.00  0.00    +0.222 HD
ENDBRANCH   1   3
BRANCH   1   5
ATOM      5  O   UNL     1       6.383  -3.233  21.886  0.00  0.00    -0.186 OA
BRANCH   5   6
ATOM      6  P   UNL     1       6.372  -4.960  21.802  0.00  0.00    +0.486 P 
ATOM      7  O   UNL     1       7.712  -5.061  22.523  0.00  0.00    -0.227 OA
BRANCH   6   8
ATOM      8  O   UNL     1       6.361  -6.688  21.717  0.00  0.00    -0.302 OA
ATOM      9  H   UNL     1       7.247  -6.910  21.354  0.00  0.00    +0.222 HD
ENDBRANCH   6   8
BRANCH   6  10
ATOM     10  O   UNL     1       5.148  -4.980  22.883  0.00  0.00    -0.254 OA
BRANCH  10  15
ATOM     11  C   UNL     1       6.053  -5.922  26.246  0.00  0.00    +0.178 C 
ATOM     12  C   UNL     1       4.782  -6.568  26.812  0.00  0.00    +0.177 C 
ATOM     13  C   UNL     1       4.065  -7.340  25.694  0.00  0.00    +0.179 C 
ATOM     14  C   UNL     1       3.863  -6.492  24.427  0.00  0.00    +0.202 C 
ATOM     15  C   UNL     1       5.192  -5.791  24.049  0.00  0.00    +0.293 C 
ATOM     16  O   UNL     1       5.729  -5.057  25.145  0.00  0.00    -0.340 OA
BRANCH  12  17
ATOM     17  O   UNL     1       5.127  -7.432  27.902  0.00  0.00    -0.386 OA
ATOM     18  H   UNL     1       4.688  -8.290  27.772  0.00  0.00    +0.210 HD
ENDBRANCH  12  17
BRANCH  13  19
ATOM     19  O   UNL     1       2.796  -7.832  26.147  0.00  0.00    -0.386 OA
ATOM     20  H   UNL     1       2.821  -8.800  26.002  0.00  0.00    +0.210 HD
ENDBRANCH  13  19
BRANCH  14  21
ATOM     21  O   UNL     1       3.388  -7.411  23.426  0.00  0.00    -0.384 OA
ATOM     22  H   UNL     1       3.706  -8.311  23.636  0.00  0.00    +0.210 HD
ENDBRANCH  14  21
BRANCH  11  23
ATOM     23  C   UNL     1       6.804  -5.118  27.309  0.00  0.00    +0.190 C 
BRANCH  23  24
ATOM     24  O   UNL     1       8.098  -5.700  27.493  0.00  0.00    -0.392 OA
ATOM     25  H   UNL     1       7.963  -6.540  27.960  0.00  0.00    +0.210 HD
ENDBRANCH  23  24
ENDBRANCH  11  23
ENDBRANCH  10  15
ENDBRANCH   6  10
ENDBRANCH   5   6
ENDBRANCH   1   5
BRANCH   1  26
ATOM     26  O   UNL     1       8.703  -2.208  24.240  0.00  0.00    -0.284 OA
BRANCH  26  27
ATOM     27  C   UNL     1       8.189  -1.186  25.076  0.00  0.00    +0.206 C 
BRANCH  27  28
ATOM     28  C   UNL     1       9.188  -0.039  25.254  0.00  0.00    +0.178 C 
ATOM     29  C   UNL     1      10.344  -0.046  24.246  0.00  0.00    +0.178 C 
ATOM     30  C   UNL     1       9.929   0.946  23.152  0.00  0.00    +0.195 C 
ATOM     31  C   UNL     1       8.549   1.445  23.611  0.00  0.00    +0.255 C 
ATOM     32  O   UNL     1       8.495   1.205  25.029  0.00  0.00    -0.346 OA
BRANCH  31  33
ATOM     33  N   UNL     1       8.239   2.837  23.290  0.00  0.00    -0.271 N 
ATOM     34  C   UNL     1       7.662   3.081  22.047  0.00  0.00    +0.331 A 
ATOM     35  O   UNL     1       7.536   2.216  21.183  0.00  0.00    -0.246 OA
ATOM     36  N   UNL     1       7.220   4.359  21.835  0.00  0.00    -0.275 N 
ATOM     37  H   UNL     1       6.744   4.535  20.964  0.00  0.00    +0.173 HD
ATOM     38  C   UNL     1       7.194   5.359  22.763  0.00  0.00    +0.254 A 
ATOM     39  O   UNL     1       6.628   6.424  22.577  0.00  0.00    -0.268 OA
ATOM     40  C   UNL     1       7.884   5.070  24.028  0.00  0.00    +0.088 A 
ATOM     41  C   UNL     1       8.353   3.840  24.239  0.00  0.00    +0.098 A 
ENDBRANCH  31  33
BRANCH  30  42
ATOM     42  O   UNL     1       9.856   0.286  21.887  0.00  0.00    -0.385 OA
ATOM     43  H   UNL     1       9.122   0.710  21.388  0.00  0.00    +0.210 HD
ENDBRANCH  30  42
BRANCH  29  44
ATOM     44  O   UNL     1      11.546   0.426  24.878  0.00  0.00    -0.386 OA
ATOM     45  H   UNL     1      11.553   0.123  25.803  0.00  0.00    +0.210 HD
ENDBRANCH  29  44
ENDBRANCH  27  28
ENDBRANCH  26  27
ENDBRANCH   1  26
TORSDOF 17
ENDMDL
MODEL 5
REMARK VINA RESULT:      -7.3      3.171      5.903
REMARK  Name = 
REMARK  17 active torsions:
REMARK  status: ('A' for Active; 'I' for Inactive)
REMARK    1  A    between atoms: O_1  and  C_2
REMARK    2  A    between atoms: C_2  and  C_3
REMARK    3  A    between atoms: C_6  and  O_8
REMARK    4  A    between atoms: O_8  and  P_9
REMARK    5  A    between atoms: P_9  and  O_10
REMARK    6  A    between atoms: P_9  and  O_12
REMARK    7  A    between atoms: O_12  and  P_13
REMARK    8  A    between atoms: P_13  and  O_14
REMARK    9  A    between atoms: P_13  and  O_16
REMARK   10  A    between atoms: O_16  and  C_17
REMARK   11  A    between atoms: C_17  and  C_18
REMARK   12  A    between atoms: C_21  and  N_29
REMARK   13  A    between atoms: C_23  and  O_25
REMARK   14  A    between atoms: C_26  and  O_28
REMARK   15  A    between atoms: C_37  and  O_39
REMARK   16  A    between atoms: C_40  and  O_42
REMARK   17  A    between atoms: C_43  and  O_45
REMARK                            x       y       z     vdW  Elec       q    Type
REMARK                         _______ _______ _______ _____ _____    ______ ____
ROOT
ATOM      1  P   UNL     1       7.957  -5.290  25.328  0.00  0.00    +0.483 P 
ATOM      2  O   UNL     1       8.079  -3.835  25.772  0.00  0.00    -0.227 OA
ENDROOT
BRANCH   1   3
ATOM      3  O   UNL     1       9.449  -5.918  25.570  0.00  0.00    -0.302 OA
ATOM      4  H   UNL     1       9.730  -5.587  26.452  0.00  0.00    +0.222 HD
ENDBRANCH   1   3
BRANCH   1   5
ATOM      5  O   UNL     1       8.408  -4.841  23.720  0.00  0.00    -0.186 OA
BRANCH   5   6
ATOM      6  P   UNL     1       7.290  -5.529  22.594  0.00  0.00    +0.486 P 
ATOM      7  O   UNL     1       6.231  -5.721  23.675  0.00  0.00    -0.227 OA
BRANCH   6   8
ATOM      8  O   UNL     1       6.173  -6.220  21.467  0.00  0.00    -0.302 OA
ATOM      9  H   UNL     1       6.144  -5.565  20.735  0.00  0.00    +0.222 HD
ENDBRANCH   6   8
BRANCH   6  10
ATOM     10  O   UNL     1       7.125  -4.062  21.897  0.00  0.00    -0.254 OA
BRANCH  10  15
ATOM     11  C   UNL     1       8.730  -0.904  22.585  0.00  0.00    +0.178 C 
ATOM     12  C   UNL     1       7.598  -0.014  23.115  0.00  0.00    +0.177 C 
ATOM     13  C   UNL     1       6.628  -0.868  23.945  0.00  0.00    +0.179 C 
ATOM     14  C   UNL     1       6.173  -2.135  23.202  0.00  0.00    +0.202 C 
ATOM     15  C   UNL     1       7.404  -2.861  22.604  0.00  0.00    +0.293 C 
ATOM     16  O   UNL     1       8.193  -1.986  21.805  0.00  0.00    -0.340 OA
BRANCH  12  17
ATOM     17  O   UNL     1       8.152   1.052  23.897  0.00  0.00    -0.386 OA
ATOM     18  H   UNL     1       7.454   1.704  24.075  0.00  0.00    +0.210 HD
ENDBRANCH  12  17
BRANCH  13  19
ATOM     19  O   UNL     1       5.478  -0.103  24.333  0.00  0.00    -0.386 OA
ATOM     20  H   UNL     1       5.767   0.443  25.091  0.00  0.00    +0.210 HD
ENDBRANCH  13  19
BRANCH  14  21
ATOM     21  O   UNL     1       5.461  -2.915  24.181  0.00  0.00    -0.384 OA
ATOM     22  H   UNL     1       4.657  -2.432  24.458  0.00  0.00    +0.210 HD
ENDBRANCH  14  21
BRANCH  11  23
ATOM     23  C   UNL     1       9.721  -0.114  21.729  0.00  0.00    +0.190 C 
BRANCH  23  24
ATOM     24  O   UNL     1       9.014   0.935  21.061  0.00  0.00    -0.392 OA
ATOM     25  H   UNL     1       8.069   0.784  21.225  0.00  0.00    +0.210 HD
ENDBRANCH  23  24
ENDBRANCH  11  23
ENDBRANCH  10  15
ENDBRANCH   6  10
ENDBRANCH   5   6
ENDBRANCH   1   5
BRANCH   1  26
ATOM     26  O   UNL     1       7.505  -5.739  26.937  0.00  0.00    -0.284 OA
BRANCH  26  27
ATOM     27  C   UNL     1       6.158  -5.405  27.218  0.00  0.00    +0.206 C 
BRANCH  27  28
ATOM     28  C   UNL     1       5.295  -6.652  27.433  0.00  0.00    +0.178 C 
ATOM     29  C   UNL     1       4.077  -6.429  28.336  0.00  0.00    +0.178 C 
ATOM     30  C   UNL     1       2.901  -6.204  27.377  0.00  0.00    +0.195 C 
ATOM     31  C   UNL     1       3.540  -6.306  25.981  0.00  0.00    +0.255 C 
ATOM     32  O   UNL     1       4.756  -7.055  26.158  0.00  0.00    -0.346 OA
BRANCH  31  33
ATOM     33  N   UNL     1       2.697  -6.888  24.938  0.00  0.00    -0.271 N 
ATOM     34  C   UNL     1       2.704  -6.254  23.699  0.00  0.00    +0.331 A 
ATOM     35  O   UNL     1       3.267  -5.180  23.496  0.00  0.00    -0.246 OA
ATOM     36  N   UNL     1       2.051  -6.910  22.690  0.00  0.00    -0.275 N 
ATOM     37  H   UNL     1       2.101  -6.495  21.773  0.00  0.00    +0.173 HD
ATOM     38  C   UNL     1       1.506  -8.158  22.772  0.00  0.00    +0.254 A 
ATOM     39  O   UNL     1       1.092  -8.768  21.798  0.00  0.00    -0.268 OA
ATOM     40  C   UNL     1       1.457  -8.744  24.118  0.00  0.00    +0.088 A 
ATOM     41  C   UNL     1       2.059  -8.104  25.121  0.00  0.00    +0.098 A 
ENDBRANCH  31  33
BRANCH  30  42
ATOM     42  O   UNL     1       2.320  -4.918  27.597  0.00  0.00    -0.385 OA
ATOM     43  H   UNL     1       1.345  -5.031  27.528  0.00  0.00    +0.210 HD
ENDBRANCH  30  42
BRANCH  29  44
ATOM     44  O   UNL     1       3.826  -7.609  29.119  0.00  0.00    -0.386 OA
ATOM     45  H   UNL     1       3.917  -7.384  30.062  0.00  0.00    +0.210 HD
ENDBRANCH  29  44
ENDBRANCH  27  28
ENDBRANCH  26  27
ENDBRANCH   1  26
TORSDOF 17
ENDMDL
MODEL 6
REMARK VINA RESULT:      -7.2      2.980      8.262
REMARK  Name = 
REMARK  17 active torsions:
REMARK  status: ('A' for Active; 'I' for Inactive)
REMARK    1  A    between atoms: O_1  and  C_2
REMARK    2  A    between atoms: C_2  and  C_3
REMARK    3  A    between atoms: C_6  and  O_8
REMARK    4  A    between atoms: O_8  and  P_9
REMARK    5  A    between atoms: P_9  and  O_10
REMARK    6  A    between atoms: P_9  and  O_12
REMARK    7  A    between atoms: O_12  and  P_13
REMARK    8  A    between atoms: P_13  and  O_14
REMARK    9  A    between atoms: P_13  and  O_16
REMARK   10  A    between atoms: O_16  and  C_17
REMARK   11  A    between atoms: C_17  and  C_18
REMARK   12  A    between atoms: C_21  and  N_29
REMARK   13  A    between atoms: C_23  and  O_25
REMARK   14  A    between atoms: C_26  and  O_28
REMARK   15  A    between atoms: C_37  and  O_39
REMARK   16  A    between atoms: C_40  and  O_42
REMARK   17  A    between atoms: C_43  and  O_45
REMARK                            x       y       z     vdW  Elec       q    Type
REMARK                         _______ _______ _______ _____ _____    ______ ____
ROOT
ATOM      1  P   UNL     1       4.574   2.418  25.343  0.00  0.00    +0.483 P 
ATOM      2  O   UNL     1       3.061   2.242  25.427  0.00  0.00    -0.227 OA
ENDROOT
BRANCH   1   3
ATOM      3  O   UNL     1       5.061   1.269  24.284  0.00  0.00    -0.302 OA
ATOM      4  H   UNL     1       4.484   0.493  24.458  0.00  0.00    +0.222 HD
ENDBRANCH   1   3
BRANCH   1   5
ATOM      5  O   UNL     1       4.781   1.302  26.648  0.00  0.00    -0.186 OA
BRANCH   5   6
ATOM      6  P   UNL     1       6.411   0.725  26.660  0.00  0.00    +0.486 P 
ATOM      7  O   UNL     1       6.454   0.710  28.185  0.00  0.00    -0.227 OA
BRANCH   6   8
ATOM      8  O   UNL     1       8.043   0.149  26.673  0.00  0.00    -0.302 OA
ATOM      9  H   UNL     1       8.307   0.173  25.727  0.00  0.00    +0.222 HD
ENDBRANCH   6   8
BRANCH   6  10
ATOM     10  O   UNL     1       5.881  -0.713  26.098  0.00  0.00    -0.254 OA
BRANCH  10  15
ATOM     11  C   UNL     1       8.018  -3.601  25.761  0.00  0.00    +0.178 C 
ATOM     12  C   UNL     1       7.695  -4.148  24.365  0.00  0.00    +0.177 C 
ATOM     13  C   UNL     1       7.408  -2.975  23.415  0.00  0.00    +0.179 C 
ATOM     14  C   UNL     1       6.375  -1.991  23.990  0.00  0.00    +0.202 C 
ATOM     15  C   UNL     1       6.752  -1.630  25.449  0.00  0.00    +0.293 C 
ATOM     16  O   UNL     1       6.932  -2.794  26.247  0.00  0.00    -0.340 OA
BRANCH  12  17
ATOM     17  O   UNL     1       8.793  -4.940  23.895  0.00  0.00    -0.386 OA
ATOM     18  H   UNL     1       9.621  -4.457  24.061  0.00  0.00    +0.210 HD
ENDBRANCH  12  17
BRANCH  13  19
ATOM     19  O   UNL     1       6.957  -3.451  22.140  0.00  0.00    -0.386 OA
ATOM     20  H   UNL     1       6.834  -2.653  21.588  0.00  0.00    +0.210 HD
ENDBRANCH  13  19
BRANCH  14  21
ATOM     21  O   UNL     1       6.386  -0.863  23.094  0.00  0.00    -0.384 OA
ATOM     22  H   UNL     1       5.708  -0.993  22.402  0.00  0.00    +0.210 HD
ENDBRANCH  14  21
BRANCH  11  23
ATOM     23  C   UNL     1       8.294  -4.724  26.762  0.00  0.00    +0.190 C 
BRANCH  23  24
ATOM     24  O   UNL     1       9.703  -4.974  26.792  0.00  0.00    -0.392 OA
ATOM     25  H   UNL     1      10.021  -4.884  25.880  0.00  0.00    +0.210 HD
ENDBRANCH  23  24
ENDBRANCH  11  23
ENDBRANCH  10  15
ENDBRANCH   6  10
ENDBRANCH   5   6
ENDBRANCH   1   5
BRANCH   1  26
ATOM     26  O   UNL     1       4.368   3.535  24.038  0.00  0.00    -0.284 OA
BRANCH  26  27
ATOM     27  C   UNL     1       5.378   4.528  24.029  0.00  0.00    +0.206 C 
BRANCH  27  28
ATOM     28  C   UNL     1       6.184   4.510  22.726  0.00  0.00    +0.178 C 
ATOM     29  C   UNL     1       7.425   5.410  22.739  0.00  0.00    +0.178 C 
ATOM     30  C   UNL     1       8.595   4.476  23.071  0.00  0.00    +0.195 C 
ATOM     31  C   UNL     1       7.931   3.098  23.236  0.00  0.00    +0.255 C 
ATOM     32  O   UNL     1       6.684   3.174  22.522  0.00  0.00    -0.346 OA
BRANCH  31  33
ATOM     33  N   UNL     1       8.730   1.953  22.802  0.00  0.00    -0.271 N 
ATOM     34  C   UNL     1       9.516   1.333  23.769  0.00  0.00    +0.331 A 
ATOM     35  O   UNL     1       9.664   1.781  24.904  0.00  0.00    -0.246 OA
ATOM     36  N   UNL     1      10.117   0.164  23.389  0.00  0.00    -0.275 N 
ATOM     37  H   UNL     1      10.638  -0.330  24.097  0.00  0.00    +0.173 HD
ATOM     38  C   UNL     1       9.921  -0.487  22.206  0.00  0.00    +0.254 A 
ATOM     39  O   UNL     1      10.342  -1.612  21.988  0.00  0.00    -0.268 OA
ATOM     40  C   UNL     1       9.148   0.250  21.196  0.00  0.00    +0.088 A 
ATOM     41  C   UNL     1       8.582   1.408  21.537  0.00  0.00    +0.098 A 
ENDBRANCH  31  33
BRANCH  30  42
ATOM     42  O   UNL     1       9.240   4.896  24.274  0.00  0.00    -0.385 OA
ATOM     43  H   UNL     1       9.633   5.779  24.092  0.00  0.00    +0.210 HD
ENDBRANCH  30  42
BRANCH  29  44
ATOM     44  O   UNL     1       7.630   5.978  21.434  0.00  0.00    -0.386 OA
ATOM     45  H   UNL     1       6.868   6.542  21.215  0.00  0.00    +0.210 HD
ENDBRANCH  29  44
ENDBRANCH  27  28
ENDBRANCH  26  27
ENDBRANCH   1  26
TORSDOF 17
ENDMDL
MODEL 7
REMARK VINA RESULT:      -7.2      2.894      8.695
REMARK  Name = 
REMARK  17 active torsions:
REMARK  status: ('A' for Active; 'I' for Inactive)
REMARK    1  A    between atoms: O_1  and  C_2
REMARK    2  A    between atoms: C_2  and  C_3
REMARK    3  A    between atoms: C_6  and  O_8
REMARK    4  A    between atoms: O_8  and  P_9
REMARK    5  A    between atoms: P_9  and  O_10
REMARK    6  A    between atoms: P_9  and  O_12
REMARK    7  A    between atoms: O_12  and  P_13
REMARK    8  A    between atoms: P_13  and  O_14
REMARK    9  A    between atoms: P_13  and  O_16
REMARK   10  A    between atoms: O_16  and  C_17
REMARK   11  A    between atoms: C_17  and  C_18
REMARK   12  A    between atoms: C_21  and  N_29
REMARK   13  A    between atoms: C_23  and  O_25
REMARK   14  A    between atoms: C_26  and  O_28
REMARK   15  A    between atoms: C_37  and  O_39
REMARK   16  A    between atoms: C_40  and  O_42
REMARK   17  A    between atoms: C_43  and  O_45
REMARK                            x       y       z     vdW  Elec       q    Type
REMARK                         _______ _______ _______ _____ _____    ______ ____
ROOT
ATOM      1  P   UNL     1       9.389  -1.786  23.165  0.00  0.00    +0.483 P 
ATOM      2  O   UNL     1      10.429  -2.814  23.599  0.00  0.00    -0.227 OA
ENDROOT
BRANCH   1   3
ATOM      3  O   UNL     1       8.603  -1.392  24.546  0.00  0.00    -0.302 OA
ATOM      4  H   UNL     1       7.680  -1.194  24.273  0.00  0.00    +0.222 HD
ENDBRANCH   1   3
BRANCH   1   5
ATOM      5  O   UNL     1       8.248  -3.055  22.880  0.00  0.00    -0.186 OA
BRANCH   5   6
ATOM      6  P   UNL     1       6.691  -2.570  23.454  0.00  0.00    +0.486 P 
ATOM      7  O   UNL     1       6.524  -1.561  22.321  0.00  0.00    -0.227 OA
BRANCH   6   8
ATOM      8  O   UNL     1       5.132  -2.084  24.029  0.00  0.00    -0.302 OA
ATOM      9  H   UNL     1       4.745  -2.914  24.385  0.00  0.00    +0.222 HD
ENDBRANCH   6   8
BRANCH   6  10
ATOM     10  O   UNL     1       6.099  -4.024  23.004  0.00  0.00    -0.254 OA
BRANCH  10  15
ATOM     11  C   UNL     1       6.234  -5.709  26.192  0.00  0.00    +0.178 C 
ATOM     12  C   UNL     1       4.869  -6.400  26.310  0.00  0.00    +0.177 C 
ATOM     13  C   UNL     1       4.421  -6.879  24.922  0.00  0.00    +0.179 C 
ATOM     14  C   UNL     1       4.505  -5.770  23.860  0.00  0.00    +0.202 C 
ATOM     15  C   UNL     1       5.884  -5.068  23.944  0.00  0.00    +0.293 C 
ATOM     16  O   UNL     1       6.162  -4.613  25.264  0.00  0.00    -0.340 OA
BRANCH  12  17
ATOM     17  O   UNL     1       4.965  -7.494  27.232  0.00  0.00    -0.386 OA
ATOM     18  H   UNL     1       4.150  -8.022  27.175  0.00  0.00    +0.210 HD
ENDBRANCH  12  17
BRANCH  13  19
ATOM     19  O   UNL     1       3.084  -7.397  24.967  0.00  0.00    -0.386 OA
ATOM     20  H   UNL     1       3.094  -8.204  24.415  0.00  0.00    +0.210 HD
ENDBRANCH  13  19
BRANCH  14  21
ATOM     21  O   UNL     1       4.267  -6.429  22.602  0.00  0.00    -0.384 OA
ATOM     22  H   UNL     1       5.075  -6.908  22.329  0.00  0.00    +0.210 HD
ENDBRANCH  14  21
BRANCH  11  23
ATOM     23  C   UNL     1       6.727  -5.188  27.543  0.00  0.00    +0.190 C 
BRANCH  23  24
ATOM     24  O   UNL     1       7.425  -6.244  28.212  0.00  0.00    -0.392 OA
ATOM     25  H   UNL     1       6.749  -6.828  28.591  0.00  0.00    +0.210 HD
ENDBRANCH  23  24
ENDBRANCH  11  23
ENDBRANCH  10  15
ENDBRANCH   6  10
ENDBRANCH   5   6
ENDBRANCH   1   5
BRANCH   1  26
ATOM     26  O   UNL     1      10.529  -0.517  23.450  0.00  0.00    -0.284 OA
BRANCH  26  27
ATOM     27  C   UNL     1      10.197   0.242  24.599  0.00  0.00    +0.206 C 
BRANCH  27  28
ATOM     28  C   UNL     1      10.019   1.728  24.269  0.00  0.00    +0.178 C 
ATOM     29  C   UNL     1      10.307   2.089  22.807  0.00  0.00    +0.178 C 
ATOM     30  C   UNL     1       8.933   2.129  22.126  0.00  0.00    +0.195 C 
ATOM     31  C   UNL     1       7.951   1.774  23.255  0.00  0.00    +0.255 C 
ATOM     32  O   UNL     1       8.637   2.077  24.483  0.00  0.00    -0.346 OA
BRANCH  31  33
ATOM     33  N   UNL     1       6.647   2.433  23.192  0.00  0.00    -0.271 N 
ATOM     34  C   UNL     1       5.614   1.851  23.922  0.00  0.00    +0.331 A 
ATOM     35  O   UNL     1       5.719   0.765  24.488  0.00  0.00    -0.246 OA
ATOM     36  N   UNL     1       4.454   2.573  23.993  0.00  0.00    -0.275 N 
ATOM     37  H   UNL     1       3.718   2.195  24.570  0.00  0.00    +0.173 HD
ATOM     38  C   UNL     1       4.270   3.838  23.514  0.00  0.00    +0.254 A 
ATOM     39  O   UNL     1       3.276   4.503  23.757  0.00  0.00    -0.268 OA
ATOM     40  C   UNL     1       5.363   4.369  22.687  0.00  0.00    +0.088 A 
ATOM     41  C   UNL     1       6.489   3.664  22.578  0.00  0.00    +0.098 A 
ENDBRANCH  31  33
BRANCH  30  42
ATOM     42  O   UNL     1       8.878   1.176  21.063  0.00  0.00    -0.385 OA
ATOM     43  H   UNL     1       8.392   0.394  21.408  0.00  0.00    +0.210 HD
ENDBRANCH  30  42
BRANCH  29  44
ATOM     44  O   UNL     1      10.906   3.393  22.735  0.00  0.00    -0.386 OA
ATOM     45  H   UNL     1      10.448   3.983  23.358  0.00  0.00    +0.210 HD
ENDBRANCH  29  44
ENDBRANCH  27  28
ENDBRANCH  26  27
ENDBRANCH   1  26
TORSDOF 17
ENDMDL
MODEL 8
REMARK VINA RESULT:      -7.2      1.038      2.102
REMARK  Name = 
REMARK  17 active torsions:
REMARK  status: ('A' for Active; 'I' for Inactive)
REMARK    1  A    between atoms: O_1  and  C_2
REMARK    2  A    between atoms: C_2  and  C_3
REMARK    3  A    between atoms: C_6  and  O_8
REMARK    4  A    between atoms: O_8  and  P_9
REMARK    5  A    between atoms: P_9  and  O_10
REMARK    6  A    between atoms: P_9  and  O_12
REMARK    7  A    between atoms: O_12  and  P_13
REMARK    8  A    between atoms: P_13  and  O_14
REMARK    9  A    between atoms: P_13  and  O_16
REMARK   10  A    between atoms: O_16  and  C_17
REMARK   11  A    between atoms: C_17  and  C_18
REMARK   12  A    between atoms: C_21  and  N_29
REMARK   13  A    between atoms: C_23  and  O_25
REMARK   14  A    between atoms: C_26  and  O_28
REMARK   15  A    between atoms: C_37  and  O_39
REMARK   16  A    between atoms: C_40  and  O_42
REMARK   17  A    between atoms: C_43  and  O_45
REMARK                            x       y       z     vdW  Elec       q    Type
REMARK                         _______ _______ _______ _____ _____    ______ ____
ROOT
ATOM      1  P   UNL     1       8.868  -1.327  22.637  0.00  0.00    +0.483 P 
ATOM      2  O   UNL     1       9.299  -2.385  23.648  0.00  0.00    -0.227 OA
ENDROOT
BRANCH   1   3
ATOM      3  O   UNL     1       9.914  -1.504  21.390  0.00  0.00    -0.302 OA
ATOM      4  H   UNL     1      10.757  -1.800  21.798  0.00  0.00    +0.222 HD
ENDBRANCH   1   3
BRANCH   1   5
ATOM      5  O   UNL     1       9.939  -0.184  23.372  0.00  0.00    -0.186 OA
BRANCH   5   6
ATOM      6  P   UNL     1       9.121   0.628  24.660  0.00  0.00    +0.486 P 
ATOM      7  O   UNL     1      10.031  -0.000  25.710  0.00  0.00    -0.227 OA
BRANCH   6   8
ATOM      8  O   UNL     1       8.301   1.440  25.950  0.00  0.00    -0.302 OA
ATOM      9  H   UNL     1       8.237   2.370  25.637  0.00  0.00    +0.222 HD
ENDBRANCH   6   8
BRANCH   6  10
ATOM     10  O   UNL     1       9.753   2.040  24.139  0.00  0.00    -0.254 OA
BRANCH  10  15
ATOM     11  C   UNL     1       6.758   3.546  22.806  0.00  0.00    +0.178 C 
ATOM     12  C   UNL     1       6.923   5.042  23.105  0.00  0.00    +0.177 C 
ATOM     13  C   UNL     1       8.404   5.425  22.970  0.00  0.00    +0.179 C 
ATOM     14  C   UNL     1       9.330   4.491  23.766  0.00  0.00    +0.202 C 
ATOM     15  C   UNL     1       8.962   3.015  23.472  0.00  0.00    +0.293 C 
ATOM     16  O   UNL     1       7.578   2.765  23.691  0.00  0.00    -0.340 OA
BRANCH  12  17
ATOM     17  O   UNL     1       6.106   5.803  22.206  0.00  0.00    -0.386 OA
ATOM     18  H   UNL     1       6.683   6.339  21.636  0.00  0.00    +0.210 HD
ENDBRANCH  12  17
BRANCH  13  19
ATOM     19  O   UNL     1       8.621   6.781  23.386  0.00  0.00    -0.386 OA
ATOM     20  H   UNL     1       8.662   7.307  22.563  0.00  0.00    +0.210 HD
ENDBRANCH  13  19
BRANCH  14  21
ATOM     21  O   UNL     1      10.666   4.845  23.363  0.00  0.00    -0.384 OA
ATOM     22  H   UNL     1      11.039   4.129  22.812  0.00  0.00    +0.210 HD
ENDBRANCH  14  21
BRANCH  11  23
ATOM     23  C   UNL     1       5.303   3.096  22.945  0.00  0.00    +0.190 C 
BRANCH  23  24
ATOM     24  O   UNL     1       4.555   3.620  21.842  0.00  0.00    -0.392 OA
ATOM     25  H   UNL     1       3.757   4.028  22.215  0.00  0.00    +0.210 HD
ENDBRANCH  23  24
ENDBRANCH  11  23
ENDBRANCH  10  15
ENDBRANCH   6  10
ENDBRANCH   5   6
ENDBRANCH   1   5
BRANCH   1  26
ATOM     26  O   UNL     1       7.797  -2.469  21.903  0.00  0.00    -0.284 OA
BRANCH  26  27
ATOM     27  C   UNL     1       6.649  -2.702  22.698  0.00  0.00    +0.206 C 
BRANCH  27  28
ATOM     28  C   UNL     1       6.227  -4.174  22.674  0.00  0.00    +0.178 C 
ATOM     29  C   UNL     1       7.379  -5.157  22.435  0.00  0.00    +0.178 C 
ATOM     30  C   UNL     1       7.778  -5.654  23.831  0.00  0.00    +0.195 C 
ATOM     31  C   UNL     1       6.824  -4.904  24.776  0.00  0.00    +0.255 C 
ATOM     32  O   UNL     1       5.697  -4.515  23.970  0.00  0.00    -0.346 OA
BRANCH  31  33
ATOM     33  N   UNL     1       6.405  -5.639  25.968  0.00  0.00    -0.271 N 
ATOM     34  C   UNL     1       7.198  -5.500  27.103  0.00  0.00    +0.331 A 
ATOM     35  O   UNL     1       8.279  -4.913  27.100  0.00  0.00    -0.246 OA
ATOM     36  N   UNL     1       6.698  -6.050  28.252  0.00  0.00    -0.275 N 
ATOM     37  H   UNL     1       7.231  -5.904  29.095  0.00  0.00    +0.173 HD
ATOM     38  C   UNL     1       5.461  -6.609  28.396  0.00  0.00    +0.254 A 
ATOM     39  O   UNL     1       4.997  -6.924  29.480  0.00  0.00    -0.268 OA
ATOM     40  C   UNL     1       4.701  -6.800  27.153  0.00  0.00    +0.088 A 
ATOM     41  C   UNL     1       5.188  -6.301  26.017  0.00  0.00    +0.098 A 
ENDBRANCH  31  33
BRANCH  30  42
ATOM     42  O   UNL     1       9.144  -5.333  24.099  0.00  0.00    -0.385 OA
ATOM     43  H   UNL     1       9.183  -5.013  25.028  0.00  0.00    +0.210 HD
ENDBRANCH  30  42
BRANCH  29  44
ATOM     44  O   UNL     1       6.916  -6.272  21.654  0.00  0.00    -0.386 OA
ATOM     45  H   UNL     1       7.672  -6.853  21.460  0.00  0.00    +0.210 HD
ENDBRANCH  29  44
ENDBRANCH  27  28
ENDBRANCH  26  27
ENDBRANCH   1  26
TORSDOF 17
ENDMDL
MODEL 9
REMARK VINA RESULT:      -7.1      3.605      9.337
REMARK  Name = 
REMARK  17 active torsions:
REMARK  status: ('A' for Active; 'I' for Inactive)
REMARK    1  A    between atoms: O_1  and  C_2
REMARK    2  A    between atoms: C_2  and  C_3
REMARK    3  A    between atoms: C_6  and  O_8
REMARK    4  A    between atoms: O_8  and  P_9
REMARK    5  A    between atoms: P_9  and  O_10
REMARK    6  A    between atoms: P_9  and  O_12
REMARK    7  A    between atoms: O_12  and  P_13
REMARK    8  A    between atoms: P_13  and  O_14
REMARK    9  A    between atoms: P_13  and  O_16
REMARK   10  A    between atoms: O_16  and  C_17
REMARK   11  A    between atoms: C_17  and  C_18
REMARK   12  A    between atoms: C_21  and  N_29
REMARK   13  A    between atoms: C_23  and  O_25
REMARK   14  A    between atoms: C_26  and  O_28
REMARK   15  A    between atoms: C_37  and  O_39
REMARK   16  A    between atoms: C_40  and  O_42
REMARK   17  A    between atoms: C_43  and  O_45
REMARK                            x       y       z     vdW  Elec       q    Type
REMARK                         _______ _______ _______ _____ _____    ______ ____
ROOT
ATOM      1  P   UNL     1       6.022  -6.594  28.683  0.00  0.00    +0.483 P 
ATOM      2  O   UNL     1       6.825  -7.685  29.386  0.00  0.00    -0.227 OA
ENDROOT
BRANCH   1   3
ATOM      3  O   UNL     1       6.030  -5.339  29.734  0.00  0.00    -0.302 OA
ATOM      4  H   UNL     1       5.845  -5.736  30.614  0.00  0.00    +0.222 HD
ENDBRANCH   1   3
BRANCH   1   5
ATOM      5  O   UNL     1       4.570  -7.191  29.408  0.00  0.00    -0.186 OA
BRANCH   5   6
ATOM      6  P   UNL     1       3.204  -6.399  28.701  0.00  0.00    +0.486 P 
ATOM      7  O   UNL     1       3.284  -5.248  29.698  0.00  0.00    -0.227 OA
BRANCH   6   8
ATOM      8  O   UNL     1       1.838  -5.607  27.994  0.00  0.00    -0.302 OA
ATOM      9  H   UNL     1       1.173  -6.325  27.902  0.00  0.00    +0.222 HD
ENDBRANCH   6   8
BRANCH   6  10
ATOM     10  O   UNL     1       4.110  -6.068  27.384  0.00  0.00    -0.254 OA
BRANCH  10  15
ATOM     11  C   UNL     1       2.511  -8.219  24.968  0.00  0.00    +0.178 C 
ATOM     12  C   UNL     1       2.119  -7.275  23.824  0.00  0.00    +0.177 C 
ATOM     13  C   UNL     1       3.196  -6.191  23.670  0.00  0.00    +0.179 C 
ATOM     14  C   UNL     1       3.535  -5.502  25.002  0.00  0.00    +0.202 C 
ATOM     15  C   UNL     1       3.774  -6.571  26.098  0.00  0.00    +0.293 C 
ATOM     16  O   UNL     1       2.684  -7.481  26.190  0.00  0.00    -0.340 OA
BRANCH  12  17
ATOM     17  O   UNL     1       1.961  -8.027  22.615  0.00  0.00    -0.386 OA
ATOM     18  H   UNL     1       1.705  -8.937  22.843  0.00  0.00    +0.210 HD
ENDBRANCH  12  17
BRANCH  13  19
ATOM     19  O   UNL     1       2.791  -5.204  22.711  0.00  0.00    -0.386 OA
ATOM     20  H   UNL     1       2.890  -4.341  23.161  0.00  0.00    +0.210 HD
ENDBRANCH  13  19
BRANCH  14  21
ATOM     21  O   UNL     1       4.690  -4.688  24.726  0.00  0.00    -0.384 OA
ATOM     22  H   UNL     1       4.763  -3.988  25.405  0.00  0.00    +0.210 HD
ENDBRANCH  14  21
BRANCH  11  23
ATOM     23  C   UNL     1       1.465  -9.312  25.188  0.00  0.00    +0.190 C 
BRANCH  23  24
ATOM     24  O   UNL     1       2.140 -10.540  25.479  0.00  0.00    -0.392 OA
ATOM     25  H   UNL     1       1.659 -10.957  26.211  0.00  0.00    +0.210 HD
ENDBRANCH  23  24
ENDBRANCH  11  23
ENDBRANCH  10  15
ENDBRANCH   6  10
ENDBRANCH   5   6
ENDBRANCH   1   5
BRANCH   1  26
ATOM     26  O   UNL     1       7.475  -5.997  27.958  0.00  0.00    -0.284 OA
BRANCH  26  27
ATOM     27  C   UNL     1       7.239  -4.831  27.189  0.00  0.00    +0.206 C 
BRANCH  27  28
ATOM     28  C   UNL     1       8.511  -4.344  26.488  0.00  0.00    +0.178 C 
ATOM     29  C   UNL     1       8.875  -5.129  25.223  0.00  0.00    +0.178 C 
ATOM     30  C   UNL     1       8.328  -4.292  24.059  0.00  0.00    +0.195 C 
ATOM     31  C   UNL     1       7.676  -3.083  24.751  0.00  0.00    +0.255 C 
ATOM     32  O   UNL     1       8.294  -2.989  26.047  0.00  0.00    -0.346 OA
BRANCH  31  33
ATOM     33  N   UNL     1       7.757  -1.817  24.024  0.00  0.00    -0.271 N 
ATOM     34  C   UNL     1       6.696  -1.510  23.177  0.00  0.00    +0.331 A 
ATOM     35  O   UNL     1       5.790  -2.300  22.920  0.00  0.00    -0.246 OA
ATOM     36  N   UNL     1       6.705  -0.249  22.643  0.00  0.00    -0.275 N 
ATOM     37  H   UNL     1       5.911   0.009  22.078  0.00  0.00    +0.173 HD
ATOM     38  C   UNL     1       7.585   0.745  22.957  0.00  0.00    +0.254 A 
ATOM     39  O   UNL     1       7.444   1.900  22.588  0.00  0.00    -0.268 OA
ATOM     40  C   UNL     1       8.726   0.343  23.792  0.00  0.00    +0.088 A 
ATOM     41  C   UNL     1       8.753  -0.892  24.294  0.00  0.00    +0.098 A 
ENDBRANCH  31  33
BRANCH  30  42
ATOM     42  O   UNL     1       7.375  -5.047  23.310  0.00  0.00    -0.385 OA
ATOM     43  H   UNL     1       6.522  -4.991  23.797  0.00  0.00    +0.210 HD
ENDBRANCH  30  42
BRANCH  29  44
ATOM     44  O   UNL     1      10.305  -5.226  25.102  0.00  0.00    -0.386 OA
ATOM     45  H   UNL     1      10.702  -4.396  25.418  0.00  0.00    +0.210 HD
ENDBRANCH  29  44
ENDBRANCH  27  28
ENDBRANCH  26  27
ENDBRANCH   1  26
TORSDOF 17
ENDMDL
