MODEL 1
REMARK VINA RESULT:      -9.0      0.000      0.000
REMARK  Name = 
REMARK  5 active torsions:
REMARK  status: ('A' for Active; 'I' for Inactive)
REMARK    1  A    between atoms: O_1  and  C_2
REMARK    2  A    between atoms: N_5  and  S_8
REMARK    3  A    between atoms: S_8  and  C_11
REMARK    4  A    between atoms: C_29  and  C_30
REMARK    5  A    between atoms: C_29  and  O_31
REMARK                            x       y       z     vdW  Elec       q    Type
REMARK                         _______ _______ _______ _____ _____    ______ ____
ROOT
ATOM      1  C   UNL     1       7.567  -3.334  24.504  0.00  0.00    +0.106 A 
ATOM      2  C   UNL     1       8.415  -3.084  25.591  0.00  0.00    +0.030 A 
ATOM      3  C   UNL     1       8.342  -3.898  26.734  0.00  0.00    +0.026 A 
ATOM      4  C   UNL     1       7.371  -4.889  26.767  0.00  0.00    +0.042 A 
ATOM      5  N   UNL     1       7.073  -5.755  27.820  0.00  0.00    -0.281 N 
ATOM      6  H   UNL     1       7.547  -5.783  28.711  0.00  0.00    +0.155 HD
ATOM      7  C   UNL     1       5.984  -6.567  27.520  0.00  0.00    +0.250 C 
ATOM      8  C   UNL     1       5.564  -6.166  26.129  0.00  0.00    +0.066 C 
ATOM      9  C   UNL     1       4.475  -6.665  25.507  0.00  0.00    +0.057 C 
ATOM     10  C   UNL     1       3.961  -6.242  24.103  0.00  0.00    +0.128 C 
ATOM     11  C   UNL     1       3.404  -4.814  24.039  0.00  0.00    +0.053 C 
ATOM     12  C   UNL     1       2.790  -7.176  23.893  0.00  0.00    +0.010 A 
ATOM     13  C   UNL     1       1.949  -7.268  22.793  0.00  0.00    +0.008 A 
ATOM     14  C   UNL     1       0.831  -8.085  22.906  0.00  0.00    +0.000 A 
ATOM     15  C   UNL     1       0.596  -8.802  24.091  0.00  0.00    +0.002 A 
ATOM     16  C   UNL     1       1.483  -8.729  25.178  0.00  0.00    +0.023 A 
ATOM     17  C   UNL     1       2.583  -7.905  25.071  0.00  0.00    +0.038 A 
ATOM     18  N   UNL     1       3.597  -7.640  25.987  0.00  0.00    -0.314 N 
ATOM     19  H   UNL     1       3.647  -7.986  26.938  0.00  0.00    +0.152 HD
ATOM     20  O   UNL     1       5.470  -7.405  28.236  0.00  0.00    -0.270 OA
ATOM     21  C   UNL     1       6.509  -5.126  25.697  0.00  0.00    +0.012 A 
ATOM     22  C   UNL     1       6.645  -4.383  24.544  0.00  0.00    +0.039 A 
ENDROOT
BRANCH   1  23
ATOM     23  S   UNL     1       7.468  -2.229  23.106  0.00  0.00    +0.061 S 
ATOM     24  O   UNL     1       7.831  -2.990  21.932  0.00  0.00    -0.153 OA
ATOM     25  O   UNL     1       6.184  -1.560  23.170  0.00  0.00    -0.153 OA
BRANCH  23  29
ATOM     26  C   UNL     1       8.875   1.082  21.404  0.00  0.00    +0.117 C 
ATOM     27  C   UNL     1       7.772   1.071  22.463  0.00  0.00    +0.048 C 
ATOM     28  C   UNL     1       8.170   0.298  23.721  0.00  0.00    +0.112 C 
ATOM     29  N   UNL     1       8.677  -1.068  23.394  0.00  0.00    -0.176 NA
ATOM     30  C   UNL     1       9.839  -0.977  22.476  0.00  0.00    +0.112 C 
ATOM     31  C   UNL     1       9.476  -0.298  21.164  0.00  0.00    +0.048 C 
BRANCH  26  32
ATOM     32  O   UNL     1       9.906   1.976  21.824  0.00  0.00    -0.392 OA
ATOM     33  H   UNL     1       9.558   2.881  21.728  0.00  0.00    +0.210 HD
ENDBRANCH  26  32
ENDBRANCH  23  29
ENDBRANCH   1  23
BRANCH  10  34
ATOM     34  O   UNL     1       4.937  -6.523  23.108  0.00  0.00    -0.378 OA
ATOM     35  H   UNL     1       4.428  -6.823  22.332  0.00  0.00    +0.211 HD
ENDBRANCH  10  34
TORSDOF 4
ENDMDL
MODEL 2
REMARK VINA RESULT:      -8.9      2.884      7.953
REMARK  Name = 
REMARK  5 active torsions:
REMARK  status: ('A' for Active; 'I' for Inactive)
REMARK    1  A    between atoms: O_1  and  C_2
REMARK    2  A    between atoms: N_5  and  S_8
REMARK    3  A    between atoms: S_8  and  C_11
REMARK    4  A    between atoms: C_29  and  C_30
REMARK    5  A    between atoms: C_29  and  O_31
REMARK                            x       y       z     vdW  Elec       q    Type
REMARK                         _______ _______ _______ _____ _____    ______ ____
ROOT
ATOM      1  C   UNL     1       5.341  -6.308  26.349  0.00  0.00    +0.106 A 
ATOM      2  C   UNL     1       4.375  -7.144  25.774  0.00  0.00    +0.030 A 
ATOM      3  C   UNL     1       4.218  -7.171  24.378  0.00  0.00    +0.026 A 
ATOM      4  C   UNL     1       4.990  -6.304  23.618  0.00  0.00    +0.042 A 
ATOM      5  N   UNL     1       4.945  -6.111  22.238  0.00  0.00    -0.281 N 
ATOM      6  H   UNL     1       4.340  -6.600  21.594  0.00  0.00    +0.155 HD
ATOM      7  C   UNL     1       5.816  -5.104  21.834  0.00  0.00    +0.250 C 
ATOM      8  C   UNL     1       6.477  -4.624  23.101  0.00  0.00    +0.066 C 
ATOM      9  C   UNL     1       7.331  -3.579  23.145  0.00  0.00    +0.057 C 
ATOM     10  C   UNL     1       7.990  -3.003  24.430  0.00  0.00    +0.128 C 
ATOM     11  C   UNL     1       7.011  -2.306  25.382  0.00  0.00    +0.053 C 
ATOM     12  C   UNL     1       8.896  -1.927  23.872  0.00  0.00    +0.010 A 
ATOM     13  C   UNL     1       9.753  -1.082  24.562  0.00  0.00    +0.008 A 
ATOM     14  C   UNL     1      10.354  -0.053  23.847  0.00  0.00    +0.000 A 
ATOM     15  C   UNL     1      10.106   0.090  22.471  0.00  0.00    +0.002 A 
ATOM     16  C   UNL     1       9.268  -0.803  21.782  0.00  0.00    +0.023 A 
ATOM     17  C   UNL     1       8.661  -1.813  22.496  0.00  0.00    +0.038 A 
ATOM     18  N   UNL     1       7.787  -2.811  22.072  0.00  0.00    -0.314 N 
ATOM     19  H   UNL     1       7.404  -2.910  21.139  0.00  0.00    +0.152 HD
ATOM     20  O   UNL     1       5.990  -4.688  20.704  0.00  0.00    -0.270 OA
ATOM     21  C   UNL     1       5.936  -5.453  24.188  0.00  0.00    +0.012 A 
ATOM     22  C   UNL     1       6.150  -5.495  25.549  0.00  0.00    +0.039 A 
ENDROOT
BRANCH   1  23
ATOM     23  S   UNL     1       5.465  -6.076  28.114  0.00  0.00    +0.061 S 
ATOM     24  O   UNL     1       5.723  -7.372  28.699  0.00  0.00    -0.153 OA
ATOM     25  O   UNL     1       6.383  -4.979  28.346  0.00  0.00    -0.153 OA
BRANCH  23  29
ATOM     26  C   UNL     1       3.734  -2.826  29.624  0.00  0.00    +0.117 C 
ATOM     27  C   UNL     1       3.855  -3.108  28.127  0.00  0.00    +0.048 C 
ATOM     28  C   UNL     1       3.321  -4.489  27.742  0.00  0.00    +0.112 C 
ATOM     29  N   UNL     1       3.913  -5.567  28.588  0.00  0.00    -0.176 NA
ATOM     30  C   UNL     1       3.633  -5.306  30.021  0.00  0.00    +0.112 C 
ATOM     31  C   UNL     1       4.227  -3.984  30.485  0.00  0.00    +0.048 C 
BRANCH  26  32
ATOM     32  O   UNL     1       2.366  -2.562  29.932  0.00  0.00    -0.392 OA
ATOM     33  H   UNL     1       1.838  -2.847  29.164  0.00  0.00    +0.210 HD
ENDBRANCH  26  32
ENDBRANCH  23  29
ENDBRANCH   1  23
BRANCH  10  34
ATOM     34  O   UNL     1       8.803  -3.985  25.059  0.00  0.00    -0.378 OA
ATOM     35  H   UNL     1       9.695  -3.594  25.090  0.00  0.00    +0.211 HD
ENDBRANCH  10  34
TORSDOF 4
ENDMDL
MODEL 3
REMARK VINA RESULT:      -8.3      3.513      9.196
REMARK  Name = 
REMARK  5 active torsions:
REMARK  status: ('A' for Active; 'I' for Inactive)
REMARK    1  A    between atoms: O_1  and  C_2
REMARK    2  A    between atoms: N_5  and  S_8
REMARK    3  A    between atoms: S_8  and  C_11
REMARK    4  A    between atoms: C_29  and  C_30
REMARK    5  A    between atoms: C_29  and  O_31
REMARK                            x       y       z     vdW  Elec       q    Type
REMARK                         _______ _______ _______ _____ _____    ______ ____
ROOT
ATOM      1  C   UNL     1       8.256  -1.195  22.986  0.00  0.00    +0.106 A 
ATOM      2  C   UNL     1       9.062  -1.117  21.842  0.00  0.00    +0.030 A 
ATOM      3  C   UNL     1       9.808   0.048  21.594  0.00  0.00    +0.026 A 
ATOM      4  C   UNL     1       9.661   1.115  22.468  0.00  0.00    +0.042 A 
ATOM      5  N   UNL     1      10.242   2.380  22.373  0.00  0.00    -0.281 N 
ATOM      6  H   UNL     1      10.871   2.686  21.645  0.00  0.00    +0.155 HD
ATOM      7  C   UNL     1       9.807   3.219  23.394  0.00  0.00    +0.250 C 
ATOM      8  C   UNL     1       8.858   2.383  24.215  0.00  0.00    +0.066 C 
ATOM      9  C   UNL     1       8.147   2.868  25.254  0.00  0.00    +0.057 C 
ATOM     10  C   UNL     1       7.110   2.070  26.092  0.00  0.00    +0.128 C 
ATOM     11  C   UNL     1       5.832   1.699  25.328  0.00  0.00    +0.053 C 
ATOM     12  C   UNL     1       6.709   3.074  27.151  0.00  0.00    +0.010 A 
ATOM     13  C   UNL     1       5.812   2.909  28.196  0.00  0.00    +0.008 A 
ATOM     14  C   UNL     1       5.475   4.036  28.937  0.00  0.00    +0.000 A 
ATOM     15  C   UNL     1       6.053   5.280  28.633  0.00  0.00    +0.002 A 
ATOM     16  C   UNL     1       6.992   5.417  27.597  0.00  0.00    +0.023 A 
ATOM     17  C   UNL     1       7.313   4.301  26.854  0.00  0.00    +0.038 A 
ATOM     18  N   UNL     1       8.188   4.161  25.780  0.00  0.00    -0.314 N 
ATOM     19  H   UNL     1       8.699   4.909  25.326  0.00  0.00    +0.152 HD
ATOM     20  O   UNL     1      10.111   4.383  23.572  0.00  0.00    -0.270 OA
ATOM     21  C   UNL     1       8.842   1.050  23.595  0.00  0.00    +0.012 A 
ATOM     22  C   UNL     1       8.182  -0.125  23.883  0.00  0.00    +0.039 A 
ENDROOT
BRANCH   1  23
ATOM     23  S   UNL     1       7.136  -2.556  23.264  0.00  0.00    +0.061 S 
ATOM     24  O   UNL     1       6.242  -2.164  24.330  0.00  0.00    -0.153 OA
ATOM     25  O   UNL     1       6.602  -2.951  21.976  0.00  0.00    -0.153 OA
BRANCH  23  29
ATOM     26  C   UNL     1       7.538  -4.792  26.532  0.00  0.00    +0.117 C 
ATOM     27  C   UNL     1       6.672  -5.183  25.335  0.00  0.00    +0.048 C 
ATOM     28  C   UNL     1       7.436  -5.127  24.011  0.00  0.00    +0.112 C 
ATOM     29  N   UNL     1       8.129  -3.818  23.827  0.00  0.00    -0.176 NA
ATOM     30  C   UNL     1       9.063  -3.569  24.952  0.00  0.00    +0.112 C 
ATOM     31  C   UNL     1       8.340  -3.519  26.290  0.00  0.00    +0.048 C 
BRANCH  26  32
ATOM     32  O   UNL     1       8.436  -5.865  26.818  0.00  0.00    -0.392 OA
ATOM     33  H   UNL     1       8.653  -6.292  25.969  0.00  0.00    +0.210 HD
ENDBRANCH  26  32
ENDBRANCH  23  29
ENDBRANCH   1  23
BRANCH  10  34
ATOM     34  O   UNL     1       7.732   0.967  26.739  0.00  0.00    -0.378 OA
ATOM     35  H   UNL     1       7.345   0.948  27.635  0.00  0.00    +0.211 HD
ENDBRANCH  10  34
TORSDOF 4
ENDMDL
MODEL 4
REMARK VINA RESULT:      -8.0      2.998      9.426
REMARK  Name = 
REMARK  5 active torsions:
REMARK  status: ('A' for Active; 'I' for Inactive)
REMARK    1  A    between atoms: O_1  and  C_2
REMARK    2  A    between atoms: N_5  and  S_8
REMARK    3  A    between atoms: S_8  and  C_11
REMARK    4  A    between atoms: C_29  and  C_30
REMARK    5  A    between atoms: C_29  and  O_31
REMARK                            x       y       z     vdW  Elec       q    Type
REMARK                         _______ _______ _______ _____ _____    ______ ____
ROOT
ATOM      1  C   UNL     1       7.551  -1.705  23.978  0.00  0.00    +0.106 A 
ATOM      2  C   UNL     1       8.746  -2.430  24.081  0.00  0.00    +0.030 A 
ATOM      3  C   UNL     1       9.972  -1.746  24.147  0.00  0.00    +0.026 A 
ATOM      4  C   UNL     1       9.954  -0.363  24.038  0.00  0.00    +0.042 A 
ATOM      5  N   UNL     1      11.047   0.503  24.003  0.00  0.00    -0.281 N 
ATOM      6  H   UNL     1      12.017   0.230  24.069  0.00  0.00    +0.155 HD
ATOM      7  C   UNL     1      10.647   1.822  23.810  0.00  0.00    +0.250 C 
ATOM      8  C   UNL     1       9.143   1.769  23.720  0.00  0.00    +0.066 C 
ATOM      9  C   UNL     1       8.376   2.844  23.441  0.00  0.00    +0.057 C 
ATOM     10  C   UNL     1       6.831   2.833  23.274  0.00  0.00    +0.128 C 
ATOM     11  C   UNL     1       6.336   2.095  22.024  0.00  0.00    +0.053 C 
ATOM     12  C   UNL     1       6.520   4.300  23.065  0.00  0.00    +0.010 A 
ATOM     13  C   UNL     1       5.283   4.898  22.875  0.00  0.00    +0.008 A 
ATOM     14  C   UNL     1       5.266   6.243  22.528  0.00  0.00    +0.000 A 
ATOM     15  C   UNL     1       6.470   6.956  22.405  0.00  0.00    +0.002 A 
ATOM     16  C   UNL     1       7.711   6.342  22.643  0.00  0.00    +0.023 A 
ATOM     17  C   UNL     1       7.726   5.004  22.972  0.00  0.00    +0.038 A 
ATOM     18  N   UNL     1       8.800   4.160  23.242  0.00  0.00    -0.314 N 
ATOM     19  H   UNL     1       9.781   4.403  23.176  0.00  0.00    +0.152 HD
ATOM     20  O   UNL     1      11.361   2.802  23.713  0.00  0.00    -0.270 OA
ATOM     21  C   UNL     1       8.768   0.360  23.911  0.00  0.00    +0.012 A 
ATOM     22  C   UNL     1       7.564  -0.309  23.937  0.00  0.00    +0.039 A 
ENDROOT
BRANCH   1  23
ATOM     23  S   UNL     1       5.981  -2.504  23.694  0.00  0.00    +0.061 S 
ATOM     24  O   UNL     1       5.010  -1.857  24.547  0.00  0.00    -0.153 OA
ATOM     25  O   UNL     1       5.770  -2.553  22.260  0.00  0.00    -0.153 OA
BRANCH  23  29
ATOM     26  C   UNL     1       4.170  -6.036  23.397  0.00  0.00    +0.117 C 
ATOM     27  C   UNL     1       5.264  -5.557  22.441  0.00  0.00    +0.048 C 
ATOM     28  C   UNL     1       6.523  -5.092  23.173  0.00  0.00    +0.112 C 
ATOM     29  N   UNL     1       6.207  -4.098  24.243  0.00  0.00    -0.176 NA
ATOM     30  C   UNL     1       5.251  -4.681  25.216  0.00  0.00    +0.112 C 
ATOM     31  C   UNL     1       3.938  -5.076  24.557  0.00  0.00    +0.048 C 
BRANCH  26  32
ATOM     32  O   UNL     1       4.540  -7.315  23.912  0.00  0.00    -0.392 OA
ATOM     33  H   UNL     1       5.356  -7.191  24.432  0.00  0.00    +0.210 HD
ENDBRANCH  26  32
ENDBRANCH  23  29
ENDBRANCH   1  23
BRANCH  10  34
ATOM     34  O   UNL     1       6.200   2.413  24.477  0.00  0.00    -0.378 OA
ATOM     35  H   UNL     1       6.805   2.689  25.190  0.00  0.00    +0.211 HD
ENDBRANCH  10  34
TORSDOF 4
ENDMDL
MODEL 5
REMARK VINA RESULT:      -7.9      3.530      8.593
REMARK  Name = 
REMARK  5 active torsions:
REMARK  status: ('A' for Active; 'I' for Inactive)
REMARK    1  A    between atoms: O_1  and  C_2
REMARK    2  A    between atoms: N_5  and  S_8
REMARK    3  A    between atoms: S_8  and  C_11
REMARK    4  A    between atoms: C_29  and  C_30
REMARK    5  A    between atoms: C_29  and  O_31
REMARK                            x       y       z     vdW  Elec       q    Type
REMARK                         _______ _______ _______ _____ _____    ______ ____
ROOT
ATOM      1  C   UNL     1       9.417  -2.020  23.937  0.00  0.00    +0.106 A 
ATOM      2  C   UNL     1      10.159  -1.872  22.758  0.00  0.00    +0.030 A 
ATOM      3  C   UNL     1      10.502  -0.587  22.307  0.00  0.00    +0.026 A 
ATOM      4  C   UNL     1      10.027   0.503  23.022  0.00  0.00    +0.042 A 
ATOM      5  N   UNL     1      10.182   1.855  22.716  0.00  0.00    -0.281 N 
ATOM      6  H   UNL     1      10.684   2.226  21.922  0.00  0.00    +0.155 HD
ATOM      7  C   UNL     1       9.504   2.665  23.622  0.00  0.00    +0.250 C 
ATOM      8  C   UNL     1       8.864   1.712  24.600  0.00  0.00    +0.066 C 
ATOM      9  C   UNL     1       8.035   2.106  25.590  0.00  0.00    +0.057 C 
ATOM     10  C   UNL     1       7.300   1.164  26.583  0.00  0.00    +0.128 C 
ATOM     11  C   UNL     1       6.204   0.303  25.942  0.00  0.00    +0.053 C 
ATOM     12  C   UNL     1       6.603   2.144  27.501  0.00  0.00    +0.010 A 
ATOM     13  C   UNL     1       5.801   1.872  28.600  0.00  0.00    +0.008 A 
ATOM     14  C   UNL     1       5.127   2.938  29.183  0.00  0.00    +0.000 A 
ATOM     15  C   UNL     1       5.286   4.238  28.674  0.00  0.00    +0.002 A 
ATOM     16  C   UNL     1       6.136   4.499  27.586  0.00  0.00    +0.023 A 
ATOM     17  C   UNL     1       6.792   3.438  27.000  0.00  0.00    +0.038 A 
ATOM     18  N   UNL     1       7.668   3.413  25.918  0.00  0.00    -0.314 N 
ATOM     19  H   UNL     1       7.919   4.203  25.336  0.00  0.00    +0.152 HD
ATOM     20  O   UNL     1       9.427   3.879  23.614  0.00  0.00    -0.270 OA
ATOM     21  C   UNL     1       9.268   0.361  24.183  0.00  0.00    +0.012 A 
ATOM     22  C   UNL     1       9.010  -0.902  24.670  0.00  0.00    +0.039 A 
ENDROOT
BRANCH   1  23
ATOM     23  S   UNL     1       8.780  -3.602  24.464  0.00  0.00    +0.061 S 
ATOM     24  O   UNL     1       9.903  -4.507  24.554  0.00  0.00    -0.153 OA
ATOM     25  O   UNL     1       7.939  -3.370  25.622  0.00  0.00    -0.153 OA
BRANCH  23  29
ATOM     26  C   UNL     1       4.899  -4.126  23.755  0.00  0.00    +0.117 C 
ATOM     27  C   UNL     1       5.649  -2.825  23.468  0.00  0.00    +0.048 C 
ATOM     28  C   UNL     1       6.901  -3.041  22.617  0.00  0.00    +0.112 C 
ATOM     29  N   UNL     1       7.779  -4.107  23.185  0.00  0.00    -0.176 NA
ATOM     30  C   UNL     1       7.028  -5.381  23.301  0.00  0.00    +0.112 C 
ATOM     31  C   UNL     1       5.821  -5.249  24.216  0.00  0.00    +0.048 C 
BRANCH  26  32
ATOM     32  O   UNL     1       4.219  -4.534  22.568  0.00  0.00    -0.392 OA
ATOM     33  H   UNL     1       3.278  -4.643  22.799  0.00  0.00    +0.210 HD
ENDBRANCH  26  32
ENDBRANCH  23  29
ENDBRANCH   1  23
BRANCH  10  34
ATOM     34  O   UNL     1       8.236   0.422  27.355  0.00  0.00    -0.378 OA
ATOM     35  H   UNL     1       9.081   0.506  26.877  0.00  0.00    +0.211 HD
ENDBRANCH  10  34
TORSDOF 4
ENDMDL
MODEL 6
REMARK VINA RESULT:      -7.9      3.336      8.887
REMARK  Name = 
REMARK  5 active torsions:
REMARK  status: ('A' for Active; 'I' for Inactive)
REMARK    1  A    between atoms: O_1  and  C_2
REMARK    2  A    between atoms: N_5  and  S_8
REMARK    3  A    between atoms: S_8  and  C_11
REMARK    4  A    between atoms: C_29  and  C_30
REMARK    5  A    between atoms: C_29  and  O_31
REMARK                            x       y       z     vdW  Elec       q    Type
REMARK                         _______ _______ _______ _____ _____    ______ ____
ROOT
ATOM      1  C   UNL     1       8.911  -1.756  23.174  0.00  0.00    +0.106 A 
ATOM      2  C   UNL     1       9.378  -1.530  21.872  0.00  0.00    +0.030 A 
ATOM      3  C   UNL     1       9.598  -0.215  21.430  0.00  0.00    +0.026 A 
ATOM      4  C   UNL     1       9.274   0.825  22.290  0.00  0.00    +0.042 A 
ATOM      5  N   UNL     1       9.341   2.194  22.033  0.00  0.00    -0.281 N 
ATOM      6  H   UNL     1       9.654   2.618  21.171  0.00  0.00    +0.155 HD
ATOM      7  C   UNL     1       8.865   2.939  23.107  0.00  0.00    +0.250 C 
ATOM      8  C   UNL     1       8.465   1.921  24.146  0.00  0.00    +0.066 C 
ATOM      9  C   UNL     1       7.866   2.244  25.312  0.00  0.00    +0.057 C 
ATOM     10  C   UNL     1       7.376   1.234  26.386  0.00  0.00    +0.128 C 
ATOM     11  C   UNL     1       6.179   0.380  25.951  0.00  0.00    +0.053 C 
ATOM     12  C   UNL     1       6.882   2.148  27.486  0.00  0.00    +0.010 A 
ATOM     13  C   UNL     1       6.342   1.800  28.716  0.00  0.00    +0.008 A 
ATOM     14  C   UNL     1       5.796   2.818  29.488  0.00  0.00    +0.000 A 
ATOM     15  C   UNL     1       5.823   4.146  29.030  0.00  0.00    +0.002 A 
ATOM     16  C   UNL     1       6.414   4.483  27.801  0.00  0.00    +0.023 A 
ATOM     17  C   UNL     1       6.941   3.470  27.029  0.00  0.00    +0.038 A 
ATOM     18  N   UNL     1       7.561   3.522  25.784  0.00  0.00    -0.314 N 
ATOM     19  H   UNL     1       7.670   4.348  25.206  0.00  0.00    +0.152 HD
ATOM     20  O   UNL     1       8.772   4.150  23.183  0.00  0.00    -0.270 OA
ATOM     21  C   UNL     1       8.787   0.604  23.577  0.00  0.00    +0.012 A 
ATOM     22  C   UNL     1       8.658  -0.688  24.038  0.00  0.00    +0.039 A 
ENDROOT
BRANCH   1  23
ATOM     23  S   UNL     1       8.425  -3.379  23.737  0.00  0.00    +0.061 S 
ATOM     24  O   UNL     1       7.604  -3.964  22.701  0.00  0.00    -0.153 OA
ATOM     25  O   UNL     1       9.622  -4.061  24.187  0.00  0.00    -0.153 OA
BRANCH  23  29
ATOM     26  C   UNL     1       6.653  -5.457  26.632  0.00  0.00    +0.117 C 
ATOM     27  C   UNL     1       8.058  -4.866  26.746  0.00  0.00    +0.048 C 
ATOM     28  C   UNL     1       8.099  -3.374  26.411  0.00  0.00    +0.112 C 
ATOM     29  N   UNL     1       7.449  -3.083  25.099  0.00  0.00    -0.176 NA
ATOM     30  C   UNL     1       6.042  -3.554  25.109  0.00  0.00    +0.112 C 
ATOM     31  C   UNL     1       5.946  -5.054  25.344  0.00  0.00    +0.048 C 
BRANCH  26  32
ATOM     32  O   UNL     1       5.879  -5.019  27.749  0.00  0.00    -0.392 OA
ATOM     33  H   UNL     1       6.366  -4.284  28.166  0.00  0.00    +0.210 HD
ENDBRANCH  26  32
ENDBRANCH  23  29
ENDBRANCH   1  23
BRANCH  10  34
ATOM     34  O   UNL     1       8.467   0.477  26.896  0.00  0.00    -0.378 OA
ATOM     35  H   UNL     1       9.040   1.127  27.343  0.00  0.00    +0.211 HD
ENDBRANCH  10  34
TORSDOF 4
ENDMDL
MODEL 7
REMARK VINA RESULT:      -7.8      2.451      4.018
REMARK  Name = 
REMARK  5 active torsions:
REMARK  status: ('A' for Active; 'I' for Inactive)
REMARK    1  A    between atoms: O_1  and  C_2
REMARK    2  A    between atoms: N_5  and  S_8
REMARK    3  A    between atoms: S_8  and  C_11
REMARK    4  A    between atoms: C_29  and  C_30
REMARK    5  A    between atoms: C_29  and  O_31
REMARK                            x       y       z     vdW  Elec       q    Type
REMARK                         _______ _______ _______ _____ _____    ______ ____
ROOT
ATOM      1  C   UNL     1       7.743  -3.392  23.485  0.00  0.00    +0.106 A 
ATOM      2  C   UNL     1       7.951  -4.075  22.279  0.00  0.00    +0.030 A 
ATOM      3  C   UNL     1       7.124  -5.159  21.941  0.00  0.00    +0.026 A 
ATOM      4  C   UNL     1       6.165  -5.559  22.860  0.00  0.00    +0.042 A 
ATOM      5  N   UNL     1       5.295  -6.645  22.766  0.00  0.00    -0.281 N 
ATOM      6  H   UNL     1       5.239  -7.290  21.990  0.00  0.00    +0.155 HD
ATOM      7  C   UNL     1       4.522  -6.782  23.914  0.00  0.00    +0.250 C 
ATOM      8  C   UNL     1       4.955  -5.655  24.817  0.00  0.00    +0.066 C 
ATOM      9  C   UNL     1       4.500  -5.494  26.078  0.00  0.00    +0.057 C 
ATOM     10  C   UNL     1       4.959  -4.391  27.072  0.00  0.00    +0.128 C 
ATOM     11  C   UNL     1       6.405  -4.544  27.561  0.00  0.00    +0.053 C 
ATOM     12  C   UNL     1       4.066  -4.642  28.267  0.00  0.00    +0.010 A 
ATOM     13  C   UNL     1       4.017  -3.945  29.465  0.00  0.00    +0.008 A 
ATOM     14  C   UNL     1       3.234  -4.473  30.484  0.00  0.00    +0.000 A 
ATOM     15  C   UNL     1       2.509  -5.659  30.277  0.00  0.00    +0.002 A 
ATOM     16  C   UNL     1       2.539  -6.327  29.041  0.00  0.00    +0.023 A 
ATOM     17  C   UNL     1       3.328  -5.809  28.036  0.00  0.00    +0.038 A 
ATOM     18  N   UNL     1       3.548  -6.271  26.742  0.00  0.00    -0.314 N 
ATOM     19  H   UNL     1       3.187  -7.131  26.346  0.00  0.00    +0.152 HD
ATOM     20  O   UNL     1       3.691  -7.639  24.147  0.00  0.00    -0.270 OA
ATOM     21  C   UNL     1       5.971  -4.897  24.072  0.00  0.00    +0.012 A 
ATOM     22  C   UNL     1       6.724  -3.779  24.359  0.00  0.00    +0.039 A 
ENDROOT
BRANCH   1  23
ATOM     23  S   UNL     1       8.870  -2.138  24.068  0.00  0.00    +0.061 S 
ATOM     24  O   UNL     1       8.828  -2.162  25.513  0.00  0.00    -0.153 OA
ATOM     25  O   UNL     1      10.129  -2.326  23.376  0.00  0.00    -0.153 OA
BRANCH  23  29
ATOM     26  C   UNL     1      10.041   1.158  22.169  0.00  0.00    +0.117 C 
ATOM     27  C   UNL     1       9.471  -0.073  21.465  0.00  0.00    +0.048 C 
ATOM     28  C   UNL     1       8.129  -0.518  22.047  0.00  0.00    +0.112 C 
ATOM     29  N   UNL     1       8.193  -0.672  23.531  0.00  0.00    -0.176 NA
ATOM     30  C   UNL     1       8.613   0.603  24.162  0.00  0.00    +0.112 C 
ATOM     31  C   UNL     1       9.990   1.046  23.688  0.00  0.00    +0.048 C 
BRANCH  26  32
ATOM     32  O   UNL     1       9.298   2.306  21.758  0.00  0.00    -0.392 OA
ATOM     33  H   UNL     1       9.910   3.065  21.773  0.00  0.00    +0.210 HD
ENDBRANCH  26  32
ENDBRANCH  23  29
ENDBRANCH   1  23
BRANCH  10  34
ATOM     34  O   UNL     1       4.661  -3.099  26.558  0.00  0.00    -0.378 OA
ATOM     35  H   UNL     1       5.484  -2.588  26.663  0.00  0.00    +0.211 HD
ENDBRANCH  10  34
TORSDOF 4
ENDMDL
MODEL 8
REMARK VINA RESULT:      -7.8      2.884      9.340
REMARK  Name = 
REMARK  5 active torsions:
REMARK  status: ('A' for Active; 'I' for Inactive)
REMARK    1  A    between atoms: O_1  and  C_2
REMARK    2  A    between atoms: N_5  and  S_8
REMARK    3  A    between atoms: S_8  and  C_11
REMARK    4  A    between atoms: C_29  and  C_30
REMARK    5  A    between atoms: C_29  and  O_31
REMARK                            x       y       z     vdW  Elec       q    Type
REMARK                         _______ _______ _______ _____ _____    ______ ____
ROOT
ATOM      1  C   UNL     1       7.037  -2.854  24.277  0.00  0.00    +0.106 A 
ATOM      2  C   UNL     1       7.478  -3.552  23.145  0.00  0.00    +0.030 A 
ATOM      3  C   UNL     1       8.353  -2.928  22.239  0.00  0.00    +0.026 A 
ATOM      4  C   UNL     1       8.695  -1.604  22.470  0.00  0.00    +0.042 A 
ATOM      5  N   UNL     1       9.481  -0.775  21.670  0.00  0.00    -0.281 N 
ATOM      6  H   UNL     1       9.925  -1.041  20.803  0.00  0.00    +0.155 HD
ATOM      7  C   UNL     1       9.547   0.517  22.182  0.00  0.00    +0.250 C 
ATOM      8  C   UNL     1       8.718   0.484  23.441  0.00  0.00    +0.066 C 
ATOM      9  C   UNL     1       8.456   1.578  24.189  0.00  0.00    +0.057 C 
ATOM     10  C   UNL     1       7.558   1.613  25.456  0.00  0.00    +0.128 C 
ATOM     11  C   UNL     1       6.066   1.386  25.178  0.00  0.00    +0.053 C 
ATOM     12  C   UNL     1       7.702   3.048  25.914  0.00  0.00    +0.010 A 
ATOM     13  C   UNL     1       7.130   3.660  27.019  0.00  0.00    +0.008 A 
ATOM     14  C   UNL     1       7.268   5.037  27.135  0.00  0.00    +0.000 A 
ATOM     15  C   UNL     1       7.988   5.759  26.167  0.00  0.00    +0.002 A 
ATOM     16  C   UNL     1       8.596   5.114  25.077  0.00  0.00    +0.023 A 
ATOM     17  C   UNL     1       8.444   3.750  24.956  0.00  0.00    +0.038 A 
ATOM     18  N   UNL     1       8.922   2.878  23.982  0.00  0.00    -0.314 N 
ATOM     19  H   UNL     1       9.429   3.139  23.144  0.00  0.00    +0.152 HD
ATOM     20  O   UNL     1      10.132   1.471  21.705  0.00  0.00    -0.270 OA
ATOM     21  C   UNL     1       8.240  -0.899  23.584  0.00  0.00    +0.012 A 
ATOM     22  C   UNL     1       7.455  -1.542  24.516  0.00  0.00    +0.039 A 
ENDROOT
BRANCH   1  23
ATOM     23  S   UNL     1       5.780  -3.508  25.362  0.00  0.00    +0.061 S 
ATOM     24  O   UNL     1       5.800  -2.713  26.569  0.00  0.00    -0.153 OA
ATOM     25  O   UNL     1       4.558  -3.627  24.591  0.00  0.00    -0.153 OA
BRANCH  23  29
ATOM     26  C   UNL     1       5.000  -6.355  28.032  0.00  0.00    +0.117 C 
ATOM     27  C   UNL     1       4.312  -6.253  26.671  0.00  0.00    +0.048 C 
ATOM     28  C   UNL     1       5.307  -6.156  25.513  0.00  0.00    +0.112 C 
ATOM     29  N   UNL     1       6.315  -5.079  25.738  0.00  0.00    -0.176 NA
ATOM     30  C   UNL     1       7.048  -5.319  27.006  0.00  0.00    +0.112 C 
ATOM     31  C   UNL     1       6.115  -5.331  28.208  0.00  0.00    +0.048 C 
BRANCH  26  32
ATOM     32  O   UNL     1       5.543  -7.668  28.174  0.00  0.00    -0.392 OA
ATOM     33  H   UNL     1       5.996  -7.700  29.037  0.00  0.00    +0.210 HD
ENDBRANCH  26  32
ENDBRANCH  23  29
ENDBRANCH   1  23
BRANCH  10  34
ATOM     34  O   UNL     1       8.088   0.769  26.469  0.00  0.00    -0.378 OA
ATOM     35  H   UNL     1       8.268  -0.080  26.024  0.00  0.00    +0.211 HD
ENDBRANCH  10  34
TORSDOF 4
ENDMDL
MODEL 9
REMARK VINA RESULT:      -7.7      2.701      4.203
REMARK  Name = 
REMARK  5 active torsions:
REMARK  status: ('A' for Active; 'I' for Inactive)
REMARK    1  A    between atoms: O_1  and  C_2
REMARK    2  A    between atoms: N_5  and  S_8
REMARK    3  A    between atoms: S_8  and  C_11
REMARK    4  A    between atoms: C_29  and  C_30
REMARK    5  A    between atoms: C_29  and  O_31
REMARK                            x       y       z     vdW  Elec       q    Type
REMARK                         _______ _______ _______ _____ _____    ______ ____
ROOT
ATOM      1  C   UNL     1       7.857   0.401  24.152  0.00  0.00    +0.106 A 
ATOM      2  C   UNL     1       9.223   0.538  24.432  0.00  0.00    +0.030 A 
ATOM      3  C   UNL     1      10.033  -0.606  24.530  0.00  0.00    +0.026 A 
ATOM      4  C   UNL     1       9.424  -1.847  24.410  0.00  0.00    +0.042 A 
ATOM      5  N   UNL     1      10.017  -3.103  24.546  0.00  0.00    -0.281 N 
ATOM      6  H   UNL     1      10.993  -3.276  24.741  0.00  0.00    +0.155 HD
ATOM      7  C   UNL     1       9.079  -4.125  24.434  0.00  0.00    +0.250 C 
ATOM      8  C   UNL     1       7.763  -3.428  24.197  0.00  0.00    +0.066 C 
ATOM      9  C   UNL     1       6.581  -4.075  24.125  0.00  0.00    +0.057 C 
ATOM     10  C   UNL     1       5.192  -3.403  23.946  0.00  0.00    +0.128 C 
ATOM     11  C   UNL     1       4.725  -2.586  25.157  0.00  0.00    +0.053 C 
ATOM     12  C   UNL     1       4.267  -4.597  23.844  0.00  0.00    +0.010 A 
ATOM     13  C   UNL     1       2.892  -4.606  23.658  0.00  0.00    +0.008 A 
ATOM     14  C   UNL     1       2.237  -5.826  23.774  0.00  0.00    +0.000 A 
ATOM     15  C   UNL     1       2.965  -6.997  24.045  0.00  0.00    +0.002 A 
ATOM     16  C   UNL     1       4.362  -6.972  24.187  0.00  0.00    +0.023 A 
ATOM     17  C   UNL     1       5.009  -5.759  24.088  0.00  0.00    +0.038 A 
ATOM     18  N   UNL     1       6.362  -5.453  24.200  0.00  0.00    -0.314 N 
ATOM     19  H   UNL     1       7.102  -6.101  24.441  0.00  0.00    +0.152 HD
ATOM     20  O   UNL     1       9.277  -5.321  24.529  0.00  0.00    -0.270 OA
ATOM     21  C   UNL     1       8.061  -1.989  24.155  0.00  0.00    +0.012 A 
ATOM     22  C   UNL     1       7.288  -0.863  23.971  0.00  0.00    +0.039 A 
ENDROOT
BRANCH   1  23
ATOM     23  S   UNL     1       6.735   1.787  24.206  0.00  0.00    +0.061 S 
ATOM     24  O   UNL     1       5.395   1.252  24.282  0.00  0.00    -0.153 OA
ATOM     25  O   UNL     1       7.213   2.695  25.230  0.00  0.00    -0.153 OA
BRANCH  23  29
ATOM     26  C   UNL     1       7.200   5.475  22.782  0.00  0.00    +0.117 C 
ATOM     27  C   UNL     1       8.362   4.553  23.154  0.00  0.00    +0.048 C 
ATOM     28  C   UNL     1       8.265   3.183  22.482  0.00  0.00    +0.112 C 
ATOM     29  N   UNL     1       6.929   2.553  22.699  0.00  0.00    -0.176 NA
ATOM     30  C   UNL     1       5.855   3.437  22.183  0.00  0.00    +0.112 C 
ATOM     31  C   UNL     1       5.844   4.787  22.886  0.00  0.00    +0.048 C 
BRANCH  26  32
ATOM     32  O   UNL     1       7.391   5.936  21.444  0.00  0.00    -0.392 OA
ATOM     33  H   UNL     1       7.771   5.196  20.937  0.00  0.00    +0.210 HD
ENDBRANCH  26  32
ENDBRANCH  23  29
ENDBRANCH   1  23
BRANCH  10  34
ATOM     34  O   UNL     1       5.134  -2.692  22.716  0.00  0.00    -0.378 OA
ATOM     35  H   UNL     1       4.558  -3.227  22.140  0.00  0.00    +0.211 HD
ENDBRANCH  10  34
TORSDOF 4
ENDMDL
