MODEL 1
REMARK VINA RESULT:      -7.2      0.000      0.000
REMARK  Name = 
REMARK  12 active torsions:
REMARK  status: ('A' for Active; 'I' for Inactive)
REMARK    1  A    between atoms: C_2  and  CA_4
REMARK    2  A    between atoms: C_5  and  C_33
REMARK    3  A    between atoms: CA_10  and  N_12
REMARK    4  A    between atoms: C_13  and  C_15
REMARK    5  A    between atoms: C_15  and  C_24
REMARK    6  A    between atoms: N_16  and  O_17
REMARK    7  A    between atoms: O_17  and  C_18
REMARK    8  A    between atoms: C_18  and  C_19
REMARK    9  A    between atoms: C_18  and  C_20
REMARK   10  A    between atoms: C_18  and  C_21
REMARK   11  A    between atoms: C_21  and  O_22
REMARK   12  A    between atoms: C_33  and  N_34
REMARK                            x       y       z     vdW  Elec       q    Type
REMARK                         _______ _______ _______ _____ _____    ______ ____
ROOT
ATOM      1  N   UNL     1       4.387  -4.380  25.529  0.00  0.00    -0.296 N 
ATOM      2  H   UNL     1       5.221  -4.576  24.984  0.00  0.00    +0.150 HD
ATOM      3  C   UNL     1       3.182  -4.852  25.037  0.00  0.00    +0.268 C 
ATOM      4  O   UNL     1       2.073  -4.583  25.487  0.00  0.00    -0.268 OA
ENDROOT
BRANCH   1   8
ATOM      5  CA  UNL     1       6.851  -1.191  26.696  0.00  0.00    +0.066 C 
ATOM      6  N   UNL     1       5.802  -2.022  26.975  0.00  0.00    -0.253 N 
ATOM      7  C   UNL     1       5.881  -3.368  27.488  0.00  0.00    +0.168 C 
ATOM      8  CA  UNL     1       4.484  -3.608  26.832  0.00  0.00    +0.191 C 
ATOM      9  S   UNL     1       7.199  -4.420  26.880  0.00  0.00    -0.131 S 
ATOM     10  C   UNL     1       8.357  -3.207  26.277  0.00  0.00    +0.110 C 
ATOM     11  C   UNL     1       4.478  -2.053  26.652  0.00  0.00    +0.244 C 
ATOM     12  O   UNL     1       3.660  -1.306  26.169  0.00  0.00    -0.273 OA
ATOM     13  C   UNL     1       8.040  -1.738  26.346  0.00  0.00    +0.028 C 
BRANCH   5  15
ATOM     14  O   UNL     1       6.202   0.841  25.590  0.00  0.00    -0.543 OA
ATOM     15  C   UNL     1       6.686   0.389  26.674  0.00  0.00    +0.086 C 
ATOM     16  OXT UNL     1       7.005   1.011  27.712  0.00  0.00    -0.543 OA
ENDBRANCH   5  15
BRANCH  13  17
ATOM     17  C   UNL     1       9.216  -0.909  25.851  0.00  0.00    +0.391 C 
BRANCH  17  18
ATOM     18  N   UNL     1       9.245  -0.613  24.386  0.00  0.00    -0.200 N 
ATOM     19  C   UNL     1       9.368   0.680  24.001  0.00  0.00    +0.309 A 
ATOM     20  C   UNL     1       9.639   1.007  22.676  0.00  0.00    +0.070 A 
ATOM     21  C   UNL     1       9.734  -0.002  21.726  0.00  0.00    +0.012 A 
ATOM     22  C   UNL     1       9.515  -1.319  22.115  0.00  0.00    +0.070 A 
ATOM     23  C   UNL     1       9.258  -1.601  23.458  0.00  0.00    +0.309 A 
ENDBRANCH  17  18
ENDBRANCH  13  17
ENDBRANCH   1   8
BRANCH   3  24
ATOM     24  C   UNL     1       3.208  -5.804  23.859  0.00  0.00    +0.190 C 
ATOM     25  N   UNL     1       3.844  -5.615  22.737  0.00  0.00    -0.077 NA
BRANCH  24  26
ATOM     26  C   UNL     1       2.375  -7.012  23.932  0.00  0.00    +0.107 A 
ATOM     27  N   UNL     1       2.609  -7.989  24.901  0.00  0.00    -0.223 NA
ATOM     28  C   UNL     1       1.841  -9.029  24.699  0.00  0.00    +0.156 A 
ATOM     29  N   UNL     1       1.900 -10.147  25.440  0.00  0.00    -0.338 N 
ATOM     30  H   UNL     1       2.368 -10.059  26.336  0.00  0.00    +0.144 HD
ATOM     31  H   UNL     1       1.081 -10.744  25.460  0.00  0.00    +0.144 HD
ATOM     32  S   UNL     1       0.734  -8.885  23.398  0.00  0.00    -0.060 S 
ATOM     33  C   UNL     1       1.369  -7.337  23.038  0.00  0.00    +0.078 A 
ENDBRANCH  24  26
BRANCH  25  34
ATOM     34  O   UNL     1       4.517  -4.388  22.623  0.00  0.00    -0.376 OA
BRANCH  34  35
ATOM     35  C   UNL     1       5.863  -4.609  22.142  0.00  0.00    +0.228 C 
ATOM     36  C   UNL     1       6.729  -4.902  23.372  0.00  0.00    +0.070 C 
ATOM     37  C   UNL     1       6.358  -3.332  21.455  0.00  0.00    +0.070 C 
BRANCH  35  38
ATOM     38  C   UNL     1       6.045  -5.820  21.192  0.00  0.00    +0.351 C 
ATOM     39  O   UNL     1       5.960  -5.757  19.972  0.00  0.00    -0.246 OA
BRANCH  38  40
ATOM     40  O   UNL     1       6.357  -6.975  21.827  0.00  0.00    -0.478 OA
ATOM     41  H   UNL     1       7.340  -7.054  21.856  0.00  0.00    +0.295 HD
ENDBRANCH  38  40
ENDBRANCH  35  38
ENDBRANCH  34  35
ENDBRANCH  25  34
ENDBRANCH   3  24
TORSDOF 10
ENDMDL
MODEL 2
REMARK VINA RESULT:      -7.1      2.818      7.572
REMARK  Name = 
REMARK  12 active torsions:
REMARK  status: ('A' for Active; 'I' for Inactive)
REMARK    1  A    between atoms: C_2  and  CA_4
REMARK    2  A    between atoms: C_5  and  C_33
REMARK    3  A    between atoms: CA_10  and  N_12
REMARK    4  A    between atoms: C_13  and  C_15
REMARK    5  A    between atoms: C_15  and  C_24
REMARK    6  A    between atoms: N_16  and  O_17
REMARK    7  A    between atoms: O_17  and  C_18
REMARK    8  A    between atoms: C_18  and  C_19
REMARK    9  A    between atoms: C_18  and  C_20
REMARK   10  A    between atoms: C_18  and  C_21
REMARK   11  A    between atoms: C_21  and  O_22
REMARK   12  A    between atoms: C_33  and  N_34
REMARK                            x       y       z     vdW  Elec       q    Type
REMARK                         _______ _______ _______ _____ _____    ______ ____
ROOT
ATOM      1  N   UNL     1       7.043  -2.698  25.273  0.00  0.00    -0.296 N 
ATOM      2  H   UNL     1       6.453  -3.261  24.668  0.00  0.00    +0.150 HD
ATOM      3  C   UNL     1       7.938  -1.835  24.664  0.00  0.00    +0.268 C 
ATOM      4  O   UNL     1       8.815  -1.196  25.235  0.00  0.00    -0.268 OA
ENDROOT
BRANCH   1   8
ATOM      5  CA  UNL     1       4.555  -5.046  27.702  0.00  0.00    +0.066 C 
ATOM      6  N   UNL     1       5.600  -4.171  27.597  0.00  0.00    -0.253 N 
ATOM      7  C   UNL     1       5.514  -2.739  27.454  0.00  0.00    +0.168 C 
ATOM      8  CA  UNL     1       6.922  -2.807  26.782  0.00  0.00    +0.191 C 
ATOM      9  S   UNL     1       4.209  -2.076  26.419  0.00  0.00    -0.131 S 
ATOM     10  C   UNL     1       3.059  -3.439  26.403  0.00  0.00    +0.110 C 
ATOM     11  C   UNL     1       6.929  -4.279  27.316  0.00  0.00    +0.244 C 
ATOM     12  O   UNL     1       7.754  -5.159  27.230  0.00  0.00    -0.273 OA
ATOM     13  C   UNL     1       3.372  -4.720  27.125  0.00  0.00    +0.028 C 
BRANCH   5  15
ATOM     14  O   UNL     1       4.252  -6.526  29.571  0.00  0.00    -0.543 OA
ATOM     15  C   UNL     1       4.718  -6.468  28.390  0.00  0.00    +0.086 C 
ATOM     16  OXT UNL     1       5.242  -7.376  27.707  0.00  0.00    -0.543 OA
ENDBRANCH   5  15
BRANCH  13  17
ATOM     17  C   UNL     1       2.204  -5.691  27.033  0.00  0.00    +0.391 C 
BRANCH  17  18
ATOM     18  N   UNL     1       1.941  -6.282  25.686  0.00  0.00    -0.200 N 
ATOM     19  C   UNL     1       0.910  -5.784  24.963  0.00  0.00    +0.309 A 
ATOM     20  C   UNL     1       0.752  -6.115  23.621  0.00  0.00    +0.070 A 
ATOM     21  C   UNL     1       1.635  -7.009  23.028  0.00  0.00    +0.012 A 
ATOM     22  C   UNL     1       2.636  -7.586  23.803  0.00  0.00    +0.070 A 
ATOM     23  C   UNL     1       2.762  -7.214  25.143  0.00  0.00    +0.309 A 
ENDBRANCH  17  18
ENDBRANCH  13  17
ENDBRANCH   1   8
BRANCH   3  24
ATOM     24  C   UNL     1       7.829  -1.623  23.168  0.00  0.00    +0.190 C 
ATOM     25  N   UNL     1       7.678  -2.558  22.272  0.00  0.00    -0.077 NA
BRANCH  24  26
ATOM     26  C   UNL     1       7.997  -0.257  22.652  0.00  0.00    +0.107 A 
ATOM     27  N   UNL     1       9.246   0.205  22.234  0.00  0.00    -0.223 NA
ATOM     28  C   UNL     1       9.189   1.479  21.941  0.00  0.00    +0.156 A 
ATOM     29  N   UNL     1      10.259   2.202  21.574  0.00  0.00    -0.338 N 
ATOM     30  H   UNL     1      11.066   1.671  21.265  0.00  0.00    +0.144 HD
ATOM     31  H   UNL     1      10.097   3.051  21.045  0.00  0.00    +0.144 HD
ATOM     32  S   UNL     1       7.635   2.194  22.062  0.00  0.00    -0.060 S 
ATOM     33  C   UNL     1       6.998   0.702  22.606  0.00  0.00    +0.078 A 
ENDBRANCH  24  26
BRANCH  25  34
ATOM     34  O   UNL     1       7.667  -3.872  22.766  0.00  0.00    -0.376 OA
BRANCH  34  35
ATOM     35  C   UNL     1       6.542  -4.594  22.214  0.00  0.00    +0.228 C 
ATOM     36  C   UNL     1       7.044  -6.001  21.872  0.00  0.00    +0.070 C 
ATOM     37  C   UNL     1       6.081  -3.887  20.935  0.00  0.00    +0.070 C 
BRANCH  35  38
ATOM     38  C   UNL     1       5.337  -4.789  23.169  0.00  0.00    +0.351 C 
ATOM     39  O   UNL     1       4.183  -4.489  22.890  0.00  0.00    -0.246 OA
BRANCH  38  40
ATOM     40  O   UNL     1       5.658  -5.371  24.348  0.00  0.00    -0.478 OA
ATOM     41  H   UNL     1       4.849  -5.808  24.706  0.00  0.00    +0.295 HD
ENDBRANCH  38  40
ENDBRANCH  35  38
ENDBRANCH  34  35
ENDBRANCH  25  34
ENDBRANCH   3  24
TORSDOF 10
ENDMDL
MODEL 3
REMARK VINA RESULT:      -7.1      3.850      9.610
REMARK  Name = 
REMARK  12 active torsions:
REMARK  status: ('A' for Active; 'I' for Inactive)
REMARK    1  A    between atoms: C_2  and  CA_4
REMARK    2  A    between atoms: C_5  and  C_33
REMARK    3  A    between atoms: CA_10  and  N_12
REMARK    4  A    between atoms: C_13  and  C_15
REMARK    5  A    between atoms: C_15  and  C_24
REMARK    6  A    between atoms: N_16  and  O_17
REMARK    7  A    between atoms: O_17  and  C_18
REMARK    8  A    between atoms: C_18  and  C_19
REMARK    9  A    between atoms: C_18  and  C_20
REMARK   10  A    between atoms: C_18  and  C_21
REMARK   11  A    between atoms: C_21  and  O_22
REMARK   12  A    between atoms: C_33  and  N_34
REMARK                            x       y       z     vdW  Elec       q    Type
REMARK                         _______ _______ _______ _____ _____    ______ ____
ROOT
ATOM      1  N   UNL     1       9.423   1.035  23.839  0.00  0.00    -0.296 N 
ATOM      2  H   UNL     1       8.812   1.302  24.604  0.00  0.00    +0.150 HD
ATOM      3  C   UNL     1       9.724   2.005  22.897  0.00  0.00    +0.268 C 
ATOM      4  O   UNL     1      10.322   1.815  21.843  0.00  0.00    -0.268 OA
ENDROOT
BRANCH   1   8
ATOM      5  CA  UNL     1       7.538  -2.712  23.928  0.00  0.00    +0.066 C 
ATOM      6  N   UNL     1       8.681  -1.981  23.757  0.00  0.00    -0.253 N 
ATOM      7  C   UNL     1       9.527  -1.448  24.796  0.00  0.00    +0.168 C 
ATOM      8  CA  UNL     1       9.981  -0.374  23.757  0.00  0.00    +0.191 C 
ATOM      9  S   UNL     1       8.739  -0.798  26.269  0.00  0.00    -0.131 S 
ATOM     10  C   UNL     1       7.152  -1.608  26.195  0.00  0.00    +0.110 C 
ATOM     11  C   UNL     1       9.244  -1.291  22.725  0.00  0.00    +0.244 C 
ATOM     12  O   UNL     1       9.088  -1.190  21.530  0.00  0.00    -0.273 OA
ATOM     13  C   UNL     1       6.807  -2.525  25.054  0.00  0.00    +0.028 C 
BRANCH   5  15
ATOM     14  O   UNL     1       6.213  -3.142  21.970  0.00  0.00    -0.543 OA
ATOM     15  C   UNL     1       6.996  -3.695  22.804  0.00  0.00    +0.086 C 
ATOM     16  OXT UNL     1       7.410  -4.876  22.830  0.00  0.00    -0.543 OA
ENDBRANCH   5  15
BRANCH  13  17
ATOM     17  C   UNL     1       5.439  -3.156  25.264  0.00  0.00    +0.391 C 
BRANCH  17  18
ATOM     18  N   UNL     1       5.421  -4.485  25.946  0.00  0.00    -0.200 N 
ATOM     19  C   UNL     1       5.797  -4.538  27.246  0.00  0.00    +0.309 A 
ATOM     20  C   UNL     1       5.582  -5.684  28.006  0.00  0.00    +0.070 A 
ATOM     21  C   UNL     1       5.020  -6.806  27.410  0.00  0.00    +0.012 A 
ATOM     22  C   UNL     1       4.723  -6.772  26.051  0.00  0.00    +0.070 A 
ATOM     23  C   UNL     1       4.945  -5.596  25.332  0.00  0.00    +0.309 A 
ENDBRANCH  17  18
ENDBRANCH  13  17
ENDBRANCH   1   8
BRANCH   3  24
ATOM     24  C   UNL     1       9.315   3.435  23.181  0.00  0.00    +0.190 C 
ATOM     25  N   UNL     1       8.104   3.914  23.103  0.00  0.00    -0.077 NA
BRANCH  24  26
ATOM     26  C   UNL     1      10.374   4.407  23.483  0.00  0.00    +0.107 A 
ATOM     27  N   UNL     1      11.669   4.235  22.991  0.00  0.00    -0.223 NA
ATOM     28  C   UNL     1      12.473   5.140  23.490  0.00  0.00    +0.156 A 
ATOM     29  N   UNL     1      13.792   5.173  23.242  0.00  0.00    -0.338 N 
ATOM     30  H   UNL     1      14.105   4.640  22.438  0.00  0.00    +0.144 HD
ATOM     31  H   UNL     1      14.273   6.057  23.362  0.00  0.00    +0.144 HD
ATOM     32  S   UNL     1      11.732   6.304  24.507  0.00  0.00    -0.060 S 
ATOM     33  C   UNL     1      10.231   5.503  24.317  0.00  0.00    +0.078 A 
ENDBRANCH  24  26
BRANCH  25  34
ATOM     34  O   UNL     1       7.123   3.009  22.670  0.00  0.00    -0.376 OA
BRANCH  34  35
ATOM     35  C   UNL     1       6.076   2.907  23.664  0.00  0.00    +0.228 C 
ATOM     36  C   UNL     1       4.802   3.471  23.023  0.00  0.00    +0.070 C 
ATOM     37  C   UNL     1       6.463   3.761  24.876  0.00  0.00    +0.070 C 
BRANCH  35  38
ATOM     38  C   UNL     1       5.725   1.470  24.124  0.00  0.00    +0.351 C 
ATOM     39  O   UNL     1       4.952   1.210  25.038  0.00  0.00    -0.246 OA
BRANCH  38  40
ATOM     40  O   UNL     1       6.319   0.498  23.393  0.00  0.00    -0.478 OA
ATOM     41  H   UNL     1       7.245   0.780  23.203  0.00  0.00    +0.295 HD
ENDBRANCH  38  40
ENDBRANCH  35  38
ENDBRANCH  34  35
ENDBRANCH  25  34
ENDBRANCH   3  24
TORSDOF 10
ENDMDL
MODEL 4
REMARK VINA RESULT:      -7.1      3.105      5.258
REMARK  Name = 
REMARK  12 active torsions:
REMARK  status: ('A' for Active; 'I' for Inactive)
REMARK    1  A    between atoms: C_2  and  CA_4
REMARK    2  A    between atoms: C_5  and  C_33
REMARK    3  A    between atoms: CA_10  and  N_12
REMARK    4  A    between atoms: C_13  and  C_15
REMARK    5  A    between atoms: C_15  and  C_24
REMARK    6  A    between atoms: N_16  and  O_17
REMARK    7  A    between atoms: O_17  and  C_18
REMARK    8  A    between atoms: C_18  and  C_19
REMARK    9  A    between atoms: C_18  and  C_20
REMARK   10  A    between atoms: C_18  and  C_21
REMARK   11  A    between atoms: C_21  and  O_22
REMARK   12  A    between atoms: C_33  and  N_34
REMARK                            x       y       z     vdW  Elec       q    Type
REMARK                         _______ _______ _______ _____ _____    ______ ____
ROOT
ATOM      1  N   UNL     1       8.528  -2.669  24.889  0.00  0.00    -0.296 N 
ATOM      2  H   UNL     1       7.696  -2.405  24.371  0.00  0.00    +0.150 HD
ATOM      3  C   UNL     1       8.412  -3.717  25.786  0.00  0.00    +0.268 C 
ATOM      4  O   UNL     1       9.269  -4.067  26.590  0.00  0.00    -0.268 OA
ENDROOT
BRANCH   1   8
ATOM      5  CA  UNL     1       9.350   1.165  23.398  0.00  0.00    +0.066 C 
ATOM      6  N   UNL     1       9.805   0.011  23.973  0.00  0.00    -0.253 N 
ATOM      7  C   UNL     1      10.105  -1.228  23.299  0.00  0.00    +0.168 C 
ATOM      8  CA  UNL     1       9.838  -1.936  24.665  0.00  0.00    +0.191 C 
ATOM      9  S   UNL     1       9.031  -1.734  21.956  0.00  0.00    -0.131 S 
ATOM     10  C   UNL     1       8.285  -0.178  21.509  0.00  0.00    +0.110 C 
ATOM     11  C   UNL     1       9.860  -0.482  25.243  0.00  0.00    +0.244 C 
ATOM     12  O   UNL     1       9.718  -0.064  26.368  0.00  0.00    -0.273 OA
ATOM     13  C   UNL     1       8.619   1.082  22.259  0.00  0.00    +0.028 C 
BRANCH   5  15
ATOM     14  O   UNL     1       8.763   2.830  25.028  0.00  0.00    -0.543 OA
ATOM     15  C   UNL     1       9.569   2.584  24.078  0.00  0.00    +0.086 C 
ATOM     16  OXT UNL     1      10.512   3.285  23.646  0.00  0.00    -0.543 OA
ENDBRANCH   5  15
BRANCH  13  17
ATOM     17  C   UNL     1       7.923   2.282  21.636  0.00  0.00    +0.391 C 
BRANCH  17  18
ATOM     18  N   UNL     1       6.771   2.850  22.401  0.00  0.00    -0.200 N 
ATOM     19  C   UNL     1       5.965   1.990  23.068  0.00  0.00    +0.309 A 
ATOM     20  C   UNL     1       5.027   2.455  23.984  0.00  0.00    +0.070 A 
ATOM     21  C   UNL     1       4.880   3.823  24.180  0.00  0.00    +0.012 A 
ATOM     22  C   UNL     1       5.649   4.701  23.423  0.00  0.00    +0.070 A 
ATOM     23  C   UNL     1       6.586   4.187  22.524  0.00  0.00    +0.309 A 
ENDBRANCH  17  18
ENDBRANCH  13  17
ENDBRANCH   1   8
BRANCH   3  24
ATOM     24  C   UNL     1       7.137  -4.536  25.777  0.00  0.00    +0.190 C 
ATOM     25  N   UNL     1       6.523  -4.982  24.717  0.00  0.00    -0.077 NA
BRANCH  24  26
ATOM     26  C   UNL     1       6.468  -4.782  27.061  0.00  0.00    +0.107 A 
ATOM     27  N   UNL     1       6.868  -5.832  27.890  0.00  0.00    -0.223 NA
ATOM     28  C   UNL     1       6.055  -5.946  28.910  0.00  0.00    +0.156 A 
ATOM     29  N   UNL     1       6.160  -6.914  29.834  0.00  0.00    -0.338 N 
ATOM     30  H   UNL     1       7.053  -7.394  29.872  0.00  0.00    +0.144 HD
ATOM     31  H   UNL     1       5.742  -6.747  30.742  0.00  0.00    +0.144 HD
ATOM     32  S   UNL     1       4.813  -4.767  28.998  0.00  0.00    -0.060 S 
ATOM     33  C   UNL     1       5.365  -4.086  27.528  0.00  0.00    +0.078 A 
ENDBRANCH  24  26
BRANCH  25  34
ATOM     34  O   UNL     1       7.093  -4.614  23.488  0.00  0.00    -0.376 OA
BRANCH  34  35
ATOM     35  C   UNL     1       6.140  -4.828  22.421  0.00  0.00    +0.228 C 
ATOM     36  C   UNL     1       6.814  -5.759  21.406  0.00  0.00    +0.070 C 
ATOM     37  C   UNL     1       5.831  -3.481  21.759  0.00  0.00    +0.070 C 
BRANCH  35  38
ATOM     38  C   UNL     1       4.819  -5.526  22.832  0.00  0.00    +0.351 C 
ATOM     39  O   UNL     1       3.722  -4.984  22.819  0.00  0.00    -0.246 OA
BRANCH  38  40
ATOM     40  O   UNL     1       4.969  -6.828  23.173  0.00  0.00    -0.478 OA
ATOM     41  H   UNL     1       5.329  -6.865  24.091  0.00  0.00    +0.295 HD
ENDBRANCH  38  40
ENDBRANCH  35  38
ENDBRANCH  34  35
ENDBRANCH  25  34
ENDBRANCH   3  24
TORSDOF 10
ENDMDL
MODEL 5
REMARK VINA RESULT:      -6.9      3.330      8.972
REMARK  Name = 
REMARK  12 active torsions:
REMARK  status: ('A' for Active; 'I' for Inactive)
REMARK    1  A    between atoms: C_2  and  CA_4
REMARK    2  A    between atoms: C_5  and  C_33
REMARK    3  A    between atoms: CA_10  and  N_12
REMARK    4  A    between atoms: C_13  and  C_15
REMARK    5  A    between atoms: C_15  and  C_24
REMARK    6  A    between atoms: N_16  and  O_17
REMARK    7  A    between atoms: O_17  and  C_18
REMARK    8  A    between atoms: C_18  and  C_19
REMARK    9  A    between atoms: C_18  and  C_20
REMARK   10  A    between atoms: C_18  and  C_21
REMARK   11  A    between atoms: C_21  and  O_22
REMARK   12  A    between atoms: C_33  and  N_34
REMARK                            x       y       z     vdW  Elec       q    Type
REMARK                         _______ _______ _______ _____ _____    ______ ____
ROOT
ATOM      1  N   UNL     1       8.789   0.414  24.050  0.00  0.00    -0.296 N 
ATOM      2  H   UNL     1       7.779   0.335  24.098  0.00  0.00    +0.150 HD
ATOM      3  C   UNL     1       9.343   1.652  24.330  0.00  0.00    +0.268 C 
ATOM      4  O   UNL     1      10.522   1.957  24.180  0.00  0.00    -0.268 OA
ENDROOT
BRANCH   1   8
ATOM      5  CA  UNL     1       7.890  -3.682  23.926  0.00  0.00    +0.066 C 
ATOM      6  N   UNL     1       8.777  -2.670  23.681  0.00  0.00    -0.253 N 
ATOM      7  C   UNL     1       9.648  -2.037  24.639  0.00  0.00    +0.168 C 
ATOM      8  CA  UNL     1       9.639  -0.792  23.696  0.00  0.00    +0.191 C 
ATOM      9  S   UNL     1       9.010  -1.747  26.289  0.00  0.00    -0.131 S 
ATOM     10  C   UNL     1       7.673  -2.925  26.352  0.00  0.00    +0.110 C 
ATOM     11  C   UNL     1       8.964  -1.769  22.676  0.00  0.00    +0.244 C 
ATOM     12  O   UNL     1       8.574  -1.601  21.544  0.00  0.00    -0.273 OA
ATOM     13  C   UNL     1       7.352  -3.791  25.165  0.00  0.00    +0.028 C 
BRANCH   5  15
ATOM     14  O   UNL     1       6.505  -4.167  22.022  0.00  0.00    -0.543 OA
ATOM     15  C   UNL     1       7.399  -4.663  22.777  0.00  0.00    +0.086 C 
ATOM     16  OXT UNL     1       7.952  -5.784  22.709  0.00  0.00    -0.543 OA
ENDBRANCH   5  15
BRANCH  13  17
ATOM     17  C   UNL     1       6.233  -4.766  25.496  0.00  0.00    +0.391 C 
BRANCH  17  18
ATOM     18  N   UNL     1       4.865  -4.180  25.636  0.00  0.00    -0.200 N 
ATOM     19  C   UNL     1       4.045  -4.213  24.558  0.00  0.00    +0.309 A 
ATOM     20  C   UNL     1       2.694  -3.906  24.679  0.00  0.00    +0.070 A 
ATOM     21  C   UNL     1       2.188  -3.512  25.911  0.00  0.00    +0.012 A 
ATOM     22  C   UNL     1       3.056  -3.392  26.992  0.00  0.00    +0.070 A 
ATOM     23  C   UNL     1       4.403  -3.723  26.825  0.00  0.00    +0.309 A 
ENDBRANCH  17  18
ENDBRANCH  13  17
ENDBRANCH   1   8
BRANCH   3  24
ATOM     24  C   UNL     1       8.444   2.732  24.896  0.00  0.00    +0.190 C 
ATOM     25  N   UNL     1       7.577   2.579  25.857  0.00  0.00    -0.077 NA
BRANCH  24  26
ATOM     26  C   UNL     1       8.473   4.056  24.258  0.00  0.00    +0.107 A 
ATOM     27  N   UNL     1       7.717   4.318  23.114  0.00  0.00    -0.223 NA
ATOM     28  C   UNL     1       7.995   5.508  22.644  0.00  0.00    +0.156 A 
ATOM     29  N   UNL     1       7.465   5.998  21.513  0.00  0.00    -0.338 N 
ATOM     30  H   UNL     1       6.632   5.527  21.175  0.00  0.00    +0.144 HD
ATOM     31  H   UNL     1       7.445   7.005  21.398  0.00  0.00    +0.144 HD
ATOM     32  S   UNL     1       9.106   6.425  23.573  0.00  0.00    -0.060 S 
ATOM     33  C   UNL     1       9.277   5.110  24.655  0.00  0.00    +0.078 A 
ENDBRANCH  24  26
BRANCH  25  34
ATOM     34  O   UNL     1       7.455   1.273  26.359  0.00  0.00    -0.376 OA
BRANCH  34  35
ATOM     35  C   UNL     1       6.063   0.880  26.370  0.00  0.00    +0.228 C 
ATOM     36  C   UNL     1       5.242   2.165  26.535  0.00  0.00    +0.070 C 
ATOM     37  C   UNL     1       5.820  -0.043  27.569  0.00  0.00    +0.070 C 
BRANCH  35  38
ATOM     38  C   UNL     1       5.545   0.205  25.075  0.00  0.00    +0.351 C 
ATOM     39  O   UNL     1       5.042  -0.911  25.035  0.00  0.00    -0.246 OA
BRANCH  38  40
ATOM     40  O   UNL     1       5.657   0.978  23.969  0.00  0.00    -0.478 OA
ATOM     41  H   UNL     1       4.823   1.497  23.873  0.00  0.00    +0.295 HD
ENDBRANCH  38  40
ENDBRANCH  35  38
ENDBRANCH  34  35
ENDBRANCH  25  34
ENDBRANCH   3  24
TORSDOF 10
ENDMDL
MODEL 6
REMARK VINA RESULT:      -6.8      2.788      4.496
REMARK  Name = 
REMARK  12 active torsions:
REMARK  status: ('A' for Active; 'I' for Inactive)
REMARK    1  A    between atoms: C_2  and  CA_4
REMARK    2  A    between atoms: C_5  and  C_33
REMARK    3  A    between atoms: CA_10  and  N_12
REMARK    4  A    between atoms: C_13  and  C_15
REMARK    5  A    between atoms: C_15  and  C_24
REMARK    6  A    between atoms: N_16  and  O_17
REMARK    7  A    between atoms: O_17  and  C_18
REMARK    8  A    between atoms: C_18  and  C_19
REMARK    9  A    between atoms: C_18  and  C_20
REMARK   10  A    between atoms: C_18  and  C_21
REMARK   11  A    between atoms: C_21  and  O_22
REMARK   12  A    between atoms: C_33  and  N_34
REMARK                            x       y       z     vdW  Elec       q    Type
REMARK                         _______ _______ _______ _____ _____    ______ ____
ROOT
ATOM      1  N   UNL     1       7.377  -3.248  25.796  0.00  0.00    -0.296 N 
ATOM      2  H   UNL     1       6.702  -2.773  25.205  0.00  0.00    +0.150 HD
ATOM      3  C   UNL     1       6.912  -4.291  26.579  0.00  0.00    +0.268 C 
ATOM      4  O   UNL     1       7.554  -4.872  27.448  0.00  0.00    -0.268 OA
ENDROOT
BRANCH   1   8
ATOM      5  CA  UNL     1       9.316   0.022  24.023  0.00  0.00    +0.066 C 
ATOM      6  N   UNL     1       9.375  -1.065  24.849  0.00  0.00    -0.253 N 
ATOM      7  C   UNL     1       9.530  -2.442  24.452  0.00  0.00    +0.168 C 
ATOM      8  CA  UNL     1       8.833  -2.820  25.797  0.00  0.00    +0.191 C 
ATOM      9  S   UNL     1       8.678  -2.990  22.973  0.00  0.00    -0.131 S 
ATOM     10  C   UNL     1       8.403  -1.437  22.141  0.00  0.00    +0.110 C 
ATOM     11  C   UNL     1       9.052  -1.311  26.151  0.00  0.00    +0.244 C 
ATOM     12  O   UNL     1       8.773  -0.670  27.137  0.00  0.00    -0.273 OA
ATOM     13  C   UNL     1       8.841  -0.140  22.764  0.00  0.00    +0.028 C 
BRANCH   5  15
ATOM     14  O   UNL     1      10.833   1.883  24.133  0.00  0.00    -0.543 OA
ATOM     15  C   UNL     1       9.694   1.480  24.528  0.00  0.00    +0.086 C 
ATOM     16  OXT UNL     1       8.842   2.086  25.215  0.00  0.00    -0.543 OA
ENDBRANCH   5  15
BRANCH  13  17
ATOM     17  C   UNL     1       8.573   1.027  21.826  0.00  0.00    +0.391 C 
BRANCH  17  18
ATOM     18  N   UNL     1       7.564   2.029  22.288  0.00  0.00    -0.200 N 
ATOM     19  C   UNL     1       7.856   3.342  22.135  0.00  0.00    +0.309 A 
ATOM     20  C   UNL     1       6.880   4.317  22.320  0.00  0.00    +0.070 A 
ATOM     21  C   UNL     1       5.603   3.941  22.716  0.00  0.00    +0.012 A 
ATOM     22  C   UNL     1       5.339   2.597  22.961  0.00  0.00    +0.070 A 
ATOM     23  C   UNL     1       6.346   1.654  22.750  0.00  0.00    +0.309 A 
ENDBRANCH  17  18
ENDBRANCH  13  17
ENDBRANCH   1   8
BRANCH   3  24
ATOM     24  C   UNL     1       5.504  -4.797  26.343  0.00  0.00    +0.190 C 
ATOM     25  N   UNL     1       5.082  -5.414  25.276  0.00  0.00    -0.077 NA
BRANCH  24  26
ATOM     26  C   UNL     1       4.485  -4.494  27.358  0.00  0.00    +0.107 A 
ATOM     27  N   UNL     1       3.458  -5.397  27.637  0.00  0.00    -0.223 NA
ATOM     28  C   UNL     1       2.597  -4.869  28.470  0.00  0.00    +0.156 A 
ATOM     29  N   UNL     1       1.473  -5.488  28.862  0.00  0.00    -0.338 N 
ATOM     30  H   UNL     1       1.443  -6.491  28.707  0.00  0.00    +0.144 HD
ATOM     31  H   UNL     1       1.050  -5.194  29.735  0.00  0.00    +0.144 HD
ATOM     32  S   UNL     1       2.992  -3.302  29.042  0.00  0.00    -0.060 S 
ATOM     33  C   UNL     1       4.390  -3.301  28.055  0.00  0.00    +0.078 A 
ENDBRANCH  24  26
BRANCH  25  34
ATOM     34  O   UNL     1       6.029  -5.567  24.251  0.00  0.00    -0.376 OA
BRANCH  34  35
ATOM     35  C   UNL     1       5.418  -5.282  22.971  0.00  0.00    +0.228 C 
ATOM     36  C   UNL     1       3.989  -5.835  23.030  0.00  0.00    +0.070 C 
ATOM     37  C   UNL     1       6.206  -6.008  21.876  0.00  0.00    +0.070 C 
BRANCH  35  38
ATOM     38  C   UNL     1       5.282  -3.781  22.612  0.00  0.00    +0.351 C 
ATOM     39  O   UNL     1       5.300  -3.342  21.469  0.00  0.00    -0.246 OA
BRANCH  38  40
ATOM     40  O   UNL     1       5.095  -2.974  23.684  0.00  0.00    -0.478 OA
ATOM     41  H   UNL     1       4.420  -3.393  24.269  0.00  0.00    +0.295 HD
ENDBRANCH  38  40
ENDBRANCH  35  38
ENDBRANCH  34  35
ENDBRANCH  25  34
ENDBRANCH   3  24
TORSDOF 10
ENDMDL
MODEL 7
REMARK VINA RESULT:      -6.8      4.407      6.998
REMARK  Name = 
REMARK  12 active torsions:
REMARK  status: ('A' for Active; 'I' for Inactive)
REMARK    1  A    between atoms: C_2  and  CA_4
REMARK    2  A    between atoms: C_5  and  C_33
REMARK    3  A    between atoms: CA_10  and  N_12
REMARK    4  A    between atoms: C_13  and  C_15
REMARK    5  A    between atoms: C_15  and  C_24
REMARK    6  A    between atoms: N_16  and  O_17
REMARK    7  A    between atoms: O_17  and  C_18
REMARK    8  A    between atoms: C_18  and  C_19
REMARK    9  A    between atoms: C_18  and  C_20
REMARK   10  A    between atoms: C_18  and  C_21
REMARK   11  A    between atoms: C_21  and  O_22
REMARK   12  A    between atoms: C_33  and  N_34
REMARK                            x       y       z     vdW  Elec       q    Type
REMARK                         _______ _______ _______ _____ _____    ______ ____
ROOT
ATOM      1  N   UNL     1       6.402   1.022  24.398  0.00  0.00    -0.296 N 
ATOM      2  H   UNL     1       7.321   1.310  24.076  0.00  0.00    +0.150 HD
ATOM      3  C   UNL     1       6.243  -0.305  24.760  0.00  0.00    +0.268 C 
ATOM      4  O   UNL     1       5.177  -0.847  25.031  0.00  0.00    -0.268 OA
ENDROOT
BRANCH   1   8
ATOM      5  CA  UNL     1       6.375   5.212  24.179  0.00  0.00    +0.066 C 
ATOM      6  N   UNL     1       5.676   4.039  24.242  0.00  0.00    -0.253 N 
ATOM      7  C   UNL     1       5.397   3.264  25.426  0.00  0.00    +0.168 C 
ATOM      8  CA  UNL     1       5.268   2.027  24.482  0.00  0.00    +0.191 C 
ATOM      9  S   UNL     1       6.682   3.142  26.670  0.00  0.00    -0.131 S 
ATOM     10  C   UNL     1       7.681   4.565  26.272  0.00  0.00    +0.110 C 
ATOM     11  C   UNL     1       5.280   3.097  23.340  0.00  0.00    +0.244 C 
ATOM     12  O   UNL     1       5.211   2.987  22.138  0.00  0.00    -0.273 OA
ATOM     13  C   UNL     1       7.330   5.452  25.110  0.00  0.00    +0.028 C 
BRANCH   5  15
ATOM     14  O   UNL     1       6.939   6.053  21.999  0.00  0.00    -0.543 OA
ATOM     15  C   UNL     1       6.170   6.248  22.992  0.00  0.00    +0.086 C 
ATOM     16  OXT UNL     1       5.271   7.107  23.132  0.00  0.00    -0.543 OA
ENDBRANCH   5  15
BRANCH  13  17
ATOM     17  C   UNL     1       8.279   6.638  25.031  0.00  0.00    +0.391 C 
BRANCH  17  18
ATOM     18  N   UNL     1       9.725   6.316  24.834  0.00  0.00    -0.200 N 
ATOM     19  C   UNL     1      10.057   5.464  23.835  0.00  0.00    +0.309 A 
ATOM     20  C   UNL     1      11.382   5.304  23.443  0.00  0.00    +0.070 A 
ATOM     21  C   UNL     1      12.384   5.988  24.119  0.00  0.00    +0.012 A 
ATOM     22  C   UNL     1      12.042   6.790  25.204  0.00  0.00    +0.070 A 
ATOM     23  C   UNL     1      10.698   6.929  25.553  0.00  0.00    +0.309 A 
ENDBRANCH  17  18
ENDBRANCH  13  17
ENDBRANCH   1   8
BRANCH   3  24
ATOM     24  C   UNL     1       7.477  -1.176  24.865  0.00  0.00    +0.190 C 
ATOM     25  N   UNL     1       8.712  -0.764  24.797  0.00  0.00    -0.077 NA
BRANCH  24  26
ATOM     26  C   UNL     1       7.287  -2.630  24.961  0.00  0.00    +0.107 A 
ATOM     27  N   UNL     1       6.940  -3.385  23.840  0.00  0.00    -0.223 NA
ATOM     28  C   UNL     1       6.695  -4.625  24.180  0.00  0.00    +0.156 A 
ATOM     29  N   UNL     1       6.274  -5.560  23.314  0.00  0.00    -0.338 N 
ATOM     30  H   UNL     1       6.413  -5.347  22.331  0.00  0.00    +0.144 HD
ATOM     31  H   UNL     1       6.436  -6.532  23.551  0.00  0.00    +0.144 HD
ATOM     32  S   UNL     1       6.940  -4.997  25.836  0.00  0.00    -0.060 S 
ATOM     33  C   UNL     1       7.347  -3.362  26.135  0.00  0.00    +0.078 A 
ENDBRANCH  24  26
BRANCH  25  34
ATOM     34  O   UNL     1       8.879   0.609  24.557  0.00  0.00    -0.376 OA
BRANCH  34  35
ATOM     35  C   UNL     1       9.821   0.808  23.479  0.00  0.00    +0.228 C 
ATOM     36  C   UNL     1      10.326  -0.581  23.071  0.00  0.00    +0.070 C 
ATOM     37  C   UNL     1      10.992   1.651  23.995  0.00  0.00    +0.070 C 
BRANCH  35  38
ATOM     38  C   UNL     1       9.243   1.448  22.191  0.00  0.00    +0.351 C 
ATOM     39  O   UNL     1       8.103   1.263  21.783  0.00  0.00    -0.246 OA
BRANCH  38  40
ATOM     40  O   UNL     1      10.101   2.282  21.558  0.00  0.00    -0.478 OA
ATOM     41  H   UNL     1      10.296   3.038  22.161  0.00  0.00    +0.295 HD
ENDBRANCH  38  40
ENDBRANCH  35  38
ENDBRANCH  34  35
ENDBRANCH  25  34
ENDBRANCH   3  24
TORSDOF 10
ENDMDL
MODEL 8
REMARK VINA RESULT:      -6.7      3.398      5.018
REMARK  Name = 
REMARK  12 active torsions:
REMARK  status: ('A' for Active; 'I' for Inactive)
REMARK    1  A    between atoms: C_2  and  CA_4
REMARK    2  A    between atoms: C_5  and  C_33
REMARK    3  A    between atoms: CA_10  and  N_12
REMARK    4  A    between atoms: C_13  and  C_15
REMARK    5  A    between atoms: C_15  and  C_24
REMARK    6  A    between atoms: N_16  and  O_17
REMARK    7  A    between atoms: O_17  and  C_18
REMARK    8  A    between atoms: C_18  and  C_19
REMARK    9  A    between atoms: C_18  and  C_20
REMARK   10  A    between atoms: C_18  and  C_21
REMARK   11  A    between atoms: C_21  and  O_22
REMARK   12  A    between atoms: C_33  and  N_34
REMARK                            x       y       z     vdW  Elec       q    Type
REMARK                         _______ _______ _______ _____ _____    ______ ____
ROOT
ATOM      1  N   UNL     1       7.820  -2.701  25.401  0.00  0.00    -0.296 N 
ATOM      2  H   UNL     1       6.934  -2.647  24.910  0.00  0.00    +0.150 HD
ATOM      3  C   UNL     1       8.029  -3.803  26.215  0.00  0.00    +0.268 C 
ATOM      4  O   UNL     1       8.972  -3.954  26.984  0.00  0.00    -0.268 OA
ENDROOT
BRANCH   1   8
ATOM      5  CA  UNL     1       7.468   1.465  25.058  0.00  0.00    +0.066 C 
ATOM      6  N   UNL     1       8.270   0.364  25.179  0.00  0.00    -0.253 N 
ATOM      7  C   UNL     1       8.675  -0.528  24.121  0.00  0.00    +0.168 C 
ATOM      8  CA  UNL     1       8.865  -1.614  25.226  0.00  0.00    +0.191 C 
ATOM      9  S   UNL     1       7.469  -0.931  22.857  0.00  0.00    -0.131 S 
ATOM     10  C   UNL     1       6.330   0.431  23.023  0.00  0.00    +0.110 C 
ATOM     11  C   UNL     1       8.702  -0.411  26.214  0.00  0.00    +0.244 C 
ATOM     12  O   UNL     1       8.720  -0.356  27.421  0.00  0.00    -0.273 OA
ATOM     13  C   UNL     1       6.543   1.492  24.067  0.00  0.00    +0.028 C 
BRANCH   5  15
ATOM     14  O   UNL     1       6.882   2.436  27.177  0.00  0.00    -0.543 OA
ATOM     15  C   UNL     1       7.522   2.661  26.102  0.00  0.00    +0.086 C 
ATOM     16  OXT UNL     1       8.202   3.663  25.788  0.00  0.00    -0.543 OA
ENDBRANCH   5  15
BRANCH  13  17
ATOM     17  C   UNL     1       5.491   2.583  23.951  0.00  0.00    +0.391 C 
BRANCH  17  18
ATOM     18  N   UNL     1       5.949   3.885  23.377  0.00  0.00    -0.200 N 
ATOM     19  C   UNL     1       5.458   5.026  23.916  0.00  0.00    +0.309 A 
ATOM     20  C   UNL     1       6.011   6.262  23.599  0.00  0.00    +0.070 A 
ATOM     21  C   UNL     1       7.049   6.332  22.678  0.00  0.00    +0.012 A 
ATOM     22  C   UNL     1       7.486   5.164  22.061  0.00  0.00    +0.070 A 
ATOM     23  C   UNL     1       6.908   3.945  22.421  0.00  0.00    +0.309 A 
ENDBRANCH  17  18
ENDBRANCH  13  17
ENDBRANCH   1   8
BRANCH   3  24
ATOM     24  C   UNL     1       7.036  -4.944  26.150  0.00  0.00    +0.190 C 
ATOM     25  N   UNL     1       6.714  -5.617  25.080  0.00  0.00    -0.077 NA
BRANCH  24  26
ATOM     26  C   UNL     1       6.290  -5.279  27.371  0.00  0.00    +0.107 A 
ATOM     27  N   UNL     1       6.882  -6.026  28.391  0.00  0.00    -0.223 NA
ATOM     28  C   UNL     1       6.002  -6.317  29.316  0.00  0.00    +0.156 A 
ATOM     29  N   UNL     1       6.276  -7.083  30.383  0.00  0.00    -0.338 N 
ATOM     30  H   UNL     1       7.260  -7.206  30.597  0.00  0.00    +0.144 HD
ATOM     31  H   UNL     1       5.686  -6.983  31.201  0.00  0.00    +0.144 HD
ATOM     32  S   UNL     1       4.438  -5.655  29.078  0.00  0.00    -0.060 S 
ATOM     33  C   UNL     1       4.958  -4.977  27.595  0.00  0.00    +0.078 A 
ENDBRANCH  24  26
BRANCH  25  34
ATOM     34  O   UNL     1       7.324  -5.190  23.891  0.00  0.00    -0.376 OA
BRANCH  34  35
ATOM     35  C   UNL     1       6.366  -5.227  22.807  0.00  0.00    +0.228 C 
ATOM     36  C   UNL     1       5.322  -6.287  23.176  0.00  0.00    +0.070 C 
ATOM     37  C   UNL     1       7.090  -5.642  21.522  0.00  0.00    +0.070 C 
BRANCH  35  38
ATOM     38  C   UNL     1       5.577  -3.915  22.564  0.00  0.00    +0.351 C 
ATOM     39  O   UNL     1       5.330  -3.457  21.456  0.00  0.00    -0.246 OA
BRANCH  38  40
ATOM     40  O   UNL     1       5.135  -3.322  23.698  0.00  0.00    -0.478 OA
ATOM     41  H   UNL     1       4.458  -3.911  24.108  0.00  0.00    +0.295 HD
ENDBRANCH  38  40
ENDBRANCH  35  38
ENDBRANCH  34  35
ENDBRANCH  25  34
ENDBRANCH   3  24
TORSDOF 10
ENDMDL
MODEL 9
REMARK VINA RESULT:      -6.6      3.126      4.520
REMARK  Name = 
REMARK  12 active torsions:
REMARK  status: ('A' for Active; 'I' for Inactive)
REMARK    1  A    between atoms: C_2  and  CA_4
REMARK    2  A    between atoms: C_5  and  C_33
REMARK    3  A    between atoms: CA_10  and  N_12
REMARK    4  A    between atoms: C_13  and  C_15
REMARK    5  A    between atoms: C_15  and  C_24
REMARK    6  A    between atoms: N_16  and  O_17
REMARK    7  A    between atoms: O_17  and  C_18
REMARK    8  A    between atoms: C_18  and  C_19
REMARK    9  A    between atoms: C_18  and  C_20
REMARK   10  A    between atoms: C_18  and  C_21
REMARK   11  A    between atoms: C_21  and  O_22
REMARK   12  A    between atoms: C_33  and  N_34
REMARK                            x       y       z     vdW  Elec       q    Type
REMARK                         _______ _______ _______ _____ _____    ______ ____
ROOT
ATOM      1  N   UNL     1       6.296  -5.464  25.047  0.00  0.00    -0.296 N 
ATOM      2  H   UNL     1       6.092  -5.240  26.015  0.00  0.00    +0.150 HD
ATOM      3  C   UNL     1       5.369  -6.234  24.364  0.00  0.00    +0.268 C 
ATOM      4  O   UNL     1       5.524  -6.712  23.246  0.00  0.00    -0.268 OA
ENDROOT
BRANCH   1   8
ATOM      5  CA  UNL     1       8.029  -1.645  24.934  0.00  0.00    +0.066 C 
ATOM      6  N   UNL     1       8.117  -2.979  24.646  0.00  0.00    -0.253 N 
ATOM      7  C   UNL     1       7.523  -3.658  23.521  0.00  0.00    +0.168 C 
ATOM      8  CA  UNL     1       7.566  -4.954  24.391  0.00  0.00    +0.191 C 
ATOM      9  S   UNL     1       5.886  -3.145  23.001  0.00  0.00    -0.131 S 
ATOM     10  C   UNL     1       5.799  -1.509  23.704  0.00  0.00    +0.110 C 
ATOM     11  C   UNL     1       8.472  -4.098  25.338  0.00  0.00    +0.244 C 
ATOM     12  O   UNL     1       9.015  -4.365  26.384  0.00  0.00    -0.273 OA
ATOM     13  C   UNL     1       6.938  -0.958  24.518  0.00  0.00    +0.028 C 
BRANCH   5  15
ATOM     14  O   UNL     1      10.030  -0.332  25.153  0.00  0.00    -0.543 OA
ATOM     15  C   UNL     1       9.118  -0.907  25.825  0.00  0.00    +0.086 C 
ATOM     16  OXT UNL     1       8.955  -0.933  27.066  0.00  0.00    -0.543 OA
ENDBRANCH   5  15
BRANCH  13  17
ATOM     17  C   UNL     1       6.660   0.479  24.932  0.00  0.00    +0.391 C 
BRANCH  17  18
ATOM     18  N   UNL     1       6.742   1.506  23.849  0.00  0.00    -0.200 N 
ATOM     19  C   UNL     1       5.654   2.279  23.621  0.00  0.00    +0.309 A 
ATOM     20  C   UNL     1       5.733   3.401  22.802  0.00  0.00    +0.070 A 
ATOM     21  C   UNL     1       6.932   3.705  22.170  0.00  0.00    +0.012 A 
ATOM     22  C   UNL     1       8.019   2.853  22.337  0.00  0.00    +0.070 A 
ATOM     23  C   UNL     1       7.896   1.745  23.178  0.00  0.00    +0.309 A 
ENDBRANCH  17  18
ENDBRANCH  13  17
ENDBRANCH   1   8
BRANCH   3  24
ATOM     24  C   UNL     1       4.031  -6.501  25.022  0.00  0.00    +0.190 C 
ATOM     25  N   UNL     1       3.847  -6.863  26.261  0.00  0.00    -0.077 NA
BRANCH  24  26
ATOM     26  C   UNL     1       2.827  -6.442  24.181  0.00  0.00    +0.107 A 
ATOM     27  N   UNL     1       2.269  -7.603  23.644  0.00  0.00    -0.223 NA
ATOM     28  C   UNL     1       1.290  -7.305  22.827  0.00  0.00    +0.156 A 
ATOM     29  N   UNL     1       0.615  -8.221  22.117  0.00  0.00    -0.338 N 
ATOM     30  H   UNL     1       0.702  -9.181  22.436  0.00  0.00    +0.144 HD
ATOM     31  H   UNL     1      -0.314  -7.978  21.793  0.00  0.00    +0.144 HD
ATOM     32  S   UNL     1       0.913  -5.636  22.707  0.00  0.00    -0.060 S 
ATOM     33  C   UNL     1       2.195  -5.276  23.782  0.00  0.00    +0.078 A 
ENDBRANCH  24  26
BRANCH  25  34
ATOM     34  O   UNL     1       5.015  -7.059  27.014  0.00  0.00    -0.376 OA
BRANCH  34  35
ATOM     35  C   UNL     1       4.957  -6.269  28.224  0.00  0.00    +0.228 C 
ATOM     36  C   UNL     1       4.066  -7.034  29.209  0.00  0.00    +0.070 C 
ATOM     37  C   UNL     1       4.320  -4.914  27.899  0.00  0.00    +0.070 C 
BRANCH  35  38
ATOM     38  C   UNL     1       6.310  -6.052  28.949  0.00  0.00    +0.351 C 
ATOM     39  O   UNL     1       6.426  -5.907  30.159  0.00  0.00    -0.246 OA
BRANCH  38  40
ATOM     40  O   UNL     1       7.385  -6.078  28.126  0.00  0.00    -0.478 OA
ATOM     41  H   UNL     1       7.586  -7.021  27.914  0.00  0.00    +0.295 HD
ENDBRANCH  38  40
ENDBRANCH  35  38
ENDBRANCH  34  35
ENDBRANCH  25  34
ENDBRANCH   3  24
TORSDOF 10
ENDMDL
