MODEL 1
REMARK VINA RESULT:      -6.5      0.000      0.000
REMARK  Name = 
REMARK  1 active torsions:
REMARK  status: ('A' for Active; 'I' for Inactive)
REMARK    1  A    between atoms: C_8  and  C_11
REMARK                            x       y       z     vdW  Elec       q    Type
REMARK                         _______ _______ _______ _____ _____    ______ ____
ROOT
ATOM      1  N   UNL     1       5.565  -3.409  27.617  0.00  0.00    -0.341 N 
ATOM      2  H   UNL     1       5.564  -2.426  27.383  0.00  0.00    +0.144 HD
ATOM      3  H   UNL     1       5.042  -3.652  28.449  0.00  0.00    +0.144 HD
ATOM      4  C   UNL     1       6.585  -4.209  27.282  0.00  0.00    +0.146 A 
ATOM      5  C   UNL     1       7.583  -3.894  26.322  0.00  0.00    +0.041 A 
ATOM      6  C   UNL     1       8.418  -5.003  26.306  0.00  0.00    +0.068 A 
ATOM      7  C   UNL     1       9.540  -5.097  25.483  0.00  0.00    +0.028 A 
ATOM      8  C   UNL     1       9.822  -3.993  24.664  0.00  0.00    +0.010 A 
ATOM      9  C   UNL     1       9.019  -2.835  24.634  0.00  0.00    -0.017 A 
ATOM     10  N   UNL     1       7.881  -5.865  27.222  0.00  0.00    -0.275 N 
ATOM     11  H   UNL     1       8.223  -6.783  27.479  0.00  0.00    +0.189 HD
ATOM     12  C   UNL     1       7.878  -2.809  25.468  0.00  0.00    +0.022 A 
ATOM     13  N   UNL     1       6.779  -5.403  27.837  0.00  0.00    -0.158 NA
ENDROOT
BRANCH   9  14
ATOM     14  C   UNL     1       9.371  -1.676  23.773  0.00  0.00    -0.018 A 
ATOM     15  C   UNL     1       9.108  -1.682  22.389  0.00  0.00    +0.008 A 
ATOM     16  C   UNL     1       9.417  -0.585  21.578  0.00  0.00    +0.001 A 
ATOM     17  C   UNL     1       9.986   0.556  22.134  0.00  0.00    +0.000 A 
ATOM     18  C   UNL     1      10.259   0.592  23.497  0.00  0.00    +0.001 A 
ATOM     19  C   UNL     1       9.963  -0.514  24.302  0.00  0.00    +0.008 A 
ENDBRANCH   9  14
TORSDOF 1
ENDMDL
MODEL 2
REMARK VINA RESULT:      -6.4      3.558      5.439
REMARK  Name = 
REMARK  1 active torsions:
REMARK  status: ('A' for Active; 'I' for Inactive)
REMARK    1  A    between atoms: C_8  and  C_11
REMARK                            x       y       z     vdW  Elec       q    Type
REMARK                         _______ _______ _______ _____ _____    ______ ____
ROOT
ATOM      1  N   UNL     1       8.900  -1.315  26.301  0.00  0.00    -0.341 N 
ATOM      2  H   UNL     1       9.253  -0.554  26.863  0.00  0.00    +0.144 HD
ATOM      3  H   UNL     1       8.861  -2.212  26.770  0.00  0.00    +0.144 HD
ATOM      4  C   UNL     1       9.041  -1.328  24.970  0.00  0.00    +0.146 A 
ATOM      5  C   UNL     1       9.377  -0.198  24.178  0.00  0.00    +0.041 A 
ATOM      6  C   UNL     1       9.407  -0.678  22.875  0.00  0.00    +0.068 A 
ATOM      7  C   UNL     1       9.702   0.127  21.775  0.00  0.00    +0.028 A 
ATOM      8  C   UNL     1      10.001   1.474  22.035  0.00  0.00    +0.010 A 
ATOM      9  C   UNL     1       9.991   2.025  23.332  0.00  0.00    -0.017 A 
ATOM     10  N   UNL     1       9.101  -2.007  22.980  0.00  0.00    -0.275 N 
ATOM     11  H   UNL     1       9.029  -2.684  22.229  0.00  0.00    +0.189 HD
ATOM     12  C   UNL     1       9.656   1.168  24.405  0.00  0.00    +0.022 A 
ATOM     13  N   UNL     1       8.889  -2.429  24.238  0.00  0.00    -0.158 NA
ENDROOT
BRANCH   9  14
ATOM     14  C   UNL     1      10.342   3.450  23.566  0.00  0.00    -0.018 A 
ATOM     15  C   UNL     1      11.648   3.930  23.347  0.00  0.00    +0.008 A 
ATOM     16  C   UNL     1      11.980   5.275  23.544  0.00  0.00    +0.001 A 
ATOM     17  C   UNL     1      11.007   6.180  23.956  0.00  0.00    +0.000 A 
ATOM     18  C   UNL     1       9.709   5.736  24.183  0.00  0.00    +0.001 A 
ATOM     19  C   UNL     1       9.386   4.387  23.999  0.00  0.00    +0.008 A 
ENDBRANCH   9  14
TORSDOF 1
ENDMDL
MODEL 3
REMARK VINA RESULT:      -6.4      6.043      8.335
REMARK  Name = 
REMARK  1 active torsions:
REMARK  status: ('A' for Active; 'I' for Inactive)
REMARK    1  A    between atoms: C_8  and  C_11
REMARK                            x       y       z     vdW  Elec       q    Type
REMARK                         _______ _______ _______ _____ _____    ______ ____
ROOT
ATOM      1  N   UNL     1      13.754   5.187  23.140  0.00  0.00    -0.341 N 
ATOM      2  H   UNL     1      14.093   4.251  22.971  0.00  0.00    +0.144 HD
ATOM      3  H   UNL     1      14.468   5.866  23.373  0.00  0.00    +0.144 HD
ATOM      4  C   UNL     1      12.521   5.413  23.611  0.00  0.00    +0.146 A 
ATOM      5  C   UNL     1      11.467   4.461  23.618  0.00  0.00    +0.041 A 
ATOM      6  C   UNL     1      10.393   5.130  24.188  0.00  0.00    +0.068 A 
ATOM      7  C   UNL     1       9.144   4.539  24.379  0.00  0.00    +0.028 A 
ATOM      8  C   UNL     1       9.010   3.198  23.987  0.00  0.00    +0.010 A 
ATOM      9  C   UNL     1      10.060   2.459  23.406  0.00  0.00    -0.017 A 
ATOM     10  N   UNL     1      10.864   6.383  24.471  0.00  0.00    -0.275 N 
ATOM     11  H   UNL     1      10.357   7.151  24.895  0.00  0.00    +0.189 HD
ATOM     12  C   UNL     1      11.294   3.120  23.210  0.00  0.00    +0.022 A 
ATOM     13  N   UNL     1      12.153   6.576  24.145  0.00  0.00    -0.158 NA
ENDROOT
BRANCH   9  14
ATOM     14  C   UNL     1       9.884   1.032  23.033  0.00  0.00    -0.018 A 
ATOM     15  C   UNL     1       9.548   0.652  21.719  0.00  0.00    +0.008 A 
ATOM     16  C   UNL     1       9.403  -0.692  21.356  0.00  0.00    +0.001 A 
ATOM     17  C   UNL     1       9.602  -1.694  22.300  0.00  0.00    +0.000 A 
ATOM     18  C   UNL     1       9.932  -1.351  23.606  0.00  0.00    +0.001 A 
ATOM     19  C   UNL     1      10.062  -0.005  23.968  0.00  0.00    +0.008 A 
ENDBRANCH   9  14
TORSDOF 1
ENDMDL
MODEL 4
REMARK VINA RESULT:      -6.4      1.239      2.401
REMARK  Name = 
REMARK  1 active torsions:
REMARK  status: ('A' for Active; 'I' for Inactive)
REMARK    1  A    between atoms: C_8  and  C_11
REMARK                            x       y       z     vdW  Elec       q    Type
REMARK                         _______ _______ _______ _____ _____    ______ ____
ROOT
ATOM      1  N   UNL     1       9.918  -5.643  25.607  0.00  0.00    -0.341 N 
ATOM      2  H   UNL     1      10.445  -5.338  24.800  0.00  0.00    +0.144 HD
ATOM      3  H   UNL     1       9.916  -6.643  25.764  0.00  0.00    +0.144 HD
ATOM      4  C   UNL     1       8.864  -4.953  26.058  0.00  0.00    +0.146 A 
ATOM      5  C   UNL     1       8.561  -3.611  25.706  0.00  0.00    +0.041 A 
ATOM      6  C   UNL     1       7.398  -3.318  26.406  0.00  0.00    +0.068 A 
ATOM      7  C   UNL     1       6.760  -2.079  26.335  0.00  0.00    +0.028 A 
ATOM      8  C   UNL     1       7.335  -1.116  25.492  0.00  0.00    +0.010 A 
ATOM      9  C   UNL     1       8.511  -1.348  24.752  0.00  0.00    -0.017 A 
ATOM     10  N   UNL     1       7.101  -4.461  27.095  0.00  0.00    -0.275 N 
ATOM     11  H   UNL     1       6.317  -4.620  27.717  0.00  0.00    +0.189 HD
ATOM     12  C   UNL     1       9.130  -2.612  24.885  0.00  0.00    +0.022 A 
ATOM     13  N   UNL     1       7.964  -5.471  26.892  0.00  0.00    -0.158 NA
ENDROOT
BRANCH   9  14
ATOM     14  C   UNL     1       9.069  -0.310  23.846  0.00  0.00    -0.018 A 
ATOM     15  C   UNL     1       8.831  -0.341  22.458  0.00  0.00    +0.008 A 
ATOM     16  C   UNL     1       9.335   0.646  21.604  0.00  0.00    +0.001 A 
ATOM     17  C   UNL     1      10.084   1.699  22.119  0.00  0.00    +0.000 A 
ATOM     18  C   UNL     1      10.338   1.756  23.485  0.00  0.00    +0.001 A 
ATOM     19  C   UNL     1       9.844   0.759  24.334  0.00  0.00    +0.008 A 
ENDBRANCH   9  14
TORSDOF 1
ENDMDL
MODEL 5
REMARK VINA RESULT:      -6.3      4.002      6.285
REMARK  Name = 
REMARK  1 active torsions:
REMARK  status: ('A' for Active; 'I' for Inactive)
REMARK    1  A    between atoms: C_8  and  C_11
REMARK                            x       y       z     vdW  Elec       q    Type
REMARK                         _______ _______ _______ _____ _____    ______ ____
ROOT
ATOM      1  N   UNL     1       5.438   2.071  23.049  0.00  0.00    -0.341 N 
ATOM      2  H   UNL     1       4.959   1.219  23.308  0.00  0.00    +0.144 HD
ATOM      3  H   UNL     1       4.833   2.836  22.778  0.00  0.00    +0.144 HD
ATOM      4  C   UNL     1       6.671   2.052  22.528  0.00  0.00    +0.146 A 
ATOM      5  C   UNL     1       7.556   0.943  22.576  0.00  0.00    +0.041 A 
ATOM      6  C   UNL     1       8.701   1.378  21.922  0.00  0.00    +0.068 A 
ATOM      7  C   UNL     1       9.829   0.577  21.749  0.00  0.00    +0.028 A 
ATOM      8  C   UNL     1       9.761  -0.732  22.252  0.00  0.00    +0.010 A 
ATOM      9  C   UNL     1       8.630  -1.239  22.923  0.00  0.00    -0.017 A 
ATOM     10  N   UNL     1       8.427   2.664  21.544  0.00  0.00    -0.275 N 
ATOM     11  H   UNL     1       9.033   3.302  21.042  0.00  0.00    +0.189 HD
ATOM     12  C   UNL     1       7.528  -0.371  23.094  0.00  0.00    +0.022 A 
ATOM     13  N   UNL     1       7.199   3.092  21.886  0.00  0.00    -0.158 NA
ENDROOT
BRANCH   9  14
ATOM     14  C   UNL     1       8.589  -2.641  23.413  0.00  0.00    -0.018 A 
ATOM     15  C   UNL     1       9.461  -3.092  24.423  0.00  0.00    +0.008 A 
ATOM     16  C   UNL     1       9.412  -4.405  24.904  0.00  0.00    +0.001 A 
ATOM     17  C   UNL     1       8.478  -5.300  24.394  0.00  0.00    +0.000 A 
ATOM     18  C   UNL     1       7.604  -4.886  23.395  0.00  0.00    +0.001 A 
ATOM     19  C   UNL     1       7.667  -3.576  22.906  0.00  0.00    +0.008 A 
ENDBRANCH   9  14
TORSDOF 1
ENDMDL
MODEL 6
REMARK VINA RESULT:      -6.2      4.194      5.943
REMARK  Name = 
REMARK  1 active torsions:
REMARK  status: ('A' for Active; 'I' for Inactive)
REMARK    1  A    between atoms: C_8  and  C_11
REMARK                            x       y       z     vdW  Elec       q    Type
REMARK                         _______ _______ _______ _____ _____    ______ ____
ROOT
ATOM      1  N   UNL     1       9.767   1.848  21.486  0.00  0.00    -0.341 N 
ATOM      2  H   UNL     1       9.576   1.188  20.745  0.00  0.00    +0.144 HD
ATOM      3  H   UNL     1      10.338   2.640  21.219  0.00  0.00    +0.144 HD
ATOM      4  C   UNL     1       9.813   1.468  22.769  0.00  0.00    +0.146 A 
ATOM      5  C   UNL     1       9.301   0.242  23.272  0.00  0.00    +0.041 A 
ATOM      6  C   UNL     1       9.565   0.283  24.634  0.00  0.00    +0.068 A 
ATOM      7  C   UNL     1       9.216  -0.747  25.507  0.00  0.00    +0.028 A 
ATOM      8  C   UNL     1       8.591  -1.871  24.946  0.00  0.00    +0.010 A 
ATOM      9  C   UNL     1       8.296  -1.979  23.572  0.00  0.00    -0.017 A 
ATOM     10  N   UNL     1      10.193   1.482  24.838  0.00  0.00    -0.275 N 
ATOM     11  H   UNL     1      10.534   1.857  25.715  0.00  0.00    +0.189 HD
ATOM     12  C   UNL     1       8.648  -0.892  22.740  0.00  0.00    +0.022 A 
ATOM     13  N   UNL     1      10.367   2.212  23.724  0.00  0.00    -0.158 NA
ENDROOT
BRANCH   9  14
ATOM     14  C   UNL     1       7.660  -3.201  23.014  0.00  0.00    -0.018 A 
ATOM     15  C   UNL     1       8.016  -4.486  23.466  0.00  0.00    +0.008 A 
ATOM     16  C   UNL     1       7.405  -5.639  22.961  0.00  0.00    +0.001 A 
ATOM     17  C   UNL     1       6.410  -5.534  21.995  0.00  0.00    +0.000 A 
ATOM     18  C   UNL     1       6.037  -4.279  21.527  0.00  0.00    +0.001 A 
ATOM     19  C   UNL     1       6.662  -3.130  22.025  0.00  0.00    +0.008 A 
ENDBRANCH   9  14
TORSDOF 1
ENDMDL
MODEL 7
REMARK VINA RESULT:      -6.0      2.914      3.136
REMARK  Name = 
REMARK  1 active torsions:
REMARK  status: ('A' for Active; 'I' for Inactive)
REMARK    1  A    between atoms: C_8  and  C_11
REMARK                            x       y       z     vdW  Elec       q    Type
REMARK                         _______ _______ _______ _____ _____    ______ ____
ROOT
ATOM      1  N   UNL     1       5.461  -6.142  26.506  0.00  0.00    -0.341 N 
ATOM      2  H   UNL     1       6.215  -5.627  26.940  0.00  0.00    +0.144 HD
ATOM      3  H   UNL     1       5.102  -6.915  27.052  0.00  0.00    +0.144 HD
ATOM      4  C   UNL     1       5.344  -6.226  25.176  0.00  0.00    +0.146 A 
ATOM      5  C   UNL     1       6.011  -5.385  24.246  0.00  0.00    +0.041 A 
ATOM      6  C   UNL     1       5.590  -5.833  23.001  0.00  0.00    +0.068 A 
ATOM      7  C   UNL     1       6.020  -5.263  21.803  0.00  0.00    +0.028 A 
ATOM      8  C   UNL     1       6.938  -4.206  21.896  0.00  0.00    +0.010 A 
ATOM      9  C   UNL     1       7.409  -3.705  23.126  0.00  0.00    -0.017 A 
ATOM     10  N   UNL     1       4.737  -6.869  23.266  0.00  0.00    -0.275 N 
ATOM     11  H   UNL     1       4.234  -7.441  22.598  0.00  0.00    +0.189 HD
ATOM     12  C   UNL     1       6.915  -4.302  24.308  0.00  0.00    +0.022 A 
ATOM     13  N   UNL     1       4.582  -7.137  24.574  0.00  0.00    -0.158 NA
ENDROOT
BRANCH   9  14
ATOM     14  C   UNL     1       8.404  -2.602  23.179  0.00  0.00    -0.018 A 
ATOM     15  C   UNL     1       8.860  -1.967  22.007  0.00  0.00    +0.008 A 
ATOM     16  C   UNL     1       9.781  -0.915  22.052  0.00  0.00    +0.001 A 
ATOM     17  C   UNL     1      10.261  -0.460  23.275  0.00  0.00    +0.000 A 
ATOM     18  C   UNL     1       9.832  -1.067  24.450  0.00  0.00    +0.001 A 
ATOM     19  C   UNL     1       8.922  -2.130  24.399  0.00  0.00    +0.008 A 
ENDBRANCH   9  14
TORSDOF 1
ENDMDL
MODEL 8
REMARK VINA RESULT:      -6.0      3.829      6.093
REMARK  Name = 
REMARK  1 active torsions:
REMARK  status: ('A' for Active; 'I' for Inactive)
REMARK    1  A    between atoms: C_8  and  C_11
REMARK                            x       y       z     vdW  Elec       q    Type
REMARK                         _______ _______ _______ _____ _____    ______ ____
ROOT
ATOM      1  N   UNL     1       8.769   2.816  25.032  0.00  0.00    -0.341 N 
ATOM      2  H   UNL     1       8.257   2.285  25.723  0.00  0.00    +0.144 HD
ATOM      3  H   UNL     1       8.603   3.815  25.051  0.00  0.00    +0.144 HD
ATOM      4  C   UNL     1       9.130   2.280  23.861  0.00  0.00    +0.146 A 
ATOM      5  C   UNL     1       9.147   0.889  23.575  0.00  0.00    +0.041 A 
ATOM      6  C   UNL     1       9.585   0.805  22.260  0.00  0.00    +0.068 A 
ATOM      7  C   UNL     1       9.744  -0.406  21.588  0.00  0.00    +0.028 A 
ATOM      8  C   UNL     1       9.414  -1.573  22.294  0.00  0.00    +0.010 A 
ATOM      9  C   UNL     1       8.961  -1.560  23.628  0.00  0.00    -0.017 A 
ATOM     10  N   UNL     1       9.788   2.101  21.870  0.00  0.00    -0.275 N 
ATOM     11  H   UNL     1      10.112   2.429  20.968  0.00  0.00    +0.189 HD
ATOM     12  C   UNL     1       8.848  -0.304  24.268  0.00  0.00    +0.022 A 
ATOM     13  N   UNL     1       9.507   3.013  22.815  0.00  0.00    -0.158 NA
ENDROOT
BRANCH   9  14
ATOM     14  C   UNL     1       8.593  -2.817  24.330  0.00  0.00    -0.018 A 
ATOM     15  C   UNL     1       8.059  -3.919  23.633  0.00  0.00    +0.008 A 
ATOM     16  C   UNL     1       7.732  -5.113  24.285  0.00  0.00    +0.001 A 
ATOM     17  C   UNL     1       7.943  -5.241  25.654  0.00  0.00    +0.000 A 
ATOM     18  C   UNL     1       8.467  -4.171  26.370  0.00  0.00    +0.001 A 
ATOM     19  C   UNL     1       8.778  -2.973  25.717  0.00  0.00    +0.008 A 
ENDBRANCH   9  14
TORSDOF 1
ENDMDL
MODEL 9
REMARK VINA RESULT:      -5.9      3.843      5.550
REMARK  Name = 
REMARK  1 active torsions:
REMARK  status: ('A' for Active; 'I' for Inactive)
REMARK    1  A    between atoms: C_8  and  C_11
REMARK                            x       y       z     vdW  Elec       q    Type
REMARK                         _______ _______ _______ _____ _____    ______ ____
ROOT
ATOM      1  N   UNL     1       9.367  -0.276  26.691  0.00  0.00    -0.341 N 
ATOM      2  H   UNL     1       8.527  -0.749  26.995  0.00  0.00    +0.144 HD
ATOM      3  H   UNL     1       9.665   0.489  27.283  0.00  0.00    +0.144 HD
ATOM      4  C   UNL     1       9.710  -0.218  25.399  0.00  0.00    +0.146 A 
ATOM      5  C   UNL     1       9.169  -1.043  24.376  0.00  0.00    +0.041 A 
ATOM      6  C   UNL     1       9.815  -0.635  23.217  0.00  0.00    +0.068 A 
ATOM      7  C   UNL     1       9.566  -1.204  21.968  0.00  0.00    +0.028 A 
ATOM      8  C   UNL     1       8.596  -2.217  21.913  0.00  0.00    +0.010 A 
ATOM      9  C   UNL     1       7.902  -2.676  23.050  0.00  0.00    -0.017 A 
ATOM     10  N   UNL     1      10.660   0.365  23.614  0.00  0.00    -0.275 N 
ATOM     11  H   UNL     1      11.295   0.902  23.035  0.00  0.00    +0.189 HD
ATOM     12  C   UNL     1       8.217  -2.082  24.294  0.00  0.00    +0.022 A 
ATOM     13  N   UNL     1      10.606   0.647  24.927  0.00  0.00    -0.158 NA
ENDROOT
BRANCH   9  14
ATOM     14  C   UNL     1       6.860  -3.731  22.943  0.00  0.00    -0.018 A 
ATOM     15  C   UNL     1       5.517  -3.473  23.278  0.00  0.00    +0.008 A 
ATOM     16  C   UNL     1       4.527  -4.455  23.159  0.00  0.00    +0.001 A 
ATOM     17  C   UNL     1       4.856  -5.721  22.687  0.00  0.00    +0.000 A 
ATOM     18  C   UNL     1       6.173  -6.008  22.349  0.00  0.00    +0.001 A 
ATOM     19  C   UNL     1       7.162  -5.026  22.485  0.00  0.00    +0.008 A 
ENDBRANCH   9  14
TORSDOF 1
ENDMDL
