MODEL 1
REMARK VINA RESULT:      -5.9      0.000      0.000
REMARK  Name = 
REMARK  2 active torsions:
REMARK  status: ('A' for Active; 'I' for Inactive)
REMARK    1  A    between atoms: C_3  and  C_4
REMARK    2  A    between atoms: C_4  and  N_5
REMARK                            x       y       z     vdW  Elec       q    Type
REMARK                         _______ _______ _______ _____ _____    ______ ____
ROOT
ATOM      1 CL   UNL     1       4.898  -3.560  23.184  0.00  0.00    -0.076 Cl
ATOM      2  C   UNL     1       6.490  -3.848  23.775  0.00  0.00    +0.128 A 
ATOM      3  C   UNL     1       6.639  -4.888  24.838  0.00  0.00    +0.273 A 
ATOM      4  O   UNL     1       5.679  -5.423  25.388  0.00  0.00    -0.266 OA
ATOM      5  N   UNL     1       7.922  -5.220  25.180  0.00  0.00    -0.274 N 
ATOM      6  H   UNL     1       8.050  -5.920  25.888  0.00  0.00    +0.173 HD
ATOM      7  C   UNL     1       9.045  -4.573  24.745  0.00  0.00    +0.327 A 
ATOM      8  O   UNL     1      10.161  -4.882  25.145  0.00  0.00    -0.247 OA
ATOM      9  N   UNL     1       8.826  -3.578  23.841  0.00  0.00    -0.307 N 
ATOM     10  H   UNL     1       9.644  -3.016  23.570  0.00  0.00    +0.170 HD
ATOM     11  C   UNL     1       7.593  -3.215  23.332  0.00  0.00    +0.084 A 
ENDROOT
BRANCH  11  12
ATOM     12  C   UNL     1       7.621  -2.161  22.241  0.00  0.00    +0.281 C 
BRANCH  12  13
ATOM     13  N   UNL     1       8.376  -0.973  22.640  0.00  0.00    -0.219 N 
ATOM     14  C   UNL     1       9.625  -0.698  22.125  0.00  0.00    +0.281 C 
ATOM     15  N   UNL     1      10.556  -1.555  21.879  0.00  0.00    -0.104 NA
ATOM     16  H   UNL     1      11.398  -1.069  21.544  0.00  0.00    +0.363 HD
ATOM     17  C   UNL     1       9.791   0.779  21.859  0.00  0.00    +0.131 C 
ATOM     18  C   UNL     1       8.331   1.222  21.823  0.00  0.00    +0.056 C 
ATOM     19  C   UNL     1       7.638   0.281  22.808  0.00  0.00    +0.226 C 
ENDBRANCH  12  13
ENDBRANCH  11  12
TORSDOF 2
ENDMDL
MODEL 2
REMARK VINA RESULT:      -5.8      2.509      3.037
REMARK  Name = 
REMARK  2 active torsions:
REMARK  status: ('A' for Active; 'I' for Inactive)
REMARK    1  A    between atoms: C_3  and  C_4
REMARK    2  A    between atoms: C_4  and  N_5
REMARK                            x       y       z     vdW  Elec       q    Type
REMARK                         _______ _______ _______ _____ _____    ______ ____
ROOT
ATOM      1 CL   UNL     1       6.717   0.826  23.107  0.00  0.00    -0.076 Cl
ATOM      2  C   UNL     1       7.096  -0.851  23.188  0.00  0.00    +0.128 A 
ATOM      3  C   UNL     1       6.181  -1.712  23.998  0.00  0.00    +0.273 A 
ATOM      4  O   UNL     1       5.281  -1.256  24.701  0.00  0.00    -0.266 OA
ATOM      5  N   UNL     1       6.398  -3.062  23.921  0.00  0.00    -0.274 N 
ATOM      6  H   UNL     1       5.794  -3.663  24.451  0.00  0.00    +0.173 HD
ATOM      7  C   UNL     1       7.463  -3.653  23.300  0.00  0.00    +0.327 A 
ATOM      8  O   UNL     1       7.631  -4.865  23.328  0.00  0.00    -0.247 OA
ATOM      9  N   UNL     1       8.304  -2.798  22.653  0.00  0.00    -0.307 N 
ATOM     10  H   UNL     1       9.161  -3.208  22.259  0.00  0.00    +0.170 HD
ATOM     11  C   UNL     1       8.139  -1.428  22.563  0.00  0.00    +0.084 A 
ENDROOT
BRANCH  11  12
ATOM     12  C   UNL     1       9.140  -0.707  21.680  0.00  0.00    +0.281 C 
BRANCH  12  13
ATOM     13  N   UNL     1      10.125   0.043  22.462  0.00  0.00    -0.219 N 
ATOM     14  C   UNL     1      10.114   1.421  22.516  0.00  0.00    +0.281 C 
ATOM     15  N   UNL     1       9.859   2.222  21.539  0.00  0.00    -0.104 NA
ATOM     16  H   UNL     1       9.968   3.196  21.849  0.00  0.00    +0.363 HD
ATOM     17  C   UNL     1      10.438   1.913  23.906  0.00  0.00    +0.131 C 
ATOM     18  C   UNL     1      10.146   0.657  24.722  0.00  0.00    +0.056 C 
ATOM     19  C   UNL     1      10.503  -0.487  23.773  0.00  0.00    +0.226 C 
ENDBRANCH  12  13
ENDBRANCH  11  12
TORSDOF 2
ENDMDL
MODEL 3
REMARK VINA RESULT:      -5.8      3.658      4.677
REMARK  Name = 
REMARK  2 active torsions:
REMARK  status: ('A' for Active; 'I' for Inactive)
REMARK    1  A    between atoms: C_3  and  C_4
REMARK    2  A    between atoms: C_4  and  N_5
REMARK                            x       y       z     vdW  Elec       q    Type
REMARK                         _______ _______ _______ _____ _____    ______ ____
ROOT
ATOM      1 CL   UNL     1       8.573  -3.467  23.261  0.00  0.00    -0.076 Cl
ATOM      2  C   UNL     1       8.073  -4.300  24.683  0.00  0.00    +0.128 A 
ATOM      3  C   UNL     1       9.152  -4.859  25.553  0.00  0.00    +0.273 A 
ATOM      4  O   UNL     1      10.337  -4.869  25.226  0.00  0.00    -0.266 OA
ATOM      5  N   UNL     1       8.749  -5.373  26.757  0.00  0.00    -0.274 N 
ATOM      6  H   UNL     1       9.455  -5.749  27.363  0.00  0.00    +0.173 HD
ATOM      7  C   UNL     1       7.449  -5.551  27.140  0.00  0.00    +0.327 A 
ATOM      8  O   UNL     1       7.160  -6.080  28.206  0.00  0.00    -0.247 OA
ATOM      9  N   UNL     1       6.517  -5.095  26.258  0.00  0.00    -0.307 N 
ATOM     10  H   UNL     1       5.534  -5.302  26.481  0.00  0.00    +0.170 HD
ATOM     11  C   UNL     1       6.791  -4.460  25.060  0.00  0.00    +0.084 A 
ENDROOT
BRANCH  11  12
ATOM     12  C   UNL     1       5.583  -3.930  24.311  0.00  0.00    +0.281 C 
BRANCH  12  13
ATOM     13  N   UNL     1       5.286  -4.718  23.114  0.00  0.00    -0.219 N 
ATOM     14  C   UNL     1       5.651  -4.291  21.854  0.00  0.00    +0.281 C 
ATOM     15  N   UNL     1       5.605  -3.081  21.414  0.00  0.00    -0.104 NA
ATOM     16  H   UNL     1       5.890  -3.058  20.426  0.00  0.00    +0.363 HD
ATOM     17  C   UNL     1       6.139  -5.444  21.010  0.00  0.00    +0.131 C 
ATOM     18  C   UNL     1       6.467  -6.466  22.095  0.00  0.00    +0.056 C 
ATOM     19  C   UNL     1       5.448  -6.171  23.195  0.00  0.00    +0.226 C 
ENDBRANCH  12  13
ENDBRANCH  11  12
TORSDOF 2
ENDMDL
MODEL 4
REMARK VINA RESULT:      -5.7      2.458      3.196
REMARK  Name = 
REMARK  2 active torsions:
REMARK  status: ('A' for Active; 'I' for Inactive)
REMARK    1  A    between atoms: C_3  and  C_4
REMARK    2  A    between atoms: C_4  and  N_5
REMARK                            x       y       z     vdW  Elec       q    Type
REMARK                         _______ _______ _______ _____ _____    ______ ____
ROOT
ATOM      1 CL   UNL     1       6.476  -4.882  25.718  0.00  0.00    -0.076 Cl
ATOM      2  C   UNL     1       6.438  -5.114  24.013  0.00  0.00    +0.128 A 
ATOM      3  C   UNL     1       5.474  -6.129  23.490  0.00  0.00    +0.273 A 
ATOM      4  O   UNL     1       4.832  -6.880  24.221  0.00  0.00    -0.266 OA
ATOM      5  N   UNL     1       5.339  -6.187  22.128  0.00  0.00    -0.274 N 
ATOM      6  H   UNL     1       4.693  -6.857  21.752  0.00  0.00    +0.173 HD
ATOM      7  C   UNL     1       6.119  -5.512  21.232  0.00  0.00    +0.327 A 
ATOM      8  O   UNL     1       5.987  -5.662  20.024  0.00  0.00    -0.247 OA
ATOM      9  N   UNL     1       7.036  -4.668  21.782  0.00  0.00    -0.307 N 
ATOM     10  H   UNL     1       7.696  -4.221  21.131  0.00  0.00    +0.170 HD
ATOM     11  C   UNL     1       7.201  -4.436  23.135  0.00  0.00    +0.084 A 
ENDROOT
BRANCH  11  12
ATOM     12  C   UNL     1       8.203  -3.355  23.495  0.00  0.00    +0.281 C 
BRANCH  12  13
ATOM     13  N   UNL     1       8.080  -2.180  22.632  0.00  0.00    -0.219 N 
ATOM     14  C   UNL     1       7.306  -1.095  22.987  0.00  0.00    +0.281 C 
ATOM     15  N   UNL     1       6.160  -1.134  23.575  0.00  0.00    -0.104 NA
ATOM     16  H   UNL     1       5.786  -0.181  23.675  0.00  0.00    +0.363 HD
ATOM     17  C   UNL     1       7.977   0.201  22.602  0.00  0.00    +0.131 C 
ATOM     18  C   UNL     1       9.420  -0.268  22.442  0.00  0.00    +0.056 C 
ATOM     19  C   UNL     1       9.285  -1.707  21.946  0.00  0.00    +0.226 C 
ENDBRANCH  12  13
ENDBRANCH  11  12
TORSDOF 2
ENDMDL
MODEL 5
REMARK VINA RESULT:      -5.6      2.099      2.407
REMARK  Name = 
REMARK  2 active torsions:
REMARK  status: ('A' for Active; 'I' for Inactive)
REMARK    1  A    between atoms: C_3  and  C_4
REMARK    2  A    between atoms: C_4  and  N_5
REMARK                            x       y       z     vdW  Elec       q    Type
REMARK                         _______ _______ _______ _____ _____    ______ ____
ROOT
ATOM      1 CL   UNL     1       8.531  -2.330  26.307  0.00  0.00    -0.076 Cl
ATOM      2  C   UNL     1       8.170  -3.124  24.822  0.00  0.00    +0.128 A 
ATOM      3  C   UNL     1       8.283  -4.614  24.807  0.00  0.00    +0.273 A 
ATOM      4  O   UNL     1       8.749  -5.258  25.745  0.00  0.00    -0.266 OA
ATOM      5  N   UNL     1       7.839  -5.241  23.674  0.00  0.00    -0.274 N 
ATOM      6  H   UNL     1       7.899  -6.242  23.641  0.00  0.00    +0.173 HD
ATOM      7  C   UNL     1       7.457  -4.609  22.524  0.00  0.00    +0.327 A 
ATOM      8  O   UNL     1       7.133  -5.235  21.523  0.00  0.00    -0.247 OA
ATOM      9  N   UNL     1       7.460  -3.248  22.582  0.00  0.00    -0.307 N 
ATOM     10  H   UNL     1       7.267  -2.750  21.703  0.00  0.00    +0.170 HD
ATOM     11  C   UNL     1       7.783  -2.495  23.697  0.00  0.00    +0.084 A 
ENDROOT
BRANCH  11  12
ATOM     12  C   UNL     1       7.588  -0.997  23.551  0.00  0.00    +0.281 C 
BRANCH  12  13
ATOM     13  N   UNL     1       8.858  -0.289  23.383  0.00  0.00    -0.219 N 
ATOM     14  C   UNL     1       9.424  -0.098  22.141  0.00  0.00    +0.281 C 
ATOM     15  N   UNL     1       9.443  -0.946  21.171  0.00  0.00    -0.104 NA
ATOM     16  H   UNL     1       9.973  -0.559  20.379  0.00  0.00    +0.363 HD
ATOM     17  C   UNL     1      10.041   1.276  22.030  0.00  0.00    +0.131 C 
ATOM     18  C   UNL     1       9.325   1.996  23.169  0.00  0.00    +0.056 C 
ATOM     19  C   UNL     1       9.092   0.899  24.207  0.00  0.00    +0.226 C 
ENDBRANCH  12  13
ENDBRANCH  11  12
TORSDOF 2
ENDMDL
MODEL 6
REMARK VINA RESULT:      -5.6      3.601      4.746
REMARK  Name = 
REMARK  2 active torsions:
REMARK  status: ('A' for Active; 'I' for Inactive)
REMARK    1  A    between atoms: C_3  and  C_4
REMARK    2  A    between atoms: C_4  and  N_5
REMARK                            x       y       z     vdW  Elec       q    Type
REMARK                         _______ _______ _______ _____ _____    ______ ____
ROOT
ATOM      1 CL   UNL     1       7.001  -2.837  22.556  0.00  0.00    -0.076 Cl
ATOM      2  C   UNL     1       6.150  -4.191  23.192  0.00  0.00    +0.128 A 
ATOM      3  C   UNL     1       5.692  -5.223  22.213  0.00  0.00    +0.273 A 
ATOM      4  O   UNL     1       5.774  -5.072  20.995  0.00  0.00    -0.266 OA
ATOM      5  N   UNL     1       5.163  -6.368  22.746  0.00  0.00    -0.274 N 
ATOM      6  H   UNL     1       4.854  -7.080  22.110  0.00  0.00    +0.173 HD
ATOM      7  C   UNL     1       4.885  -6.563  24.070  0.00  0.00    +0.327 A 
ATOM      8  O   UNL     1       4.348  -7.589  24.470  0.00  0.00    -0.247 OA
ATOM      9  N   UNL     1       5.252  -5.543  24.896  0.00  0.00    -0.307 N 
ATOM     10  H   UNL     1       4.968  -5.626  25.881  0.00  0.00    +0.170 HD
ATOM     11  C   UNL     1       5.890  -4.383  24.499  0.00  0.00    +0.084 A 
ENDROOT
BRANCH  11  12
ATOM     12  C   UNL     1       6.310  -3.452  25.622  0.00  0.00    +0.281 C 
BRANCH  12  13
ATOM     13  N   UNL     1       7.708  -3.649  26.008  0.00  0.00    -0.219 N 
ATOM     14  C   UNL     1       8.219  -4.902  26.275  0.00  0.00    +0.281 C 
ATOM     15  N   UNL     1       7.617  -5.855  26.900  0.00  0.00    -0.104 NA
ATOM     16  H   UNL     1       8.249  -6.661  26.999  0.00  0.00    +0.363 HD
ATOM     17  C   UNL     1       9.619  -5.046  25.727  0.00  0.00    +0.131 C 
ATOM     18  C   UNL     1       9.637  -3.914  24.705  0.00  0.00    +0.056 C 
ATOM     19  C   UNL     1       8.725  -2.852  25.319  0.00  0.00    +0.226 C 
ENDBRANCH  12  13
ENDBRANCH  11  12
TORSDOF 2
ENDMDL
MODEL 7
REMARK VINA RESULT:      -5.6      2.228      2.886
REMARK  Name = 
REMARK  2 active torsions:
REMARK  status: ('A' for Active; 'I' for Inactive)
REMARK    1  A    between atoms: C_3  and  C_4
REMARK    2  A    between atoms: C_4  and  N_5
REMARK                            x       y       z     vdW  Elec       q    Type
REMARK                         _______ _______ _______ _____ _____    ______ ____
ROOT
ATOM      1 CL   UNL     1       7.248  -4.452  22.458  0.00  0.00    -0.076 Cl
ATOM      2  C   UNL     1       7.293  -4.753  24.153  0.00  0.00    +0.128 A 
ATOM      3  C   UNL     1       6.195  -5.593  24.719  0.00  0.00    +0.273 A 
ATOM      4  O   UNL     1       5.216  -5.945  24.063  0.00  0.00    -0.266 OA
ATOM      5  N   UNL     1       6.331  -5.958  26.032  0.00  0.00    -0.274 N 
ATOM      6  H   UNL     1       5.610  -6.528  26.435  0.00  0.00    +0.173 HD
ATOM      7  C   UNL     1       7.293  -5.490  26.882  0.00  0.00    +0.327 A 
ATOM      8  O   UNL     1       7.316  -5.808  28.065  0.00  0.00    -0.247 OA
ATOM      9  N   UNL     1       8.213  -4.659  26.316  0.00  0.00    -0.307 N 
ATOM     10  H   UNL     1       8.889  -4.220  26.955  0.00  0.00    +0.170 HD
ATOM     11  C   UNL     1       8.251  -4.298  24.982  0.00  0.00    +0.084 A 
ENDROOT
BRANCH  11  12
ATOM     12  C   UNL     1       9.448  -3.462  24.566  0.00  0.00    +0.281 C 
BRANCH  12  13
ATOM     13  N   UNL     1       9.100  -2.052  24.385  0.00  0.00    -0.219 N 
ATOM     14  C   UNL     1       9.095  -1.164  25.440  0.00  0.00    +0.281 C 
ATOM     15  N   UNL     1       8.689  -1.404  26.639  0.00  0.00    -0.104 NA
ATOM     16  H   UNL     1       8.755  -0.549  27.207  0.00  0.00    +0.363 HD
ATOM     17  C   UNL     1       9.649   0.177  25.023  0.00  0.00    +0.131 C 
ATOM     18  C   UNL     1      10.412  -0.215  23.761  0.00  0.00    +0.056 C 
ATOM     19  C   UNL     1       9.598  -1.374  23.187  0.00  0.00    +0.226 C 
ENDBRANCH  12  13
ENDBRANCH  11  12
TORSDOF 2
ENDMDL
MODEL 8
REMARK VINA RESULT:      -5.6      2.375      2.866
REMARK  Name = 
REMARK  2 active torsions:
REMARK  status: ('A' for Active; 'I' for Inactive)
REMARK    1  A    between atoms: C_3  and  C_4
REMARK    2  A    between atoms: C_4  and  N_5
REMARK                            x       y       z     vdW  Elec       q    Type
REMARK                         _______ _______ _______ _____ _____    ______ ____
ROOT
ATOM      1 CL   UNL     1       8.692  -2.978  26.025  0.00  0.00    -0.076 Cl
ATOM      2  C   UNL     1       7.886  -3.186  24.518  0.00  0.00    +0.128 A 
ATOM      3  C   UNL     1       6.635  -4.004  24.528  0.00  0.00    +0.273 A 
ATOM      4  O   UNL     1       6.255  -4.632  25.515  0.00  0.00    -0.266 OA
ATOM      5  N   UNL     1       5.919  -4.026  23.361  0.00  0.00    -0.274 N 
ATOM      6  H   UNL     1       5.071  -4.564  23.344  0.00  0.00    +0.173 HD
ATOM      7  C   UNL     1       6.337  -3.497  22.173  0.00  0.00    +0.327 A 
ATOM      8  O   UNL     1       5.674  -3.611  21.149  0.00  0.00    -0.247 OA
ATOM      9  N   UNL     1       7.528  -2.838  22.219  0.00  0.00    -0.307 N 
ATOM     10  H   UNL     1       7.908  -2.513  21.319  0.00  0.00    +0.170 HD
ATOM     11  C   UNL     1       8.297  -2.651  23.353  0.00  0.00    +0.084 A 
ENDROOT
BRANCH  11  12
ATOM     12  C   UNL     1       9.522  -1.774  23.175  0.00  0.00    +0.281 C 
BRANCH  12  13
ATOM     13  N   UNL     1       9.196  -0.349  23.254  0.00  0.00    -0.219 N 
ATOM     14  C   UNL     1       9.817   0.490  24.154  0.00  0.00    +0.281 C 
ATOM     15  N   UNL     1      10.134   0.205  25.370  0.00  0.00    -0.104 NA
ATOM     16  H   UNL     1      10.543   1.032  25.827  0.00  0.00    +0.363 HD
ATOM     17  C   UNL     1      10.106   1.836  23.533  0.00  0.00    +0.131 C 
ATOM     18  C   UNL     1      10.022   1.483  22.051  0.00  0.00    +0.056 C 
ATOM     19  C   UNL     1       8.975   0.371  21.998  0.00  0.00    +0.226 C 
ENDBRANCH  12  13
ENDBRANCH  11  12
TORSDOF 2
ENDMDL
MODEL 9
REMARK VINA RESULT:      -5.5      2.220      2.974
REMARK  Name = 
REMARK  2 active torsions:
REMARK  status: ('A' for Active; 'I' for Inactive)
REMARK    1  A    between atoms: C_3  and  C_4
REMARK    2  A    between atoms: C_4  and  N_5
REMARK                            x       y       z     vdW  Elec       q    Type
REMARK                         _______ _______ _______ _____ _____    ______ ____
ROOT
ATOM      1 CL   UNL     1       4.358  -5.989  22.927  0.00  0.00    -0.076 Cl
ATOM      2  C   UNL     1       5.279  -5.839  24.374  0.00  0.00    +0.128 A 
ATOM      3  C   UNL     1       4.729  -6.499  25.597  0.00  0.00    +0.273 A 
ATOM      4  O   UNL     1       3.608  -7.005  25.637  0.00  0.00    -0.266 OA
ATOM      5  N   UNL     1       5.546  -6.511  26.696  0.00  0.00    -0.274 N 
ATOM      6  H   UNL     1       5.202  -6.953  27.528  0.00  0.00    +0.173 HD
ATOM      7  C   UNL     1       6.733  -5.841  26.799  0.00  0.00    +0.327 A 
ATOM      8  O   UNL     1       7.382  -5.841  27.837  0.00  0.00    -0.247 OA
ATOM      9  N   UNL     1       7.131  -5.190  25.671  0.00  0.00    -0.307 N 
ATOM     10  H   UNL     1       7.972  -4.603  25.753  0.00  0.00    +0.170 HD
ATOM     11  C   UNL     1       6.454  -5.188  24.466  0.00  0.00    +0.084 A 
ENDROOT
BRANCH  11  12
ATOM     12  C   UNL     1       7.164  -4.495  23.318  0.00  0.00    +0.281 C 
BRANCH  12  13
ATOM     13  N   UNL     1       7.863  -3.285  23.752  0.00  0.00    -0.219 N 
ATOM     14  C   UNL     1       9.213  -3.287  24.033  0.00  0.00    +0.281 C 
ATOM     15  N   UNL     1       9.868  -4.222  24.631  0.00  0.00    -0.104 NA
ATOM     16  H   UNL     1      10.850  -3.939  24.749  0.00  0.00    +0.363 HD
ATOM     17  C   UNL     1       9.874  -2.024  23.535  0.00  0.00    +0.131 C 
ATOM     18  C   UNL     1       8.839  -1.549  22.519  0.00  0.00    +0.056 C 
ATOM     19  C   UNL     1       7.508  -2.020  23.104  0.00  0.00    +0.226 C 
ENDBRANCH  12  13
ENDBRANCH  11  12
TORSDOF 2
ENDMDL
