MODEL 1
REMARK VINA RESULT:      -5.1      0.000      0.000
REMARK  Name = 
REMARK  11 active torsions:
REMARK  status: ('A' for Active; 'I' for Inactive)
REMARK    1  A    between atoms: C_1  and  C_2
REMARK    2  A    between atoms: C_2  and  O_4
REMARK    3  A    between atoms: C_2  and  C_5
REMARK    4  A    between atoms: C_5  and  O_7
REMARK    5  A    between atoms: C_5  and  C_8
REMARK    6  A    between atoms: C_8  and  O_10
REMARK    7  A    between atoms: C_8  and  C_11
REMARK    8  A    between atoms: C_11  and  O_12
REMARK    9  A    between atoms: O_12  and  P_13
REMARK   10  A    between atoms: P_13  and  O_14
REMARK   11  A    between atoms: P_13  and  O_15
REMARK                            x       y       z     vdW  Elec       q    Type
REMARK                         _______ _______ _______ _____ _____    ______ ____
ROOT
ATOM      1  C   UNL     1      10.347  -1.440  22.818  0.00  0.00    +0.172 C 
ENDROOT
BRANCH   1   2
ATOM      2  O   UNL     1       9.988  -1.779  21.466  0.00  0.00    -0.387 OA
ATOM      3  H   UNL     1      10.465  -1.137  20.905  0.00  0.00    +0.210 HD
ENDBRANCH   1   2
BRANCH   1   4
ATOM      4  C   UNL     1      10.245   0.081  23.057  0.00  0.00    +0.173 C 
BRANCH   4   6
ATOM      5  C   UNL     1       8.110   1.141  22.127  0.00  0.00    +0.040 C 
ATOM      6  C   UNL     1       9.574   0.802  21.866  0.00  0.00    +0.142 C 
BRANCH   6   7
ATOM      7  O   UNL     1      10.249   2.037  21.613  0.00  0.00    -0.389 OA
ATOM      8  H   UNL     1      11.204   1.851  21.645  0.00  0.00    +0.210 HD
ENDBRANCH   6   7
ENDBRANCH   4   6
BRANCH   4   9
ATOM      9  O   UNL     1       9.554   0.335  24.288  0.00  0.00    -0.387 OA
ATOM     10  H   UNL     1      10.115   0.033  25.020  0.00  0.00    +0.210 HD
ENDBRANCH   4   9
ENDBRANCH   1   4
BRANCH   1  11
ATOM     11  C   UNL     1       9.436  -2.217  23.769  0.00  0.00    +0.206 C 
BRANCH  11  12
ATOM     12  O   UNL     1      10.089  -3.441  24.114  0.00  0.00    -0.284 OA
BRANCH  12  13
ATOM     13  P   UNL     1       9.138  -4.434  25.166  0.00  0.00    +0.472 P 
ATOM     14  O   UNL     1       8.288  -5.322  26.107  0.00  0.00    -0.228 OA
BRANCH  13  15
ATOM     15  O   UNL     1      10.438  -5.415  25.323  0.00  0.00    -0.303 OA
ATOM     16  H   UNL     1      10.270  -6.160  24.708  0.00  0.00    +0.222 HD
ENDBRANCH  13  15
BRANCH  13  17
ATOM     17  O   UNL     1       8.586  -5.131  23.797  0.00  0.00    -0.303 OA
ATOM     18  H   UNL     1       9.056  -5.973  23.671  0.00  0.00    +0.222 HD
ENDBRANCH  13  17
ENDBRANCH  12  13
ENDBRANCH  11  12
ENDBRANCH   1  11
TORSDOF 10
ENDMDL
MODEL 2
REMARK VINA RESULT:      -4.9      2.652      5.470
REMARK  Name = 
REMARK  11 active torsions:
REMARK  status: ('A' for Active; 'I' for Inactive)
REMARK    1  A    between atoms: C_1  and  C_2
REMARK    2  A    between atoms: C_2  and  O_4
REMARK    3  A    between atoms: C_2  and  C_5
REMARK    4  A    between atoms: C_5  and  O_7
REMARK    5  A    between atoms: C_5  and  C_8
REMARK    6  A    between atoms: C_8  and  O_10
REMARK    7  A    between atoms: C_8  and  C_11
REMARK    8  A    between atoms: C_11  and  O_12
REMARK    9  A    between atoms: O_12  and  P_13
REMARK   10  A    between atoms: P_13  and  O_14
REMARK   11  A    between atoms: P_13  and  O_15
REMARK                            x       y       z     vdW  Elec       q    Type
REMARK                         _______ _______ _______ _____ _____    ______ ____
ROOT
ATOM      1  C   UNL     1       7.829  -3.720  24.155  0.00  0.00    +0.172 C 
ENDROOT
BRANCH   1   2
ATOM      2  O   UNL     1       7.888  -4.811  23.219  0.00  0.00    -0.387 OA
ATOM      3  H   UNL     1       8.170  -4.409  22.373  0.00  0.00    +0.210 HD
ENDBRANCH   1   2
BRANCH   1   4
ATOM      4  C   UNL     1       9.128  -3.627  24.985  0.00  0.00    +0.173 C 
BRANCH   4   6
ATOM      5  C   UNL     1       7.996  -5.268  26.590  0.00  0.00    +0.040 C 
ATOM      6  C   UNL     1       9.299  -4.850  25.915  0.00  0.00    +0.142 C 
BRANCH   6   7
ATOM      7  O   UNL     1       9.750  -5.971  25.151  0.00  0.00    -0.389 OA
ATOM      8  H   UNL     1       9.061  -6.656  25.216  0.00  0.00    +0.210 HD
ENDBRANCH   6   7
ENDBRANCH   4   6
BRANCH   4   9
ATOM      9  O   UNL     1      10.253  -3.464  24.112  0.00  0.00    -0.387 OA
ATOM     10  H   UNL     1      10.755  -4.296  24.103  0.00  0.00    +0.210 HD
ENDBRANCH   4   9
ENDBRANCH   1   4
BRANCH   1  11
ATOM     11  C   UNL     1       7.571  -2.429  23.377  0.00  0.00    +0.206 C 
BRANCH  11  12
ATOM     12  O   UNL     1       8.379  -2.450  22.197  0.00  0.00    -0.284 OA
BRANCH  12  13
ATOM     13  P   UNL     1       9.063  -0.904  21.827  0.00  0.00    +0.472 P 
ATOM     14  O   UNL     1       9.675   0.479  21.495  0.00  0.00    -0.228 OA
BRANCH  13  15
ATOM     15  O   UNL     1      10.530  -1.627  21.779  0.00  0.00    -0.303 OA
ATOM     16  H   UNL     1      10.944  -1.308  20.950  0.00  0.00    +0.222 HD
ENDBRANCH  13  15
BRANCH  13  17
ATOM     17  O   UNL     1       9.065  -0.662  23.441  0.00  0.00    -0.303 OA
ATOM     18  H   UNL     1       9.340   0.254  23.613  0.00  0.00    +0.222 HD
ENDBRANCH  13  17
ENDBRANCH  12  13
ENDBRANCH  11  12
ENDBRANCH   1  11
TORSDOF 10
ENDMDL
MODEL 3
REMARK VINA RESULT:      -4.9      1.393      2.115
REMARK  Name = 
REMARK  11 active torsions:
REMARK  status: ('A' for Active; 'I' for Inactive)
REMARK    1  A    between atoms: C_1  and  C_2
REMARK    2  A    between atoms: C_2  and  O_4
REMARK    3  A    between atoms: C_2  and  C_5
REMARK    4  A    between atoms: C_5  and  O_7
REMARK    5  A    between atoms: C_5  and  C_8
REMARK    6  A    between atoms: C_8  and  O_10
REMARK    7  A    between atoms: C_8  and  C_11
REMARK    8  A    between atoms: C_11  and  O_12
REMARK    9  A    between atoms: O_12  and  P_13
REMARK   10  A    between atoms: P_13  and  O_14
REMARK   11  A    between atoms: P_13  and  O_15
REMARK                            x       y       z     vdW  Elec       q    Type
REMARK                         _______ _______ _______ _____ _____    ______ ____
ROOT
ATOM      1  C   UNL     1       9.465   0.237  23.558  0.00  0.00    +0.172 C 
ENDROOT
BRANCH   1   2
ATOM      2  O   UNL     1      10.900   0.137  23.523  0.00  0.00    -0.387 OA
ATOM      3  H   UNL     1      11.213   0.660  24.288  0.00  0.00    +0.210 HD
ENDBRANCH   1   2
BRANCH   1   4
ATOM      4  C   UNL     1       8.856   0.011  22.158  0.00  0.00    +0.173 C 
BRANCH   4   6
ATOM      5  C   UNL     1       7.614   2.226  21.844  0.00  0.00    +0.040 C 
ATOM      6  C   UNL     1       8.752   1.332  21.361  0.00  0.00    +0.142 C 
BRANCH   6   7
ATOM      7  O   UNL     1       9.962   2.077  21.513  0.00  0.00    -0.389 OA
ATOM      8  H   UNL     1      10.228   2.373  20.625  0.00  0.00    +0.210 HD
ENDBRANCH   6   7
ENDBRANCH   4   6
BRANCH   4   9
ATOM      9  O   UNL     1       9.617  -0.976  21.450  0.00  0.00    -0.387 OA
ATOM     10  H   UNL     1      10.382  -1.221  21.996  0.00  0.00    +0.210 HD
ENDBRANCH   4   9
ENDBRANCH   1   4
BRANCH   1  11
ATOM     11  C   UNL     1       8.934  -0.782  24.568  0.00  0.00    +0.206 C 
BRANCH  11  12
ATOM     12  O   UNL     1       8.098  -1.708  23.870  0.00  0.00    -0.284 OA
BRANCH  12  13
ATOM     13  P   UNL     1       8.587  -3.353  24.095  0.00  0.00    +0.472 P 
ATOM     14  O   UNL     1       9.025  -4.824  24.297  0.00  0.00    -0.228 OA
BRANCH  13  15
ATOM     15  O   UNL     1      10.111  -2.892  23.719  0.00  0.00    -0.303 OA
ATOM     16  H   UNL     1      10.162  -1.947  23.977  0.00  0.00    +0.222 HD
ENDBRANCH  13  15
BRANCH  13  17
ATOM     17  O   UNL     1       8.109  -3.571  22.549  0.00  0.00    -0.303 OA
ATOM     18  H   UNL     1       8.867  -3.395  21.967  0.00  0.00    +0.222 HD
ENDBRANCH  13  17
ENDBRANCH  12  13
ENDBRANCH  11  12
ENDBRANCH   1  11
TORSDOF 10
ENDMDL
MODEL 4
REMARK VINA RESULT:      -4.8      2.044      2.880
REMARK  Name = 
REMARK  11 active torsions:
REMARK  status: ('A' for Active; 'I' for Inactive)
REMARK    1  A    between atoms: C_1  and  C_2
REMARK    2  A    between atoms: C_2  and  O_4
REMARK    3  A    between atoms: C_2  and  C_5
REMARK    4  A    between atoms: C_5  and  O_7
REMARK    5  A    between atoms: C_5  and  C_8
REMARK    6  A    between atoms: C_8  and  O_10
REMARK    7  A    between atoms: C_8  and  C_11
REMARK    8  A    between atoms: C_11  and  O_12
REMARK    9  A    between atoms: O_12  and  P_13
REMARK   10  A    between atoms: P_13  and  O_14
REMARK   11  A    between atoms: P_13  and  O_15
REMARK                            x       y       z     vdW  Elec       q    Type
REMARK                         _______ _______ _______ _____ _____    ______ ____
ROOT
ATOM      1  C   UNL     1       9.230  -2.543  24.633  0.00  0.00    +0.172 C 
ENDROOT
BRANCH   1   2
ATOM      2  O   UNL     1       9.917  -3.768  24.320  0.00  0.00    -0.387 OA
ATOM      3  H   UNL     1       9.441  -4.464  24.815  0.00  0.00    +0.210 HD
ENDBRANCH   1   2
BRANCH   1   4
ATOM      4  C   UNL     1       8.573  -1.935  23.376  0.00  0.00    +0.173 C 
BRANCH   4   6
ATOM      5  C   UNL     1      10.334  -0.085  23.525  0.00  0.00    +0.040 C 
ATOM      6  C   UNL     1       9.553  -1.020  22.607  0.00  0.00    +0.142 C 
BRANCH   6   7
ATOM      7  O   UNL     1      10.512  -1.821  21.914  0.00  0.00    -0.389 OA
ATOM      8  H   UNL     1      10.805  -1.309  21.140  0.00  0.00    +0.210 HD
ENDBRANCH   6   7
ENDBRANCH   4   6
BRANCH   4   9
ATOM      9  O   UNL     1       8.060  -2.982  22.541  0.00  0.00    -0.387 OA
ATOM     10  H   UNL     1       8.070  -2.670  21.621  0.00  0.00    +0.210 HD
ENDBRANCH   4   9
ENDBRANCH   1   4
BRANCH   1  11
ATOM     11  C   UNL     1       8.193  -2.836  25.718  0.00  0.00    +0.206 C 
BRANCH  11  12
ATOM     12  O   UNL     1       7.576  -4.091  25.420  0.00  0.00    -0.284 OA
BRANCH  12  13
ATOM     13  P   UNL     1       7.423  -5.109  26.811  0.00  0.00    +0.472 P 
ATOM     14  O   UNL     1       7.286  -6.019  28.056  0.00  0.00    -0.228 OA
BRANCH  13  15
ATOM     15  O   UNL     1       8.782  -5.880  26.327  0.00  0.00    -0.303 OA
ATOM     16  H   UNL     1       8.497  -6.455  25.585  0.00  0.00    +0.222 HD
ENDBRANCH  13  15
BRANCH  13  17
ATOM     17  O   UNL     1       6.408  -5.996  25.890  0.00  0.00    -0.303 OA
ATOM     18  H   UNL     1       5.689  -6.323  26.456  0.00  0.00    +0.222 HD
ENDBRANCH  13  17
ENDBRANCH  12  13
ENDBRANCH  11  12
ENDBRANCH   1  11
TORSDOF 10
ENDMDL
MODEL 5
REMARK VINA RESULT:      -4.8      3.041      5.812
REMARK  Name = 
REMARK  11 active torsions:
REMARK  status: ('A' for Active; 'I' for Inactive)
REMARK    1  A    between atoms: C_1  and  C_2
REMARK    2  A    between atoms: C_2  and  O_4
REMARK    3  A    between atoms: C_2  and  C_5
REMARK    4  A    between atoms: C_5  and  O_7
REMARK    5  A    between atoms: C_5  and  C_8
REMARK    6  A    between atoms: C_8  and  O_10
REMARK    7  A    between atoms: C_8  and  C_11
REMARK    8  A    between atoms: C_11  and  O_12
REMARK    9  A    between atoms: O_12  and  P_13
REMARK   10  A    between atoms: P_13  and  O_14
REMARK   11  A    between atoms: P_13  and  O_15
REMARK                            x       y       z     vdW  Elec       q    Type
REMARK                         _______ _______ _______ _____ _____    ______ ____
ROOT
ATOM      1  C   UNL     1       9.183  -4.859  24.847  0.00  0.00    +0.172 C 
ENDROOT
BRANCH   1   2
ATOM      2  O   UNL     1      10.116  -5.547  25.699  0.00  0.00    -0.387 OA
ATOM      3  H   UNL     1      10.387  -4.888  26.368  0.00  0.00    +0.210 HD
ENDBRANCH   1   2
BRANCH   1   4
ATOM      4  C   UNL     1       7.726  -5.165  25.253  0.00  0.00    +0.173 C 
BRANCH   4   6
ATOM      5  C   UNL     1       5.991  -4.643  27.060  0.00  0.00    +0.040 C 
ATOM      6  C   UNL     1       7.470  -4.843  26.743  0.00  0.00    +0.142 C 
BRANCH   6   7
ATOM      7  O   UNL     1       7.925  -5.931  27.551  0.00  0.00    -0.389 OA
ATOM      8  H   UNL     1       8.035  -6.697  26.961  0.00  0.00    +0.210 HD
ENDBRANCH   6   7
ENDBRANCH   4   6
BRANCH   4   9
ATOM      9  O   UNL     1       6.822  -4.456  24.395  0.00  0.00    -0.387 OA
ATOM     10  H   UNL     1       6.140  -5.077  24.090  0.00  0.00    +0.210 HD
ENDBRANCH   4   9
ENDBRANCH   1   4
BRANCH   1  11
ATOM     11  C   UNL     1       9.479  -3.360  24.918  0.00  0.00    +0.206 C 
BRANCH  11  12
ATOM     12  O   UNL     1      10.036  -2.954  23.666  0.00  0.00    -0.284 OA
BRANCH  12  13
ATOM     13  P   UNL     1       9.170  -1.643  22.941  0.00  0.00    +0.472 P 
ATOM     14  O   UNL     1       8.395  -0.470  22.293  0.00  0.00    -0.228 OA
BRANCH  13  15
ATOM     15  O   UNL     1       8.179  -2.750  22.256  0.00  0.00    -0.303 OA
ATOM     16  H   UNL     1       8.746  -3.240  21.623  0.00  0.00    +0.222 HD
ENDBRANCH  13  15
BRANCH  13  17
ATOM     17  O   UNL     1      10.306  -1.710  21.770  0.00  0.00    -0.303 OA
ATOM     18  H   UNL     1      11.178  -1.769  22.193  0.00  0.00    +0.222 HD
ENDBRANCH  13  17
ENDBRANCH  12  13
ENDBRANCH  11  12
ENDBRANCH   1  11
TORSDOF 10
ENDMDL
MODEL 6
REMARK VINA RESULT:      -4.7      1.266      2.056
REMARK  Name = 
REMARK  11 active torsions:
REMARK  status: ('A' for Active; 'I' for Inactive)
REMARK    1  A    between atoms: C_1  and  C_2
REMARK    2  A    between atoms: C_2  and  O_4
REMARK    3  A    between atoms: C_2  and  C_5
REMARK    4  A    between atoms: C_5  and  O_7
REMARK    5  A    between atoms: C_5  and  C_8
REMARK    6  A    between atoms: C_8  and  O_10
REMARK    7  A    between atoms: C_8  and  C_11
REMARK    8  A    between atoms: C_11  and  O_12
REMARK    9  A    between atoms: O_12  and  P_13
REMARK   10  A    between atoms: P_13  and  O_14
REMARK   11  A    between atoms: P_13  and  O_15
REMARK                            x       y       z     vdW  Elec       q    Type
REMARK                         _______ _______ _______ _____ _____    ______ ____
ROOT
ATOM      1  C   UNL     1       8.717  -1.595  23.689  0.00  0.00    +0.172 C 
ENDROOT
BRANCH   1   2
ATOM      2  O   UNL     1       9.479  -1.430  24.898  0.00  0.00    -0.387 OA
ATOM      3  H   UNL     1       9.429  -2.294  25.353  0.00  0.00    +0.210 HD
ENDBRANCH   1   2
BRANCH   1   4
ATOM      4  C   UNL     1       9.345  -0.802  22.522  0.00  0.00    +0.173 C 
BRANCH   4   6
ATOM      5  C   UNL     1       9.942   1.601  21.880  0.00  0.00    +0.040 C 
ATOM      6  C   UNL     1       9.905   0.559  22.993  0.00  0.00    +0.142 C 
BRANCH   6   7
ATOM      7  O   UNL     1       9.072   1.085  24.029  0.00  0.00    -0.389 OA
ATOM      8  H   UNL     1       9.228   2.046  24.060  0.00  0.00    +0.210 HD
ENDBRANCH   6   7
ENDBRANCH   4   6
BRANCH   4   9
ATOM      9  O   UNL     1      10.352  -1.596  21.881  0.00  0.00    -0.387 OA
ATOM     10  H   UNL     1      10.394  -2.456  22.330  0.00  0.00    +0.210 HD
ENDBRANCH   4   9
ENDBRANCH   1   4
BRANCH   1  11
ATOM     11  C   UNL     1       8.636  -3.088  23.369  0.00  0.00    +0.206 C 
BRANCH  11  12
ATOM     12  O   UNL     1       9.536  -3.780  24.237  0.00  0.00    -0.284 OA
BRANCH  12  13
ATOM     13  P   UNL     1       8.733  -4.924  25.258  0.00  0.00    +0.472 P 
ATOM     14  O   UNL     1       8.014  -5.947  26.172  0.00  0.00    -0.228 OA
BRANCH  13  15
ATOM     15  O   UNL     1       8.970  -3.893  26.506  0.00  0.00    -0.303 OA
ATOM     16  H   UNL     1       8.145  -3.940  27.035  0.00  0.00    +0.222 HD
ENDBRANCH  13  15
BRANCH  13  17
ATOM     17  O   UNL     1      10.193  -5.646  25.379  0.00  0.00    -0.303 OA
ATOM     18  H   UNL     1      10.089  -6.585  25.154  0.00  0.00    +0.222 HD
ENDBRANCH  13  17
ENDBRANCH  12  13
ENDBRANCH  11  12
ENDBRANCH   1  11
TORSDOF 10
ENDMDL
MODEL 7
REMARK VINA RESULT:      -4.7      2.450      5.412
REMARK  Name = 
REMARK  11 active torsions:
REMARK  status: ('A' for Active; 'I' for Inactive)
REMARK    1  A    between atoms: C_1  and  C_2
REMARK    2  A    between atoms: C_2  and  O_4
REMARK    3  A    between atoms: C_2  and  C_5
REMARK    4  A    between atoms: C_5  and  O_7
REMARK    5  A    between atoms: C_5  and  C_8
REMARK    6  A    between atoms: C_8  and  O_10
REMARK    7  A    between atoms: C_8  and  C_11
REMARK    8  A    between atoms: C_11  and  O_12
REMARK    9  A    between atoms: O_12  and  P_13
REMARK   10  A    between atoms: P_13  and  O_14
REMARK   11  A    between atoms: P_13  and  O_15
REMARK                            x       y       z     vdW  Elec       q    Type
REMARK                         _______ _______ _______ _____ _____    ______ ____
ROOT
ATOM      1  C   UNL     1       9.304  -1.426  22.205  0.00  0.00    +0.172 C 
ENDROOT
BRANCH   1   2
ATOM      2  O   UNL     1      10.697  -1.765  22.328  0.00  0.00    -0.387 OA
ATOM      3  H   UNL     1      10.838  -1.931  23.281  0.00  0.00    +0.210 HD
ENDBRANCH   1   2
BRANCH   1   4
ATOM      4  C   UNL     1       8.556  -1.651  23.537  0.00  0.00    +0.173 C 
BRANCH   4   6
ATOM      5  C   UNL     1       7.440  -3.658  22.409  0.00  0.00    +0.040 C 
ATOM      6  C   UNL     1       8.080  -3.114  23.682  0.00  0.00    +0.142 C 
BRANCH   6   7
ATOM      7  O   UNL     1       9.198  -3.953  23.979  0.00  0.00    -0.389 OA
ATOM      8  H   UNL     1       9.875  -3.775  23.302  0.00  0.00    +0.210 HD
ENDBRANCH   6   7
ENDBRANCH   4   6
BRANCH   4   9
ATOM      9  O   UNL     1       9.387  -1.253  24.635  0.00  0.00    -0.387 OA
ATOM     10  H   UNL     1       9.743  -0.369  24.443  0.00  0.00    +0.210 HD
ENDBRANCH   4   9
ENDBRANCH   1   4
BRANCH   1  11
ATOM     11  C   UNL     1       9.200   0.030  21.747  0.00  0.00    +0.206 C 
BRANCH  11  12
ATOM     12  O   UNL     1       8.748   0.815  22.853  0.00  0.00    -0.284 OA
BRANCH  12  13
ATOM     13  P   UNL     1       9.760   2.185  23.160  0.00  0.00    +0.472 P 
ATOM     14  O   UNL     1      10.664   3.411  23.435  0.00  0.00    -0.228 OA
BRANCH  13  15
ATOM     15  O   UNL     1      10.242   2.109  21.599  0.00  0.00    -0.303 OA
ATOM     16  H   UNL     1      11.218   2.023  21.638  0.00  0.00    +0.222 HD
ENDBRANCH  13  15
BRANCH  13  17
ATOM     17  O   UNL     1      10.846   1.097  23.708  0.00  0.00    -0.303 OA
ATOM     18  H   UNL     1      11.098   1.345  24.613  0.00  0.00    +0.222 HD
ENDBRANCH  13  17
ENDBRANCH  12  13
ENDBRANCH  11  12
ENDBRANCH   1  11
TORSDOF 10
ENDMDL
MODEL 8
REMARK VINA RESULT:      -4.6      5.557      6.743
REMARK  Name = 
REMARK  11 active torsions:
REMARK  status: ('A' for Active; 'I' for Inactive)
REMARK    1  A    between atoms: C_1  and  C_2
REMARK    2  A    between atoms: C_2  and  O_4
REMARK    3  A    between atoms: C_2  and  C_5
REMARK    4  A    between atoms: C_5  and  O_7
REMARK    5  A    between atoms: C_5  and  C_8
REMARK    6  A    between atoms: C_8  and  O_10
REMARK    7  A    between atoms: C_8  and  C_11
REMARK    8  A    between atoms: C_11  and  O_12
REMARK    9  A    between atoms: O_12  and  P_13
REMARK   10  A    between atoms: P_13  and  O_14
REMARK   11  A    between atoms: P_13  and  O_15
REMARK                            x       y       z     vdW  Elec       q    Type
REMARK                         _______ _______ _______ _____ _____    ______ ____
ROOT
ATOM      1  C   UNL     1       4.941  -6.356  24.339  0.00  0.00    +0.172 C 
ENDROOT
BRANCH   1   2
ATOM      2  O   UNL     1       4.140  -7.488  23.954  0.00  0.00    -0.387 OA
ATOM      3  H   UNL     1       4.565  -8.260  24.376  0.00  0.00    +0.210 HD
ENDBRANCH   1   2
BRANCH   1   4
ATOM      4  C   UNL     1       4.627  -5.126  23.461  0.00  0.00    +0.173 C 
BRANCH   4   6
ATOM      5  C   UNL     1       6.368  -6.007  21.805  0.00  0.00    +0.040 C 
ATOM      6  C   UNL     1       5.804  -4.782  22.519  0.00  0.00    +0.142 C 
BRANCH   6   7
ATOM      7  O   UNL     1       5.356  -3.879  21.506  0.00  0.00    -0.389 OA
ATOM      8  H   UNL     1       4.445  -4.135  21.279  0.00  0.00    +0.210 HD
ENDBRANCH   6   7
ENDBRANCH   4   6
BRANCH   4   9
ATOM      9  O   UNL     1       3.412  -5.346  22.732  0.00  0.00    -0.387 OA
ATOM     10  H   UNL     1       2.746  -5.694  23.347  0.00  0.00    +0.210 HD
ENDBRANCH   4   9
ENDBRANCH   1   4
BRANCH   1  11
ATOM     11  C   UNL     1       4.686  -6.065  25.818  0.00  0.00    +0.206 C 
BRANCH  11  12
ATOM     12  O   UNL     1       5.711  -6.705  26.583  0.00  0.00    -0.284 OA
BRANCH  12  13
ATOM     13  P   UNL     1       5.869  -6.046  28.175  0.00  0.00    +0.472 P 
ATOM     14  O   UNL     1       6.011  -5.455  29.599  0.00  0.00    -0.228 OA
BRANCH  13  15
ATOM     15  O   UNL     1       7.492  -6.163  28.001  0.00  0.00    -0.303 OA
ATOM     16  H   UNL     1       7.674  -7.126  27.965  0.00  0.00    +0.222 HD
ENDBRANCH  13  15
BRANCH  13  17
ATOM     17  O   UNL     1       5.660  -7.580  28.691  0.00  0.00    -0.303 OA
ATOM     18  H   UNL     1       6.096  -7.674  29.555  0.00  0.00    +0.222 HD
ENDBRANCH  13  17
ENDBRANCH  12  13
ENDBRANCH  11  12
ENDBRANCH   1  11
TORSDOF 10
ENDMDL
MODEL 9
REMARK VINA RESULT:      -4.6      2.556      5.536
REMARK  Name = 
REMARK  11 active torsions:
REMARK  status: ('A' for Active; 'I' for Inactive)
REMARK    1  A    between atoms: C_1  and  C_2
REMARK    2  A    between atoms: C_2  and  O_4
REMARK    3  A    between atoms: C_2  and  C_5
REMARK    4  A    between atoms: C_5  and  O_7
REMARK    5  A    between atoms: C_5  and  C_8
REMARK    6  A    between atoms: C_8  and  O_10
REMARK    7  A    between atoms: C_8  and  C_11
REMARK    8  A    between atoms: C_11  and  O_12
REMARK    9  A    between atoms: O_12  and  P_13
REMARK   10  A    between atoms: P_13  and  O_14
REMARK   11  A    between atoms: P_13  and  O_15
REMARK                            x       y       z     vdW  Elec       q    Type
REMARK                         _______ _______ _______ _____ _____    ______ ____
ROOT
ATOM      1  C   UNL     1       8.065  -2.344  23.582  0.00  0.00    +0.172 C 
ENDROOT
BRANCH   1   2
ATOM      2  O   UNL     1       8.091  -2.689  22.185  0.00  0.00    -0.387 OA
ATOM      3  H   UNL     1       7.821  -1.875  21.714  0.00  0.00    +0.210 HD
ENDBRANCH   1   2
BRANCH   1   4
ATOM      4  C   UNL     1       9.379  -2.754  24.281  0.00  0.00    +0.173 C 
BRANCH   4   6
ATOM      5  C   UNL     1       7.950  -4.838  24.685  0.00  0.00    +0.040 C 
ATOM      6  C   UNL     1       9.219  -4.080  25.060  0.00  0.00    +0.142 C 
BRANCH   6   7
ATOM      7  O   UNL     1      10.322  -4.941  24.768  0.00  0.00    -0.389 OA
ATOM      8  H   UNL     1      10.367  -5.027  23.799  0.00  0.00    +0.210 HD
ENDBRANCH   6   7
ENDBRANCH   4   6
BRANCH   4   9
ATOM      9  O   UNL     1      10.439  -2.829  23.319  0.00  0.00    -0.387 OA
ATOM     10  H   UNL     1      10.743  -3.751  23.272  0.00  0.00    +0.210 HD
ENDBRANCH   4   9
ENDBRANCH   1   4
BRANCH   1  11
ATOM     11  C   UNL     1       7.816  -0.840  23.703  0.00  0.00    +0.206 C 
BRANCH  11  12
ATOM     12  O   UNL     1       7.880  -0.269  22.393  0.00  0.00    -0.284 OA
BRANCH  12  13
ATOM     13  P   UNL     1       9.228   0.797  22.192  0.00  0.00    +0.472 P 
ATOM     14  O   UNL     1      10.434   1.751  22.013  0.00  0.00    -0.228 OA
BRANCH  13  15
ATOM     15  O   UNL     1       8.474   1.412  20.878  0.00  0.00    -0.303 OA
ATOM     16  H   UNL     1       8.198   2.315  21.143  0.00  0.00    +0.222 HD
ENDBRANCH  13  15
BRANCH  13  17
ATOM     17  O   UNL     1       9.927  -0.447  21.398  0.00  0.00    -0.303 OA
ATOM     18  H   UNL     1       9.876  -1.237  21.962  0.00  0.00    +0.222 HD
ENDBRANCH  13  17
ENDBRANCH  12  13
ENDBRANCH  11  12
ENDBRANCH   1  11
TORSDOF 10
ENDMDL
