MODEL 1
REMARK VINA RESULT:      -6.8      0.000      0.000
REMARK  Name = 
REMARK  5 active torsions:
REMARK  status: ('A' for Active; 'I' for Inactive)
REMARK    1  A    between atoms: O_1  and  C_2
REMARK    2  A    between atoms: C_3  and  C_4
REMARK    3  A    between atoms: N_9  and  C_10
REMARK    4  A    between atoms: C_10  and  C_11
REMARK    5  A    between atoms: C_22  and  N_23
REMARK                            x       y       z     vdW  Elec       q    Type
REMARK                         _______ _______ _______ _____ _____    ______ ____
ROOT
ATOM      1  C   UNL     1       8.601   1.178  22.147  0.00  0.00    +0.032 C 
ATOM      2  C   UNL     1       8.189   0.127  22.874  0.00  0.00    +0.077 C 
ATOM      3  C   UNL     1       8.582  -1.296  22.623  0.00  0.00    +0.259 C 
ATOM      4  O   UNL     1       9.109  -1.673  21.582  0.00  0.00    -0.269 OA
ATOM      5  N   UNL     1       8.344  -2.055  23.763  0.00  0.00    -0.251 N 
ATOM      6  C   UNL     1       7.869  -1.359  24.854  0.00  0.00    +0.121 C 
ATOM      7  S   UNL     1       7.865  -1.800  26.461  0.00  0.00    -0.027 S 
ATOM      8  S   UNL     1       7.294   0.215  24.342  0.00  0.00    -0.061 S 
ENDROOT
BRANCH   1  14
ATOM      9  C   UNL     1       9.246   3.332  23.324  0.00  0.00    +0.202 A 
ATOM     10  C   UNL     1       8.960   4.678  23.583  0.00  0.00    +0.315 A 
ATOM     11  C   UNL     1       7.818   5.306  23.071  0.00  0.00    +0.088 A 
ATOM     12  C   UNL     1       6.940   4.566  22.286  0.00  0.00    +0.007 A 
ATOM     13  C   UNL     1       7.206   3.219  22.025  0.00  0.00    +0.012 A 
ATOM     14  C   UNL     1       8.358   2.584  22.534  0.00  0.00    +0.024 A 
BRANCH  10  15
ATOM     15  N   UNL     1       9.835   5.463  24.434  0.00  0.00    +0.083 N 
ATOM     16  O   UNL     1      10.964   5.723  23.992  0.00  0.00    +0.042 OA
ATOM     17  O   UNL     1       9.364   5.888  25.498  0.00  0.00    -0.576 OA
ENDBRANCH  10  15
BRANCH   9  18
ATOM     18  O   UNL     1      10.396   2.783  23.817  0.00  0.00    -0.501 OA
ATOM     19  H   UNL     1      11.165   3.189  23.383  0.00  0.00    +0.292 HD
ENDBRANCH   9  18
ENDBRANCH   1  14
BRANCH   5  20
ATOM     20  C   UNL     1       8.677  -3.481  23.779  0.00  0.00    +0.150 C 
BRANCH  20  21
ATOM     21  C   UNL     1       7.471  -4.339  23.444  0.00  0.00    -0.030 A 
ATOM     22  C   UNL     1       7.174  -4.698  22.120  0.00  0.00    +0.005 A 
ATOM     23  C   UNL     1       6.095  -5.534  21.828  0.00  0.00    +0.000 A 
ATOM     24  C   UNL     1       5.287  -6.015  22.855  0.00  0.00    +0.000 A 
ATOM     25  C   UNL     1       5.556  -5.644  24.173  0.00  0.00    +0.000 A 
ATOM     26  C   UNL     1       6.638  -4.818  24.467  0.00  0.00    +0.005 A 
ENDBRANCH  20  21
ENDBRANCH   5  20
TORSDOF 5
ENDMDL
MODEL 2
REMARK VINA RESULT:      -6.7      1.760      2.109
REMARK  Name = 
REMARK  5 active torsions:
REMARK  status: ('A' for Active; 'I' for Inactive)
REMARK    1  A    between atoms: O_1  and  C_2
REMARK    2  A    between atoms: C_3  and  C_4
REMARK    3  A    between atoms: N_9  and  C_10
REMARK    4  A    between atoms: C_10  and  C_11
REMARK    5  A    between atoms: C_22  and  N_23
REMARK                            x       y       z     vdW  Elec       q    Type
REMARK                         _______ _______ _______ _____ _____    ______ ____
ROOT
ATOM      1  C   UNL     1       9.429   0.853  22.421  0.00  0.00    +0.032 C 
ATOM      2  C   UNL     1       8.781  -0.139  23.054  0.00  0.00    +0.077 C 
ATOM      3  C   UNL     1       9.070  -1.598  22.881  0.00  0.00    +0.259 C 
ATOM      4  O   UNL     1       9.746  -2.045  21.960  0.00  0.00    -0.269 OA
ATOM      5  N   UNL     1       8.542  -2.309  23.952  0.00  0.00    -0.251 N 
ATOM      6  C   UNL     1       7.940  -1.551  24.932  0.00  0.00    +0.121 C 
ATOM      7  S   UNL     1       7.583  -1.960  26.507  0.00  0.00    -0.027 S 
ATOM      8  S   UNL     1       7.636   0.063  24.322  0.00  0.00    -0.061 S 
ENDROOT
BRANCH   1  14
ATOM      9  C   UNL     1       8.145   3.041  22.362  0.00  0.00    +0.202 A 
ATOM     10  C   UNL     1       8.042   4.373  22.784  0.00  0.00    +0.315 A 
ATOM     11  C   UNL     1       9.015   4.971  23.596  0.00  0.00    +0.088 A 
ATOM     12  C   UNL     1      10.117   4.219  23.988  0.00  0.00    +0.007 A 
ATOM     13  C   UNL     1      10.238   2.890  23.568  0.00  0.00    +0.012 A 
ATOM     14  C   UNL     1       9.259   2.283  22.756  0.00  0.00    +0.024 A 
BRANCH  10  15
ATOM     15  N   UNL     1       6.927   5.194  22.355  0.00  0.00    +0.083 N 
ATOM     16  O   UNL     1       5.798   4.855  22.740  0.00  0.00    +0.042 OA
ATOM     17  O   UNL     1       7.188   6.219  21.710  0.00  0.00    -0.576 OA
ENDBRANCH  10  15
BRANCH   9  18
ATOM     18  O   UNL     1       7.145   2.498  21.604  0.00  0.00    -0.501 OA
ATOM     19  H   UNL     1       6.342   2.403  22.142  0.00  0.00    +0.292 HD
ENDBRANCH   9  18
ENDBRANCH   1  14
BRANCH   5  20
ATOM     20  C   UNL     1       8.720  -3.761  24.029  0.00  0.00    +0.150 C 
BRANCH  20  21
ATOM     21  C   UNL     1       7.492  -4.501  23.533  0.00  0.00    -0.030 A 
ATOM     22  C   UNL     1       7.293  -4.753  22.165  0.00  0.00    +0.005 A 
ATOM     23  C   UNL     1       6.189  -5.483  21.724  0.00  0.00    +0.000 A 
ATOM     24  C   UNL     1       5.258  -5.963  22.642  0.00  0.00    +0.000 A 
ATOM     25  C   UNL     1       5.430  -5.696  24.000  0.00  0.00    +0.000 A 
ATOM     26  C   UNL     1       6.536  -4.977  24.444  0.00  0.00    +0.005 A 
ENDBRANCH  20  21
ENDBRANCH   5  20
TORSDOF 5
ENDMDL
MODEL 3
REMARK VINA RESULT:      -6.7      3.893      8.541
REMARK  Name = 
REMARK  5 active torsions:
REMARK  status: ('A' for Active; 'I' for Inactive)
REMARK    1  A    between atoms: O_1  and  C_2
REMARK    2  A    between atoms: C_3  and  C_4
REMARK    3  A    between atoms: N_9  and  C_10
REMARK    4  A    between atoms: C_10  and  C_11
REMARK    5  A    between atoms: C_22  and  N_23
REMARK                            x       y       z     vdW  Elec       q    Type
REMARK                         _______ _______ _______ _____ _____    ______ ____
ROOT
ATOM      1  C   UNL     1       7.834  -4.586  24.898  0.00  0.00    +0.032 C 
ATOM      2  C   UNL     1       8.251  -3.389  25.343  0.00  0.00    +0.077 C 
ATOM      3  C   UNL     1       9.372  -2.596  24.746  0.00  0.00    +0.259 C 
ATOM      4  O   UNL     1      10.185  -3.070  23.958  0.00  0.00    -0.269 OA
ATOM      5  N   UNL     1       9.273  -1.270  25.148  0.00  0.00    -0.251 N 
ATOM      6  C   UNL     1       8.181  -0.965  25.932  0.00  0.00    +0.121 C 
ATOM      7  S   UNL     1       7.497   0.521  26.249  0.00  0.00    -0.027 S 
ATOM      8  S   UNL     1       7.470  -2.443  26.550  0.00  0.00    -0.061 S 
ENDROOT
BRANCH   1  14
ATOM      9  C   UNL     1       6.477  -5.801  26.665  0.00  0.00    +0.202 A 
ATOM     10  C   UNL     1       5.249  -6.354  27.052  0.00  0.00    +0.315 A 
ATOM     11  C   UNL     1       4.140  -6.370  26.196  0.00  0.00    +0.088 A 
ATOM     12  C   UNL     1       4.267  -5.824  24.923  0.00  0.00    +0.007 A 
ATOM     13  C   UNL     1       5.488  -5.276  24.519  0.00  0.00    +0.012 A 
ATOM     14  C   UNL     1       6.605  -5.252  25.379  0.00  0.00    +0.024 A 
BRANCH  10  15
ATOM     15  N   UNL     1       5.100  -6.969  28.357  0.00  0.00    +0.083 N 
ATOM     16  O   UNL     1       6.029  -7.693  28.746  0.00  0.00    +0.042 OA
ATOM     17  O   UNL     1       4.102  -6.661  29.023  0.00  0.00    -0.576 OA
ENDBRANCH  10  15
BRANCH   9  18
ATOM     18  O   UNL     1       7.513  -5.777  27.557  0.00  0.00    -0.501 OA
ATOM     19  H   UNL     1       7.495  -6.583  28.100  0.00  0.00    +0.292 HD
ENDBRANCH   9  18
ENDBRANCH   1  14
BRANCH   5  20
ATOM     20  C   UNL     1      10.242  -0.282  24.670  0.00  0.00    +0.150 C 
BRANCH  20  21
ATOM     21  C   UNL     1       9.688   0.531  23.515  0.00  0.00    -0.030 A 
ATOM     22  C   UNL     1       9.412  -0.060  22.271  0.00  0.00    +0.005 A 
ATOM     23  C   UNL     1       8.850   0.685  21.233  0.00  0.00    +0.000 A 
ATOM     24  C   UNL     1       8.566   2.035  21.418  0.00  0.00    +0.000 A 
ATOM     25  C   UNL     1       8.860   2.640  22.640  0.00  0.00    +0.000 A 
ATOM     26  C   UNL     1       9.412   1.897  23.680  0.00  0.00    +0.005 A 
ENDBRANCH  20  21
ENDBRANCH   5  20
TORSDOF 5
ENDMDL
MODEL 4
REMARK VINA RESULT:      -6.7      2.654      8.511
REMARK  Name = 
REMARK  5 active torsions:
REMARK  status: ('A' for Active; 'I' for Inactive)
REMARK    1  A    between atoms: O_1  and  C_2
REMARK    2  A    between atoms: C_3  and  C_4
REMARK    3  A    between atoms: N_9  and  C_10
REMARK    4  A    between atoms: C_10  and  C_11
REMARK    5  A    between atoms: C_22  and  N_23
REMARK                            x       y       z     vdW  Elec       q    Type
REMARK                         _______ _______ _______ _____ _____    ______ ____
ROOT
ATOM      1  C   UNL     1       8.653  -1.336  22.417  0.00  0.00    +0.032 C 
ATOM      2  C   UNL     1       8.176  -0.170  22.882  0.00  0.00    +0.077 C 
ATOM      3  C   UNL     1       8.127   1.107  22.103  0.00  0.00    +0.259 C 
ATOM      4  O   UNL     1       8.749   1.282  21.060  0.00  0.00    -0.269 OA
ATOM      5  N   UNL     1       7.221   1.981  22.693  0.00  0.00    -0.251 N 
ATOM      6  C   UNL     1       6.547   1.489  23.789  0.00  0.00    +0.121 C 
ATOM      7  S   UNL     1       5.135   2.034  24.486  0.00  0.00    -0.027 S 
ATOM      8  S   UNL     1       7.353   0.049  24.377  0.00  0.00    -0.061 S 
ENDROOT
BRANCH   1  14
ATOM      9  C   UNL     1       7.509  -3.563  22.835  0.00  0.00    +0.202 A 
ATOM     10  C   UNL     1       7.493  -4.782  23.525  0.00  0.00    +0.315 A 
ATOM     11  C   UNL     1       8.449  -5.095  24.500  0.00  0.00    +0.088 A 
ATOM     12  C   UNL     1       9.440  -4.164  24.792  0.00  0.00    +0.007 A 
ATOM     13  C   UNL     1       9.465  -2.939  24.118  0.00  0.00    +0.012 A 
ATOM     14  C   UNL     1       8.508  -2.622  23.133  0.00  0.00    +0.024 A 
BRANCH  10  15
ATOM     15  N   UNL     1       6.446  -5.753  23.272  0.00  0.00    +0.083 N 
ATOM     16  O   UNL     1       5.582  -5.890  24.151  0.00  0.00    +0.042 OA
ATOM     17  O   UNL     1       6.440  -6.311  22.166  0.00  0.00    -0.576 OA
ENDBRANCH  10  15
BRANCH   9  18
ATOM     18  O   UNL     1       6.574  -3.327  21.866  0.00  0.00    -0.501 OA
ATOM     19  H   UNL     1       6.988  -3.392  20.989  0.00  0.00    +0.292 HD
ENDBRANCH   9  18
ENDBRANCH   1  14
BRANCH   5  20
ATOM     20  C   UNL     1       6.972   3.295  22.096  0.00  0.00    +0.150 C 
BRANCH  20  21
ATOM     21  C   UNL     1       7.819   4.373  22.745  0.00  0.00    -0.030 A 
ATOM     22  C   UNL     1       8.928   4.049  23.543  0.00  0.00    +0.005 A 
ATOM     23  C   UNL     1       9.734   5.049  24.090  0.00  0.00    +0.000 A 
ATOM     24  C   UNL     1       9.437   6.389  23.858  0.00  0.00    +0.000 A 
ATOM     25  C   UNL     1       8.321   6.724  23.090  0.00  0.00    +0.000 A 
ATOM     26  C   UNL     1       7.522   5.728  22.535  0.00  0.00    +0.005 A 
ENDBRANCH  20  21
ENDBRANCH   5  20
TORSDOF 5
ENDMDL
MODEL 5
REMARK VINA RESULT:      -6.6      2.406      3.165
REMARK  Name = 
REMARK  5 active torsions:
REMARK  status: ('A' for Active; 'I' for Inactive)
REMARK    1  A    between atoms: O_1  and  C_2
REMARK    2  A    between atoms: C_3  and  C_4
REMARK    3  A    between atoms: N_9  and  C_10
REMARK    4  A    between atoms: C_10  and  C_11
REMARK    5  A    between atoms: C_22  and  N_23
REMARK                            x       y       z     vdW  Elec       q    Type
REMARK                         _______ _______ _______ _____ _____    ______ ____
ROOT
ATOM      1  C   UNL     1       9.886  -0.717  24.389  0.00  0.00    +0.032 C 
ATOM      2  C   UNL     1       9.176  -1.620  23.693  0.00  0.00    +0.077 C 
ATOM      3  C   UNL     1       9.185  -3.096  23.944  0.00  0.00    +0.259 C 
ATOM      4  O   UNL     1      10.030  -3.654  24.636  0.00  0.00    -0.269 OA
ATOM      5  N   UNL     1       8.065  -3.677  23.362  0.00  0.00    -0.251 N 
ATOM      6  C   UNL     1       7.191  -2.804  22.750  0.00  0.00    +0.121 C 
ATOM      7  S   UNL     1       5.595  -3.036  22.331  0.00  0.00    -0.027 S 
ATOM      8  S   UNL     1       7.977  -1.256  22.513  0.00  0.00    -0.061 S 
ENDROOT
BRANCH   1  14
ATOM      9  C   UNL     1       8.745   1.475  24.966  0.00  0.00    +0.202 A 
ATOM     10  C   UNL     1       8.697   2.867  24.817  0.00  0.00    +0.315 A 
ATOM     11  C   UNL     1       9.585   3.555  23.980  0.00  0.00    +0.088 A 
ATOM     12  C   UNL     1      10.540   2.831  23.274  0.00  0.00    +0.007 A 
ATOM     13  C   UNL     1      10.596   1.439  23.406  0.00  0.00    +0.012 A 
ATOM     14  C   UNL     1       9.708   0.744  24.251  0.00  0.00    +0.024 A 
BRANCH  10  15
ATOM     15  N   UNL     1       7.684   3.644  25.506  0.00  0.00    +0.083 N 
ATOM     16  O   UNL     1       6.501   3.378  25.250  0.00  0.00    +0.042 OA
ATOM     17  O   UNL     1       8.070   4.453  26.362  0.00  0.00    -0.576 OA
ENDBRANCH  10  15
BRANCH   9  18
ATOM     18  O   UNL     1       7.879   0.862  25.828  0.00  0.00    -0.501 OA
ATOM     19  H   UNL     1       7.357   1.533  26.299  0.00  0.00    +0.292 HD
ENDBRANCH   9  18
ENDBRANCH   1  14
BRANCH   5  20
ATOM     20  C   UNL     1       7.830  -5.116  23.494  0.00  0.00    +0.150 C 
BRANCH  20  21
ATOM     21  C   UNL     1       6.946  -5.431  24.687  0.00  0.00    -0.030 A 
ATOM     22  C   UNL     1       5.640  -5.918  24.519  0.00  0.00    +0.005 A 
ATOM     23  C   UNL     1       4.855  -6.257  25.623  0.00  0.00    +0.000 A 
ATOM     24  C   UNL     1       5.359  -6.102  26.911  0.00  0.00    +0.000 A 
ATOM     25  C   UNL     1       6.645  -5.594  27.091  0.00  0.00    +0.000 A 
ATOM     26  C   UNL     1       7.434  -5.264  25.992  0.00  0.00    +0.005 A 
ENDBRANCH  20  21
ENDBRANCH   5  20
TORSDOF 5
ENDMDL
MODEL 6
REMARK VINA RESULT:      -6.6      2.730      3.877
REMARK  Name = 
REMARK  5 active torsions:
REMARK  status: ('A' for Active; 'I' for Inactive)
REMARK    1  A    between atoms: O_1  and  C_2
REMARK    2  A    between atoms: C_3  and  C_4
REMARK    3  A    between atoms: N_9  and  C_10
REMARK    4  A    between atoms: C_10  and  C_11
REMARK    5  A    between atoms: C_22  and  N_23
REMARK                            x       y       z     vdW  Elec       q    Type
REMARK                         _______ _______ _______ _____ _____    ______ ____
ROOT
ATOM      1  C   UNL     1       9.434  -2.081  24.265  0.00  0.00    +0.032 C 
ATOM      2  C   UNL     1       8.303  -2.548  24.821  0.00  0.00    +0.077 C 
ATOM      3  C   UNL     1       8.229  -3.708  25.765  0.00  0.00    +0.259 C 
ATOM      4  O   UNL     1       9.149  -4.504  25.925  0.00  0.00    -0.269 OA
ATOM      5  N   UNL     1       7.029  -3.666  26.464  0.00  0.00    -0.251 N 
ATOM      6  C   UNL     1       6.219  -2.584  26.193  0.00  0.00    +0.121 C 
ATOM      7  S   UNL     1       4.957  -1.965  27.088  0.00  0.00    -0.027 S 
ATOM      8  S   UNL     1       6.756  -1.803  24.719  0.00  0.00    -0.061 S 
ENDROOT
BRANCH   1  14
ATOM      9  C   UNL     1       9.804   0.423  24.079  0.00  0.00    +0.202 A 
ATOM     10  C   UNL     1       9.913   1.552  23.258  0.00  0.00    +0.315 A 
ATOM     11  C   UNL     1       9.740   1.480  21.870  0.00  0.00    +0.088 A 
ATOM     12  C   UNL     1       9.446   0.249  21.293  0.00  0.00    +0.007 A 
ATOM     13  C   UNL     1       9.325  -0.887  22.101  0.00  0.00    +0.012 A 
ATOM     14  C   UNL     1       9.504  -0.819  23.497  0.00  0.00    +0.024 A 
BRANCH  10  15
ATOM     15  N   UNL     1      10.175   2.857  23.836  0.00  0.00    +0.083 N 
ATOM     16  O   UNL     1      11.242   3.406  23.523  0.00  0.00    +0.042 OA
ATOM     17  O   UNL     1       9.281   3.364  24.528  0.00  0.00    -0.576 OA
ENDBRANCH  10  15
BRANCH   9  18
ATOM     18  O   UNL     1      10.022   0.547  25.423  0.00  0.00    -0.501 OA
ATOM     19  H   UNL     1       9.271   1.005  25.836  0.00  0.00    +0.292 HD
ENDBRANCH   9  18
ENDBRANCH   1  14
BRANCH   5  20
ATOM     20  C   UNL     1       6.730  -4.682  27.475  0.00  0.00    +0.150 C 
BRANCH  20  21
ATOM     21  C   UNL     1       5.545  -5.540  27.072  0.00  0.00    -0.030 A 
ATOM     22  C   UNL     1       4.454  -5.731  27.936  0.00  0.00    +0.005 A 
ATOM     23  C   UNL     1       3.344  -6.475  27.534  0.00  0.00    +0.000 A 
ATOM     24  C   UNL     1       3.312  -7.052  26.267  0.00  0.00    +0.000 A 
ATOM     25  C   UNL     1       4.402  -6.892  25.411  0.00  0.00    +0.000 A 
ATOM     26  C   UNL     1       5.505  -6.141  25.805  0.00  0.00    +0.005 A 
ENDBRANCH  20  21
ENDBRANCH   5  20
TORSDOF 5
ENDMDL
MODEL 7
REMARK VINA RESULT:      -6.6      2.555      8.127
REMARK  Name = 
REMARK  5 active torsions:
REMARK  status: ('A' for Active; 'I' for Inactive)
REMARK    1  A    between atoms: O_1  and  C_2
REMARK    2  A    between atoms: C_3  and  C_4
REMARK    3  A    between atoms: N_9  and  C_10
REMARK    4  A    between atoms: C_10  and  C_11
REMARK    5  A    between atoms: C_22  and  N_23
REMARK                            x       y       z     vdW  Elec       q    Type
REMARK                         _______ _______ _______ _____ _____    ______ ____
ROOT
ATOM      1  C   UNL     1       8.088  -1.189  22.294  0.00  0.00    +0.032 C 
ATOM      2  C   UNL     1       7.714  -0.001  22.798  0.00  0.00    +0.077 C 
ATOM      3  C   UNL     1       7.807   1.305  22.071  0.00  0.00    +0.259 C 
ATOM      4  O   UNL     1       8.466   1.459  21.048  0.00  0.00    -0.269 OA
ATOM      5  N   UNL     1       6.976   2.238  22.678  0.00  0.00    -0.251 N 
ATOM      6  C   UNL     1       6.232   1.772  23.740  0.00  0.00    +0.121 C 
ATOM      7  S   UNL     1       4.863   2.424  24.432  0.00  0.00    -0.027 S 
ATOM      8  S   UNL     1       6.882   0.239  24.285  0.00  0.00    -0.061 S 
ENDROOT
BRANCH   1  14
ATOM      9  C   UNL     1       8.646  -3.057  23.919  0.00  0.00    +0.202 A 
ATOM     10  C   UNL     1       8.258  -4.253  24.537  0.00  0.00    +0.315 A 
ATOM     11  C   UNL     1       7.050  -4.890  24.227  0.00  0.00    +0.088 A 
ATOM     12  C   UNL     1       6.214  -4.318  23.274  0.00  0.00    +0.007 A 
ATOM     13  C   UNL     1       6.591  -3.128  22.642  0.00  0.00    +0.012 A 
ATOM     14  C   UNL     1       7.803  -2.481  22.955  0.00  0.00    +0.024 A 
BRANCH  10  15
ATOM     15  N   UNL     1       9.129  -4.895  25.502  0.00  0.00    +0.083 N 
ATOM     16  O   UNL     1      10.294  -5.124  25.143  0.00  0.00    +0.042 OA
ATOM     17  O   UNL     1       8.676  -5.090  26.639  0.00  0.00    -0.576 OA
ENDBRANCH  10  15
BRANCH   9  18
ATOM     18  O   UNL     1       9.818  -2.459  24.290  0.00  0.00    -0.501 OA
ATOM     19  H   UNL     1       9.719  -2.066  25.173  0.00  0.00    +0.292 HD
ENDBRANCH   9  18
ENDBRANCH   1  14
BRANCH   5  20
ATOM     20  C   UNL     1       6.867   3.592  22.131  0.00  0.00    +0.150 C 
BRANCH  20  21
ATOM     21  C   UNL     1       7.814   4.553  22.826  0.00  0.00    -0.030 A 
ATOM     22  C   UNL     1       8.908   4.088  23.574  0.00  0.00    +0.005 A 
ATOM     23  C   UNL     1       9.805   4.981  24.163  0.00  0.00    +0.000 A 
ATOM     24  C   UNL     1       9.615   6.353  24.024  0.00  0.00    +0.000 A 
ATOM     25  C   UNL     1       8.517   6.827  23.306  0.00  0.00    +0.000 A 
ATOM     26  C   UNL     1       7.627   5.939  22.709  0.00  0.00    +0.005 A 
ENDBRANCH  20  21
ENDBRANCH   5  20
TORSDOF 5
ENDMDL
MODEL 8
REMARK VINA RESULT:      -6.5      2.438      8.488
REMARK  Name = 
REMARK  5 active torsions:
REMARK  status: ('A' for Active; 'I' for Inactive)
REMARK    1  A    between atoms: O_1  and  C_2
REMARK    2  A    between atoms: C_3  and  C_4
REMARK    3  A    between atoms: N_9  and  C_10
REMARK    4  A    between atoms: C_10  and  C_11
REMARK    5  A    between atoms: C_22  and  N_23
REMARK                            x       y       z     vdW  Elec       q    Type
REMARK                         _______ _______ _______ _____ _____    ______ ____
ROOT
ATOM      1  C   UNL     1       9.429  -1.552  24.529  0.00  0.00    +0.032 C 
ATOM      2  C   UNL     1       9.080  -0.277  24.286  0.00  0.00    +0.077 C 
ATOM      3  C   UNL     1      10.038   0.867  24.168  0.00  0.00    +0.259 C 
ATOM      4  O   UNL     1      11.207   0.804  24.534  0.00  0.00    -0.269 OA
ATOM      5  N   UNL     1       9.423   1.927  23.515  0.00  0.00    -0.251 N 
ATOM      6  C   UNL     1       8.135   1.694  23.082  0.00  0.00    +0.121 C 
ATOM      7  S   UNL     1       7.247   2.514  21.935  0.00  0.00    -0.027 S 
ATOM      8  S   UNL     1       7.500   0.265  23.871  0.00  0.00    -0.061 S 
ENDROOT
BRANCH   1  14
ATOM      9  C   UNL     1       8.022  -3.215  23.228  0.00  0.00    +0.202 A 
ATOM     10  C   UNL     1       7.181  -4.335  23.247  0.00  0.00    +0.315 A 
ATOM     11  C   UNL     1       6.795  -4.952  24.444  0.00  0.00    +0.088 A 
ATOM     12  C   UNL     1       7.257  -4.431  25.648  0.00  0.00    +0.007 A 
ATOM     13  C   UNL     1       8.091  -3.308  25.646  0.00  0.00    +0.012 A 
ATOM     14  C   UNL     1       8.487  -2.687  24.443  0.00  0.00    +0.024 A 
BRANCH  10  15
ATOM     15  N   UNL     1       6.648  -4.874  22.010  0.00  0.00    +0.083 N 
ATOM     16  O   UNL     1       5.660  -4.300  21.528  0.00  0.00    +0.042 OA
ATOM     17  O   UNL     1       7.266  -5.808  21.481  0.00  0.00    -0.576 OA
ENDBRANCH  10  15
BRANCH   9  18
ATOM     18  O   UNL     1       8.398  -2.679  22.027  0.00  0.00    -0.501 OA
ATOM     19  H   UNL     1       9.361  -2.760  21.921  0.00  0.00    +0.292 HD
ENDBRANCH   9  18
ENDBRANCH   1  14
BRANCH   5  20
ATOM     20  C   UNL     1      10.168   3.160  23.250  0.00  0.00    +0.150 C 
BRANCH  20  21
ATOM     21  C   UNL     1       9.671   4.308  24.109  0.00  0.00    -0.030 A 
ATOM     22  C   UNL     1       8.639   4.128  25.044  0.00  0.00    +0.005 A 
ATOM     23  C   UNL     1       8.228   5.176  25.868  0.00  0.00    +0.000 A 
ATOM     24  C   UNL     1       8.834   6.425  25.763  0.00  0.00    +0.000 A 
ATOM     25  C   UNL     1       9.843   6.624  24.820  0.00  0.00    +0.000 A 
ATOM     26  C   UNL     1      10.261   5.577  24.004  0.00  0.00    +0.005 A 
ENDBRANCH  20  21
ENDBRANCH   5  20
TORSDOF 5
ENDMDL
MODEL 9
REMARK VINA RESULT:      -6.4      2.935      8.521
REMARK  Name = 
REMARK  5 active torsions:
REMARK  status: ('A' for Active; 'I' for Inactive)
REMARK    1  A    between atoms: O_1  and  C_2
REMARK    2  A    between atoms: C_3  and  C_4
REMARK    3  A    between atoms: N_9  and  C_10
REMARK    4  A    between atoms: C_10  and  C_11
REMARK    5  A    between atoms: C_22  and  N_23
REMARK                            x       y       z     vdW  Elec       q    Type
REMARK                         _______ _______ _______ _____ _____    ______ ____
ROOT
ATOM      1  C   UNL     1       8.491  -1.939  23.378  0.00  0.00    +0.032 C 
ATOM      2  C   UNL     1       8.535  -0.697  23.888  0.00  0.00    +0.077 C 
ATOM      3  C   UNL     1       8.379   0.562  23.093  0.00  0.00    +0.259 C 
ATOM      4  O   UNL     1       8.454   0.597  21.869  0.00  0.00    -0.269 OA
ATOM      5  N   UNL     1       8.055   1.614  23.941  0.00  0.00    -0.251 N 
ATOM      6  C   UNL     1       7.897   1.281  25.269  0.00  0.00    +0.121 C 
ATOM      7  S   UNL     1       7.124   2.127  26.479  0.00  0.00    -0.027 S 
ATOM      8  S   UNL     1       8.580  -0.305  25.563  0.00  0.00    -0.061 S 
ENDROOT
BRANCH   1  14
ATOM      9  C   UNL     1       7.260  -3.834  24.532  0.00  0.00    +0.202 A 
ATOM     10  C   UNL     1       7.328  -5.023  25.270  0.00  0.00    +0.315 A 
ATOM     11  C   UNL     1       8.549  -5.567  25.690  0.00  0.00    +0.088 A 
ATOM     12  C   UNL     1       9.727  -4.902  25.366  0.00  0.00    +0.007 A 
ATOM     13  C   UNL     1       9.675  -3.710  24.637  0.00  0.00    +0.012 A 
ATOM     14  C   UNL     1       8.450  -3.162  24.208  0.00  0.00    +0.024 A 
BRANCH  10  15
ATOM     15  N   UNL     1       6.114  -5.714  25.660  0.00  0.00    +0.083 N 
ATOM     16  O   UNL     1       5.247  -5.862  24.786  0.00  0.00    +0.042 OA
ATOM     17  O   UNL     1       6.066  -6.181  26.806  0.00  0.00    -0.576 OA
ENDBRANCH  10  15
BRANCH   9  18
ATOM     18  O   UNL     1       6.043  -3.371  24.116  0.00  0.00    -0.501 OA
ATOM     19  H   UNL     1       5.535  -4.098  23.719  0.00  0.00    +0.292 HD
ENDBRANCH   9  18
ENDBRANCH   1  14
BRANCH   5  20
ATOM     20  C   UNL     1       7.821   2.952  23.395  0.00  0.00    +0.150 C 
BRANCH  20  21
ATOM     21  C   UNL     1       9.069   3.812  23.468  0.00  0.00    -0.030 A 
ATOM     22  C   UNL     1       8.994   5.190  23.723  0.00  0.00    +0.005 A 
ATOM     23  C   UNL     1      10.151   5.961  23.844  0.00  0.00    +0.000 A 
ATOM     24  C   UNL     1      11.403   5.368  23.698  0.00  0.00    +0.000 A 
ATOM     25  C   UNL     1      11.490   4.004  23.418  0.00  0.00    +0.000 A 
ATOM     26  C   UNL     1      10.337   3.232  23.307  0.00  0.00    +0.005 A 
ENDBRANCH  20  21
ENDBRANCH   5  20
TORSDOF 5
ENDMDL
