MODEL 1
REMARK VINA RESULT:      -7.7      0.000      0.000
REMARK  Name = 
REMARK  5 active torsions:
REMARK  status: ('A' for Active; 'I' for Inactive)
REMARK    1  A    between atoms: N_1  and  C_2
REMARK    2  A    between atoms: C_3  and  C_21
REMARK    3  A    between atoms: C_6  and  C_11
REMARK    4  A    between atoms: C_11  and  C_13
REMARK    5  A    between atoms: C_21  and  C_23
REMARK                            x       y       z     vdW  Elec       q    Type
REMARK                         _______ _______ _______ _____ _____    ______ ____
ROOT
ATOM      1  C   UNL     1       7.730  -4.832  26.339  0.00  0.00    +0.146 A 
ATOM      2  N   UNL     1       8.144  -3.789  27.092  0.00  0.00    -0.213 NA
ATOM      3  C   UNL     1       8.317  -2.808  26.234  0.00  0.00    +0.140 A 
ATOM      4  N   UNL     1       8.045  -3.214  24.927  0.00  0.00    -0.294 N 
ATOM      5  C   UNL     1       8.309  -2.407  23.814  0.00  0.00    +0.105 A 
ATOM      6  C   UNL     1       8.867  -1.191  23.991  0.00  0.00    +0.039 A 
ATOM      7  C   UNL     1       9.002  -0.694  25.363  0.00  0.00    +0.017 A 
ATOM      8  C   UNL     1       8.746  -1.470  26.431  0.00  0.00    +0.047 A 
ATOM      9  C   UNL     1       7.535  -4.503  25.015  0.00  0.00    +0.135 A 
ENDROOT
BRANCH   1  10
ATOM     10  N   UNL     1       7.570  -6.017  26.936  0.00  0.00    -0.341 N 
ATOM     11  H   UNL     1       8.379  -6.350  27.456  0.00  0.00    +0.144 HD
ATOM     12  H   UNL     1       7.092  -6.771  26.455  0.00  0.00    +0.144 HD
ENDBRANCH   1  10
BRANCH   6  13
ATOM     13  C   UNL     1       9.338  -0.311  22.871  0.00  0.00    +0.200 C 
ATOM     14  O   UNL     1       9.752  -0.825  21.833  0.00  0.00    -0.286 OA
BRANCH  13  15
ATOM     15  C   UNL     1       9.237   1.166  22.952  0.00  0.00    +0.093 A 
ATOM     16  C   UNL     1      10.198   1.958  23.584  0.00  0.00    +0.137 A 
ATOM     17  F   UNL     1      11.311   1.425  24.105  0.00  0.00    -0.205 F 
ATOM     18  C   UNL     1      10.017   3.335  23.735  0.00  0.00    +0.039 A 
ATOM     19  C   UNL     1       8.847   3.939  23.280  0.00  0.00    +0.006 A 
ATOM     20  C   UNL     1       7.877   3.163  22.653  0.00  0.00    +0.039 A 
ATOM     21  C   UNL     1       8.077   1.791  22.487  0.00  0.00    +0.137 A 
ATOM     22  F   UNL     1       7.117   1.096  21.860  0.00  0.00    -0.205 F 
ENDBRANCH  13  15
ENDBRANCH   6  13
BRANCH   9  23
ATOM     23  C   UNL     1       6.991  -5.260  23.913  0.00  0.00    +0.213 C 
ATOM     24  O   UNL     1       7.680  -5.613  22.956  0.00  0.00    -0.285 OA
BRANCH  23  25
ATOM     25  C   UNL     1       5.530  -5.595  23.866  0.00  0.00    +0.024 A 
ATOM     26  C   UNL     1       5.011  -6.767  24.433  0.00  0.00    +0.012 A 
ATOM     27  C   UNL     1       3.630  -6.990  24.459  0.00  0.00    +0.001 A 
ATOM     28  C   UNL     1       2.757  -6.038  23.935  0.00  0.00    +0.000 A 
ATOM     29  C   UNL     1       3.262  -4.873  23.360  0.00  0.00    +0.001 A 
ATOM     30  C   UNL     1       4.643  -4.653  23.323  0.00  0.00    +0.012 A 
ENDBRANCH  23  25
ENDBRANCH   9  23
TORSDOF 5
ENDMDL
MODEL 2
REMARK VINA RESULT:      -7.7      2.983      8.010
REMARK  Name = 
REMARK  5 active torsions:
REMARK  status: ('A' for Active; 'I' for Inactive)
REMARK    1  A    between atoms: N_1  and  C_2
REMARK    2  A    between atoms: C_3  and  C_21
REMARK    3  A    between atoms: C_6  and  C_11
REMARK    4  A    between atoms: C_11  and  C_13
REMARK    5  A    between atoms: C_21  and  C_23
REMARK                            x       y       z     vdW  Elec       q    Type
REMARK                         _______ _______ _______ _____ _____    ______ ____
ROOT
ATOM      1  C   UNL     1       7.367   2.596  25.906  0.00  0.00    +0.146 A 
ATOM      2  N   UNL     1       7.239   1.703  26.913  0.00  0.00    -0.213 NA
ATOM      3  C   UNL     1       7.781   0.600  26.449  0.00  0.00    +0.140 A 
ATOM      4  N   UNL     1       8.236   0.761  25.140  0.00  0.00    -0.294 N 
ATOM      5  C   UNL     1       8.705  -0.307  24.364  0.00  0.00    +0.105 A 
ATOM      6  C   UNL     1       8.706  -1.554  24.881  0.00  0.00    +0.039 A 
ATOM      7  C   UNL     1       8.388  -1.705  26.304  0.00  0.00    +0.017 A 
ATOM      8  C   UNL     1       7.939  -0.677  27.046  0.00  0.00    +0.047 A 
ATOM      9  C   UNL     1       8.082   2.107  24.834  0.00  0.00    +0.135 A 
ENDROOT
BRANCH   1  10
ATOM     10  N   UNL     1       6.805   3.799  26.055  0.00  0.00    -0.341 N 
ATOM     11  H   UNL     1       6.593   4.286  25.187  0.00  0.00    +0.144 HD
ATOM     12  H   UNL     1       7.138   4.434  26.774  0.00  0.00    +0.144 HD
ENDBRANCH   1  10
BRANCH   6  13
ATOM     13  C   UNL     1       9.033  -2.789  24.095  0.00  0.00    +0.200 C 
ATOM     14  O   UNL     1      10.198  -3.176  24.034  0.00  0.00    -0.286 OA
BRANCH  13  15
ATOM     15  C   UNL     1       7.970  -3.603  23.457  0.00  0.00    +0.093 A 
ATOM     16  C   UNL     1       7.306  -3.207  22.294  0.00  0.00    +0.137 A 
ATOM     17  F   UNL     1       7.640  -2.083  21.647  0.00  0.00    -0.205 F 
ATOM     18  C   UNL     1       6.238  -3.948  21.782  0.00  0.00    +0.039 A 
ATOM     19  C   UNL     1       5.794  -5.087  22.449  0.00  0.00    +0.006 A 
ATOM     20  C   UNL     1       6.442  -5.492  23.613  0.00  0.00    +0.039 A 
ATOM     21  C   UNL     1       7.523  -4.758  24.105  0.00  0.00    +0.137 A 
ATOM     22  F   UNL     1       8.120  -5.205  25.219  0.00  0.00    -0.205 F 
ENDBRANCH  13  15
ENDBRANCH   6  13
BRANCH   9  23
ATOM     23  C   UNL     1       8.551   2.746  23.628  0.00  0.00    +0.213 C 
ATOM     24  O   UNL     1       8.079   2.486  22.521  0.00  0.00    -0.285 OA
BRANCH  23  25
ATOM     25  C   UNL     1       9.690   3.719  23.676  0.00  0.00    +0.024 A 
ATOM     26  C   UNL     1      11.008   3.348  23.372  0.00  0.00    +0.012 A 
ATOM     27  C   UNL     1      12.023   4.309  23.328  0.00  0.00    +0.001 A 
ATOM     28  C   UNL     1      11.728   5.650  23.569  0.00  0.00    +0.000 A 
ATOM     29  C   UNL     1      10.425   6.030  23.881  0.00  0.00    +0.001 A 
ATOM     30  C   UNL     1       9.410   5.069  23.937  0.00  0.00    +0.012 A 
ENDBRANCH  23  25
ENDBRANCH   9  23
TORSDOF 5
ENDMDL
MODEL 3
REMARK VINA RESULT:      -7.7      2.834      4.674
REMARK  Name = 
REMARK  5 active torsions:
REMARK  status: ('A' for Active; 'I' for Inactive)
REMARK    1  A    between atoms: N_1  and  C_2
REMARK    2  A    between atoms: C_3  and  C_21
REMARK    3  A    between atoms: C_6  and  C_11
REMARK    4  A    between atoms: C_11  and  C_13
REMARK    5  A    between atoms: C_21  and  C_23
REMARK                            x       y       z     vdW  Elec       q    Type
REMARK                         _______ _______ _______ _____ _____    ______ ____
ROOT
ATOM      1  C   UNL     1       8.127  -3.897  26.335  0.00  0.00    +0.146 A 
ATOM      2  N   UNL     1       6.935  -3.760  26.959  0.00  0.00    -0.213 NA
ATOM      3  C   UNL     1       6.418  -2.665  26.451  0.00  0.00    +0.140 A 
ATOM      4  N   UNL     1       7.275  -2.074  25.521  0.00  0.00    -0.294 N 
ATOM      5  C   UNL     1       7.030  -0.816  24.958  0.00  0.00    +0.105 A 
ATOM      6  C   UNL     1       5.934  -0.122  25.332  0.00  0.00    +0.039 A 
ATOM      7  C   UNL     1       4.949  -0.802  26.178  0.00  0.00    +0.017 A 
ATOM      8  C   UNL     1       5.186  -2.012  26.716  0.00  0.00    +0.047 A 
ATOM      9  C   UNL     1       8.336  -2.955  25.352  0.00  0.00    +0.135 A 
ENDROOT
BRANCH   1  10
ATOM     10  N   UNL     1       8.936  -4.884  26.731  0.00  0.00    -0.341 N 
ATOM     11  H   UNL     1       9.876  -4.852  26.342  0.00  0.00    +0.144 HD
ATOM     12  H   UNL     1       8.586  -5.834  26.800  0.00  0.00    +0.144 HD
ENDBRANCH   1  10
BRANCH   6  13
ATOM     13  C   UNL     1       5.654   1.293  24.919  0.00  0.00    +0.200 C 
ATOM     14  O   UNL     1       4.519   1.748  25.052  0.00  0.00    -0.286 OA
BRANCH  13  15
ATOM     15  C   UNL     1       6.734   2.185  24.433  0.00  0.00    +0.093 A 
ATOM     16  C   UNL     1       7.609   2.855  25.292  0.00  0.00    +0.137 A 
ATOM     17  F   UNL     1       7.559   2.677  26.619  0.00  0.00    -0.205 F 
ATOM     18  C   UNL     1       8.545   3.770  24.804  0.00  0.00    +0.039 A 
ATOM     19  C   UNL     1       8.598   4.054  23.442  0.00  0.00    +0.006 A 
ATOM     20  C   UNL     1       7.730   3.400  22.573  0.00  0.00    +0.039 A 
ATOM     21  C   UNL     1       6.813   2.470  23.067  0.00  0.00    +0.137 A 
ATOM     22  F   UNL     1       6.013   1.857  22.183  0.00  0.00    -0.205 F 
ENDBRANCH  13  15
ENDBRANCH   6  13
BRANCH   9  23
ATOM     23  C   UNL     1       9.391  -2.809  24.377  0.00  0.00    +0.213 C 
ATOM     24  O   UNL     1      10.173  -3.723  24.116  0.00  0.00    -0.285 OA
BRANCH  23  25
ATOM     25  C   UNL     1       9.610  -1.499  23.683  0.00  0.00    +0.024 A 
ATOM     26  C   UNL     1      10.216  -0.405  24.318  0.00  0.00    +0.012 A 
ATOM     27  C   UNL     1      10.496   0.763  23.603  0.00  0.00    +0.001 A 
ATOM     28  C   UNL     1      10.190   0.844  22.245  0.00  0.00    +0.000 A 
ATOM     29  C   UNL     1       9.579  -0.232  21.605  0.00  0.00    +0.001 A 
ATOM     30  C   UNL     1       9.288  -1.399  22.321  0.00  0.00    +0.012 A 
ENDBRANCH  23  25
ENDBRANCH   9  23
TORSDOF 5
ENDMDL
MODEL 4
REMARK VINA RESULT:      -7.6      0.726      1.742
REMARK  Name = 
REMARK  5 active torsions:
REMARK  status: ('A' for Active; 'I' for Inactive)
REMARK    1  A    between atoms: N_1  and  C_2
REMARK    2  A    between atoms: C_3  and  C_21
REMARK    3  A    between atoms: C_6  and  C_11
REMARK    4  A    between atoms: C_11  and  C_13
REMARK    5  A    between atoms: C_21  and  C_23
REMARK                            x       y       z     vdW  Elec       q    Type
REMARK                         _______ _______ _______ _____ _____    ______ ____
ROOT
ATOM      1  C   UNL     1       7.992  -4.670  26.257  0.00  0.00    +0.146 A 
ATOM      2  N   UNL     1       8.443  -3.673  27.051  0.00  0.00    -0.213 NA
ATOM      3  C   UNL     1       8.494  -2.620  26.266  0.00  0.00    +0.140 A 
ATOM      4  N   UNL     1       8.105  -2.931  24.963  0.00  0.00    -0.294 N 
ATOM      5  C   UNL     1       8.225  -2.027  23.900  0.00  0.00    +0.105 A 
ATOM      6  C   UNL     1       8.756  -0.805  24.124  0.00  0.00    +0.039 A 
ATOM      7  C   UNL     1       9.011  -0.415  25.514  0.00  0.00    +0.017 A 
ATOM      8  C   UNL     1       8.893  -1.285  26.532  0.00  0.00    +0.047 A 
ATOM      9  C   UNL     1       7.652  -4.244  24.991  0.00  0.00    +0.135 A 
ENDROOT
BRANCH   1  10
ATOM     10  N   UNL     1       7.936  -5.905  26.765  0.00  0.00    -0.341 N 
ATOM     11  H   UNL     1       7.515  -6.603  26.155  0.00  0.00    +0.144 HD
ATOM     12  H   UNL     1       7.680  -6.046  27.736  0.00  0.00    +0.144 HD
ENDBRANCH   1  10
BRANCH   6  13
ATOM     13  C   UNL     1       9.079   0.181  23.041  0.00  0.00    +0.200 C 
ATOM     14  O   UNL     1       9.561  -0.219  21.983  0.00  0.00    -0.286 OA
BRANCH  13  15
ATOM     15  C   UNL     1       8.752   1.621  23.183  0.00  0.00    +0.093 A 
ATOM     16  C   UNL     1       7.546   2.171  22.745  0.00  0.00    +0.137 A 
ATOM     17  F   UNL     1       6.579   1.408  22.220  0.00  0.00    -0.205 F 
ATOM     18  C   UNL     1       7.316   3.549  22.798  0.00  0.00    +0.039 A 
ATOM     19  C   UNL     1       8.311   4.404  23.264  0.00  0.00    +0.006 A 
ATOM     20  C   UNL     1       9.521   3.872  23.700  0.00  0.00    +0.039 A 
ATOM     21  C   UNL     1       9.733   2.493  23.664  0.00  0.00    +0.137 A 
ATOM     22  F   UNL     1      10.910   2.034  24.113  0.00  0.00    -0.205 F 
ENDBRANCH  13  15
ENDBRANCH   6  13
BRANCH   9  23
ATOM     23  C   UNL     1       7.026  -4.933  23.888  0.00  0.00    +0.213 C 
ATOM     24  O   UNL     1       7.680  -5.476  22.997  0.00  0.00    -0.285 OA
BRANCH  23  25
ATOM     25  C   UNL     1       5.533  -4.958  23.754  0.00  0.00    +0.024 A 
ATOM     26  C   UNL     1       4.861  -5.954  23.031  0.00  0.00    +0.012 A 
ATOM     27  C   UNL     1       3.463  -5.999  23.019  0.00  0.00    +0.001 A 
ATOM     28  C   UNL     1       2.726  -5.062  23.740  0.00  0.00    +0.000 A 
ATOM     29  C   UNL     1       3.382  -4.061  24.454  0.00  0.00    +0.001 A 
ATOM     30  C   UNL     1       4.780  -4.007  24.460  0.00  0.00    +0.012 A 
ENDBRANCH  23  25
ENDBRANCH   9  23
TORSDOF 5
ENDMDL
MODEL 5
REMARK VINA RESULT:      -7.6      2.659      3.407
REMARK  Name = 
REMARK  5 active torsions:
REMARK  status: ('A' for Active; 'I' for Inactive)
REMARK    1  A    between atoms: N_1  and  C_2
REMARK    2  A    between atoms: C_3  and  C_21
REMARK    3  A    between atoms: C_6  and  C_11
REMARK    4  A    between atoms: C_11  and  C_13
REMARK    5  A    between atoms: C_21  and  C_23
REMARK                            x       y       z     vdW  Elec       q    Type
REMARK                         _______ _______ _______ _____ _____    ______ ____
ROOT
ATOM      1  C   UNL     1       7.431  -4.360  23.351  0.00  0.00    +0.146 A 
ATOM      2  N   UNL     1       7.566  -3.652  22.208  0.00  0.00    -0.213 NA
ATOM      3  C   UNL     1       8.333  -2.636  22.535  0.00  0.00    +0.140 A 
ATOM      4  N   UNL     1       8.675  -2.664  23.887  0.00  0.00    -0.294 N 
ATOM      5  C   UNL     1       9.348  -1.612  24.520  0.00  0.00    +0.105 A 
ATOM      6  C   UNL     1       9.670  -0.508  23.813  0.00  0.00    +0.039 A 
ATOM      7  C   UNL     1       9.463  -0.540  22.362  0.00  0.00    +0.017 A 
ATOM      8  C   UNL     1       8.818  -1.553  21.757  0.00  0.00    +0.047 A 
ATOM      9  C   UNL     1       8.191  -3.865  24.389  0.00  0.00    +0.135 A 
ENDROOT
BRANCH   1  10
ATOM     10  N   UNL     1       6.606  -5.411  23.348  0.00  0.00    -0.341 N 
ATOM     11  H   UNL     1       5.635  -5.196  23.134  0.00  0.00    +0.144 HD
ATOM     12  H   UNL     1       6.686  -6.126  24.064  0.00  0.00    +0.144 HD
ENDBRANCH   1  10
BRANCH   6  13
ATOM     13  C   UNL     1      10.245   0.739  24.418  0.00  0.00    +0.200 C 
ATOM     14  O   UNL     1      11.392   0.723  24.860  0.00  0.00    -0.286 OA
BRANCH  13  15
ATOM     15  C   UNL     1       9.491   2.016  24.419  0.00  0.00    +0.093 A 
ATOM     16  C   UNL     1       9.925   3.153  23.733  0.00  0.00    +0.137 A 
ATOM     17  F   UNL     1      11.029   3.133  22.974  0.00  0.00    -0.205 F 
ATOM     18  C   UNL     1       9.246   4.369  23.843  0.00  0.00    +0.039 A 
ATOM     19  C   UNL     1       8.133   4.474  24.674  0.00  0.00    +0.006 A 
ATOM     20  C   UNL     1       7.692   3.352  25.369  0.00  0.00    +0.039 A 
ATOM     21  C   UNL     1       8.363   2.136  25.235  0.00  0.00    +0.137 A 
ATOM     22  F   UNL     1       7.883   1.084  25.914  0.00  0.00    -0.205 F 
ENDBRANCH  13  15
ENDBRANCH   6  13
BRANCH   9  23
ATOM     23  C   UNL     1       8.438  -4.373  25.718  0.00  0.00    +0.213 C 
ATOM     24  O   UNL     1       9.541  -4.796  26.064  0.00  0.00    -0.285 OA
BRANCH  23  25
ATOM     25  C   UNL     1       7.326  -4.459  26.719  0.00  0.00    +0.024 A 
ATOM     26  C   UNL     1       6.361  -3.451  26.857  0.00  0.00    +0.012 A 
ATOM     27  C   UNL     1       5.281  -3.619  27.730  0.00  0.00    +0.001 A 
ATOM     28  C   UNL     1       5.148  -4.799  28.460  0.00  0.00    +0.000 A 
ATOM     29  C   UNL     1       6.106  -5.804  28.339  0.00  0.00    +0.001 A 
ATOM     30  C   UNL     1       7.192  -5.634  27.475  0.00  0.00    +0.012 A 
ENDBRANCH  23  25
ENDBRANCH   9  23
TORSDOF 5
ENDMDL
MODEL 6
REMARK VINA RESULT:      -7.5      2.429      4.378
REMARK  Name = 
REMARK  5 active torsions:
REMARK  status: ('A' for Active; 'I' for Inactive)
REMARK    1  A    between atoms: N_1  and  C_2
REMARK    2  A    between atoms: C_3  and  C_21
REMARK    3  A    between atoms: C_6  and  C_11
REMARK    4  A    between atoms: C_11  and  C_13
REMARK    5  A    between atoms: C_21  and  C_23
REMARK                            x       y       z     vdW  Elec       q    Type
REMARK                         _______ _______ _______ _____ _____    ______ ____
ROOT
ATOM      1  C   UNL     1       5.566  -4.361  26.057  0.00  0.00    +0.146 A 
ATOM      2  N   UNL     1       6.629  -5.194  25.991  0.00  0.00    -0.213 NA
ATOM      3  C   UNL     1       7.601  -4.454  25.508  0.00  0.00    +0.140 A 
ATOM      4  N   UNL     1       7.172  -3.155  25.235  0.00  0.00    -0.294 N 
ATOM      5  C   UNL     1       7.970  -2.218  24.565  0.00  0.00    +0.105 A 
ATOM      6  C   UNL     1       9.201  -2.576  24.142  0.00  0.00    +0.039 A 
ATOM      7  C   UNL     1       9.719  -3.879  24.568  0.00  0.00    +0.017 A 
ATOM      8  C   UNL     1       8.951  -4.775  25.213  0.00  0.00    +0.047 A 
ATOM      9  C   UNL     1       5.873  -3.061  25.718  0.00  0.00    +0.135 A 
ENDROOT
BRANCH   1  10
ATOM     10  N   UNL     1       4.386  -4.872  26.421  0.00  0.00    -0.341 N 
ATOM     11  H   UNL     1       4.179  -5.792  26.040  0.00  0.00    +0.144 HD
ATOM     12  H   UNL     1       3.562  -4.281  26.453  0.00  0.00    +0.144 HD
ENDBRANCH   1  10
BRANCH   6  13
ATOM     13  C   UNL     1      10.076  -1.714  23.280  0.00  0.00    +0.200 C 
ATOM     14  O   UNL     1      10.954  -2.238  22.596  0.00  0.00    -0.286 OA
BRANCH  13  15
ATOM     15  C   UNL     1       9.852  -0.253  23.168  0.00  0.00    +0.093 A 
ATOM     16  C   UNL     1       9.475   0.367  21.974  0.00  0.00    +0.137 A 
ATOM     17  F   UNL     1       9.230  -0.342  20.865  0.00  0.00    -0.205 F 
ATOM     18  C   UNL     1       9.377   1.758  21.879  0.00  0.00    +0.039 A 
ATOM     19  C   UNL     1       9.690   2.556  22.977  0.00  0.00    +0.006 A 
ATOM     20  C   UNL     1      10.074   1.954  24.172  0.00  0.00    +0.039 A 
ATOM     21  C   UNL     1      10.147   0.563  24.264  0.00  0.00    +0.137 A 
ATOM     22  F   UNL     1      10.504   0.037  25.444  0.00  0.00    -0.205 F 
ENDBRANCH  13  15
ENDBRANCH   6  13
BRANCH   9  23
ATOM     23  C   UNL     1       5.089  -1.850  25.770  0.00  0.00    +0.213 C 
ATOM     24  O   UNL     1       3.871  -1.849  25.591  0.00  0.00    -0.285 OA
BRANCH  23  25
ATOM     25  C   UNL     1       5.752  -0.523  25.985  0.00  0.00    +0.024 A 
ATOM     26  C   UNL     1       6.418  -0.202  27.177  0.00  0.00    +0.012 A 
ATOM     27  C   UNL     1       7.112   1.007  27.297  0.00  0.00    +0.001 A 
ATOM     28  C   UNL     1       7.159   1.896  26.225  0.00  0.00    +0.000 A 
ATOM     29  C   UNL     1       6.493   1.593  25.039  0.00  0.00    +0.001 A 
ATOM     30  C   UNL     1       5.790   0.390  24.920  0.00  0.00    +0.012 A 
ENDBRANCH  23  25
ENDBRANCH   9  23
TORSDOF 5
ENDMDL
MODEL 7
REMARK VINA RESULT:      -7.5      2.280      3.247
REMARK  Name = 
REMARK  5 active torsions:
REMARK  status: ('A' for Active; 'I' for Inactive)
REMARK    1  A    between atoms: N_1  and  C_2
REMARK    2  A    between atoms: C_3  and  C_21
REMARK    3  A    between atoms: C_6  and  C_11
REMARK    4  A    between atoms: C_11  and  C_13
REMARK    5  A    between atoms: C_21  and  C_23
REMARK                            x       y       z     vdW  Elec       q    Type
REMARK                         _______ _______ _______ _____ _____    ______ ____
ROOT
ATOM      1  C   UNL     1       6.461  -5.323  23.163  0.00  0.00    +0.146 A 
ATOM      2  N   UNL     1       7.013  -4.585  22.174  0.00  0.00    -0.213 NA
ATOM      3  C   UNL     1       7.664  -3.629  22.796  0.00  0.00    +0.140 A 
ATOM      4  N   UNL     1       7.517  -3.723  24.180  0.00  0.00    -0.294 N 
ATOM      5  C   UNL     1       7.976  -2.734  25.060  0.00  0.00    +0.105 A 
ATOM      6  C   UNL     1       8.571  -1.628  24.564  0.00  0.00    +0.039 A 
ATOM      7  C   UNL     1       8.876  -1.599  23.131  0.00  0.00    +0.017 A 
ATOM      8  C   UNL     1       8.435  -2.551  22.289  0.00  0.00    +0.047 A 
ATOM      9  C   UNL     1       6.837  -4.909  24.423  0.00  0.00    +0.135 A 
ENDROOT
BRANCH   1  10
ATOM     10  N   UNL     1       5.641  -6.322  22.823  0.00  0.00    -0.341 N 
ATOM     11  H   UNL     1       5.133  -6.744  23.597  0.00  0.00    +0.144 HD
ATOM     12  H   UNL     1       5.935  -7.013  22.140  0.00  0.00    +0.144 HD
ENDBRANCH   1  10
BRANCH   6  13
ATOM     13  C   UNL     1       8.956  -0.438  25.393  0.00  0.00    +0.200 C 
ATOM     14  O   UNL     1       9.181  -0.585  26.593  0.00  0.00    -0.286 OA
BRANCH  13  15
ATOM     15  C   UNL     1       9.154   0.898  24.783  0.00  0.00    +0.093 A 
ATOM     16  C   UNL     1       8.093   1.734  24.425  0.00  0.00    +0.137 A 
ATOM     17  F   UNL     1       6.821   1.395  24.674  0.00  0.00    -0.205 F 
ATOM     18  C   UNL     1       8.314   2.940  23.755  0.00  0.00    +0.039 A 
ATOM     19  C   UNL     1       9.608   3.315  23.401  0.00  0.00    +0.006 A 
ATOM     20  C   UNL     1      10.676   2.491  23.745  0.00  0.00    +0.039 A 
ATOM     21  C   UNL     1      10.447   1.299  24.435  0.00  0.00    +0.137 A 
ATOM     22  F   UNL     1      11.514   0.553  24.756  0.00  0.00    -0.205 F 
ENDBRANCH  13  15
ENDBRANCH   6  13
BRANCH   9  23
ATOM     23  C   UNL     1       6.588  -5.475  25.728  0.00  0.00    +0.213 C 
ATOM     24  O   UNL     1       7.482  -5.985  26.403  0.00  0.00    -0.285 OA
BRANCH  23  25
ATOM     25  C   UNL     1       5.198  -5.514  26.288  0.00  0.00    +0.024 A 
ATOM     26  C   UNL     1       4.536  -4.362  26.735  0.00  0.00    +0.012 A 
ATOM     27  C   UNL     1       3.203  -4.428  27.152  0.00  0.00    +0.001 A 
ATOM     28  C   UNL     1       2.516  -5.640  27.113  0.00  0.00    +0.000 A 
ATOM     29  C   UNL     1       3.165  -6.794  26.680  0.00  0.00    +0.001 A 
ATOM     30  C   UNL     1       4.502  -6.733  26.271  0.00  0.00    +0.012 A 
ENDBRANCH  23  25
ENDBRANCH   9  23
TORSDOF 5
ENDMDL
MODEL 8
REMARK VINA RESULT:      -7.4      3.887      7.522
REMARK  Name = 
REMARK  5 active torsions:
REMARK  status: ('A' for Active; 'I' for Inactive)
REMARK    1  A    between atoms: N_1  and  C_2
REMARK    2  A    between atoms: C_3  and  C_21
REMARK    3  A    between atoms: C_6  and  C_11
REMARK    4  A    between atoms: C_11  and  C_13
REMARK    5  A    between atoms: C_21  and  C_23
REMARK                            x       y       z     vdW  Elec       q    Type
REMARK                         _______ _______ _______ _____ _____    ______ ____
ROOT
ATOM      1  C   UNL     1       7.495   4.589  22.973  0.00  0.00    +0.146 A 
ATOM      2  N   UNL     1       6.215   4.698  23.392  0.00  0.00    -0.213 NA
ATOM      3  C   UNL     1       5.970   3.565  24.011  0.00  0.00    +0.140 A 
ATOM      4  N   UNL     1       7.072   2.710  23.974  0.00  0.00    -0.294 N 
ATOM      5  C   UNL     1       7.016   1.384  24.419  0.00  0.00    +0.105 A 
ATOM      6  C   UNL     1       5.851   0.888  24.888  0.00  0.00    +0.039 A 
ATOM      7  C   UNL     1       4.739   1.823  25.083  0.00  0.00    +0.017 A 
ATOM      8  C   UNL     1       4.797   3.097  24.656  0.00  0.00    +0.047 A 
ATOM      9  C   UNL     1       8.112   3.436  23.408  0.00  0.00    +0.135 A 
ENDROOT
BRANCH   1  10
ATOM     10  N   UNL     1       7.995   5.566  22.211  0.00  0.00    -0.341 N 
ATOM     11  H   UNL     1       7.547   6.472  22.323  0.00  0.00    +0.144 HD
ATOM     12  H   UNL     1       8.244   5.383  21.244  0.00  0.00    +0.144 HD
ENDBRANCH   1  10
BRANCH   6  13
ATOM     13  C   UNL     1       5.633  -0.554  25.239  0.00  0.00    +0.200 C 
ATOM     14  O   UNL     1       4.548  -0.906  25.700  0.00  0.00    -0.286 OA
BRANCH  13  15
ATOM     15  C   UNL     1       6.665  -1.582  24.965  0.00  0.00    +0.093 A 
ATOM     16  C   UNL     1       6.667  -2.366  23.809  0.00  0.00    +0.137 A 
ATOM     17  F   UNL     1       5.759  -2.186  22.841  0.00  0.00    -0.205 F 
ATOM     18  C   UNL     1       7.594  -3.397  23.634  0.00  0.00    +0.039 A 
ATOM     19  C   UNL     1       8.517  -3.683  24.636  0.00  0.00    +0.006 A 
ATOM     20  C   UNL     1       8.525  -2.915  25.797  0.00  0.00    +0.039 A 
ATOM     21  C   UNL     1       7.611  -1.872  25.953  0.00  0.00    +0.137 A 
ATOM     22  F   UNL     1       7.675  -1.154  27.084  0.00  0.00    -0.205 F 
ENDBRANCH  13  15
ENDBRANCH   6  13
BRANCH   9  23
ATOM     23  C   UNL     1       9.480   2.985  23.300  0.00  0.00    +0.213 C 
ATOM     24  O   UNL     1      10.435   3.751  23.432  0.00  0.00    -0.285 OA
BRANCH  23  25
ATOM     25  C   UNL     1       9.786   1.558  22.959  0.00  0.00    +0.024 A 
ATOM     26  C   UNL     1      10.361   0.673  23.882  0.00  0.00    +0.012 A 
ATOM     27  C   UNL     1      10.534  -0.676  23.555  0.00  0.00    +0.001 A 
ATOM     28  C   UNL     1      10.121  -1.155  22.313  0.00  0.00    +0.000 A 
ATOM     29  C   UNL     1       9.558  -0.283  21.384  0.00  0.00    +0.001 A 
ATOM     30  C   UNL     1       9.393   1.069  21.703  0.00  0.00    +0.012 A 
ENDBRANCH  23  25
ENDBRANCH   9  23
TORSDOF 5
ENDMDL
MODEL 9
REMARK VINA RESULT:      -7.4      2.058      2.981
REMARK  Name = 
REMARK  5 active torsions:
REMARK  status: ('A' for Active; 'I' for Inactive)
REMARK    1  A    between atoms: N_1  and  C_2
REMARK    2  A    between atoms: C_3  and  C_21
REMARK    3  A    between atoms: C_6  and  C_11
REMARK    4  A    between atoms: C_11  and  C_13
REMARK    5  A    between atoms: C_21  and  C_23
REMARK                            x       y       z     vdW  Elec       q    Type
REMARK                         _______ _______ _______ _____ _____    ______ ____
ROOT
ATOM      1  C   UNL     1       6.210  -5.930  27.493  0.00  0.00    +0.146 A 
ATOM      2  N   UNL     1       7.546  -5.730  27.530  0.00  0.00    -0.213 NA
ATOM      3  C   UNL     1       7.778  -4.857  26.575  0.00  0.00    +0.140 A 
ATOM      4  N   UNL     1       6.606  -4.508  25.902  0.00  0.00    -0.294 N 
ATOM      5  C   UNL     1       6.604  -3.722  24.744  0.00  0.00    +0.105 A 
ATOM      6  C   UNL     1       7.776  -3.290  24.231  0.00  0.00    +0.039 A 
ATOM      7  C   UNL     1       8.991  -3.512  25.021  0.00  0.00    +0.017 A 
ATOM      8  C   UNL     1       8.989  -4.266  26.134  0.00  0.00    +0.047 A 
ATOM      9  C   UNL     1       5.563  -5.113  26.591  0.00  0.00    +0.135 A 
ENDROOT
BRANCH   1  10
ATOM     10  N   UNL     1       5.690  -6.863  28.297  0.00  0.00    -0.341 N 
ATOM     11  H   UNL     1       4.684  -6.796  28.439  0.00  0.00    +0.144 HD
ATOM     12  H   UNL     1       6.176  -7.135  29.145  0.00  0.00    +0.144 HD
ENDBRANCH   1  10
BRANCH   6  13
ATOM     13  C   UNL     1       7.907  -2.581  22.915  0.00  0.00    +0.200 C 
ATOM     14  O   UNL     1       7.623  -3.176  21.877  0.00  0.00    -0.286 OA
BRANCH  13  15
ATOM     15  C   UNL     1       8.292  -1.151  22.842  0.00  0.00    +0.093 A 
ATOM     16  C   UNL     1       7.415  -0.112  23.165  0.00  0.00    +0.137 A 
ATOM     17  F   UNL     1       6.181  -0.357  23.625  0.00  0.00    -0.205 F 
ATOM     18  C   UNL     1       7.777   1.225  22.983  0.00  0.00    +0.039 A 
ATOM     19  C   UNL     1       9.019   1.544  22.439  0.00  0.00    +0.006 A 
ATOM     20  C   UNL     1       9.902   0.521  22.107  0.00  0.00    +0.039 A 
ATOM     21  C   UNL     1       9.541  -0.812  22.314  0.00  0.00    +0.137 A 
ATOM     22  F   UNL     1      10.437  -1.755  21.992  0.00  0.00    -0.205 F 
ENDBRANCH  13  15
ENDBRANCH   6  13
BRANCH   9  23
ATOM     23  C   UNL     1       4.159  -4.910  26.323  0.00  0.00    +0.213 C 
ATOM     24  O   UNL     1       3.458  -4.175  27.018  0.00  0.00    -0.285 OA
BRANCH  23  25
ATOM     25  C   UNL     1       3.483  -5.648  25.207  0.00  0.00    +0.024 A 
ATOM     26  C   UNL     1       3.353  -7.044  25.201  0.00  0.00    +0.012 A 
ATOM     27  C   UNL     1       2.624  -7.683  24.193  0.00  0.00    +0.001 A 
ATOM     28  C   UNL     1       2.005  -6.934  23.194  0.00  0.00    +0.000 A 
ATOM     29  C   UNL     1       2.135  -5.547  23.183  0.00  0.00    +0.001 A 
ATOM     30  C   UNL     1       2.873  -4.906  24.184  0.00  0.00    +0.012 A 
ENDBRANCH  23  25
ENDBRANCH   9  23
TORSDOF 5
ENDMDL
