MODEL 1
REMARK VINA RESULT:      -5.7      0.000      0.000
REMARK  Name = 
REMARK  14 active torsions:
REMARK  status: ('A' for Active; 'I' for Inactive)
REMARK    1  A    between atoms: O_1  and  C_2
REMARK    2  A    between atoms: C_4  and  O_6
REMARK    3  A    between atoms: C_7  and  O_18
REMARK    4  A    between atoms: C_10  and  C_12
REMARK    5  A    between atoms: C_12  and  O_13
REMARK    6  A    between atoms: O_13  and  P_14
REMARK    7  A    between atoms: P_14  and  O_15
REMARK    8  A    between atoms: P_14  and  O_16
REMARK    9  A    between atoms: O_18  and  P_19
REMARK   10  A    between atoms: P_19  and  O_20
REMARK   11  A    between atoms: P_19  and  O_22
REMARK   12  A    between atoms: O_22  and  P_23
REMARK   13  A    between atoms: P_23  and  O_24
REMARK   14  A    between atoms: P_23  and  O_25
REMARK                            x       y       z     vdW  Elec       q    Type
REMARK                         _______ _______ _______ _____ _____    ______ ____
ROOT
ATOM      1  C   UNL     1       7.595  -0.529  22.865  0.00  0.00    +0.151 C 
ATOM      2  C   UNL     1       7.772  -0.052  24.304  0.00  0.00    +0.049 C 
ATOM      3  C   UNL     1       8.496  -1.288  24.925  0.00  0.00    +0.043 C 
ATOM      4  C   UNL     1       9.503  -1.784  23.851  0.00  0.00    +0.162 C 
ATOM      5  C   UNL     1       8.872  -1.333  22.517  0.00  0.00    +0.172 C 
ENDROOT
BRANCH   1   6
ATOM      6  O   UNL     1       6.439  -1.374  22.795  0.00  0.00    -0.389 OA
ATOM      7  H   UNL     1       6.715  -2.303  22.685  0.00  0.00    +0.210 HD
ENDBRANCH   1   6
BRANCH   5   8
ATOM      8  O   UNL     1       9.850  -0.518  21.872  0.00  0.00    -0.387 OA
ATOM      9  H   UNL     1       9.964  -0.856  20.966  0.00  0.00    +0.210 HD
ENDBRANCH   5   8
BRANCH   2  10
ATOM     10  C   UNL     1       8.591   1.256  24.426  0.00  0.00    +0.178 C 
BRANCH  10  11
ATOM     11  O   UNL     1       8.679   2.126  23.246  0.00  0.00    -0.286 OA
BRANCH  11  12
ATOM     12  P   UNL     1      10.212   2.922  23.335  0.00  0.00    +0.472 P 
ATOM     13  O   UNL     1      11.585   3.634  23.415  0.00  0.00    -0.228 OA
BRANCH  12  14
ATOM     14  O   UNL     1      10.378   2.414  21.785  0.00  0.00    -0.303 OA
ATOM     15  H   UNL     1       9.602   2.656  21.251  0.00  0.00    +0.222 HD
ENDBRANCH  12  14
BRANCH  12  16
ATOM     16  O   UNL     1      10.749   1.502  23.952  0.00  0.00    -0.303 OA
ATOM     17  H   UNL     1      11.676   1.429  23.656  0.00  0.00    +0.222 HD
ENDBRANCH  12  16
ENDBRANCH  11  12
ENDBRANCH  10  11
ENDBRANCH   2  10
BRANCH   4  18
ATOM     18  O   UNL     1       9.737  -3.197  23.905  0.00  0.00    -0.280 OA
BRANCH  18  19
ATOM     19  P   UNL     1       8.513  -4.214  24.438  0.00  0.00    +0.484 P 
ATOM     20  O   UNL     1       8.982  -5.635  24.126  0.00  0.00    -0.227 OA
BRANCH  19  21
ATOM     21  O   UNL     1       9.325  -4.347  25.960  0.00  0.00    -0.302 OA
ATOM     22  H   UNL     1       9.483  -5.311  26.034  0.00  0.00    +0.222 HD
ENDBRANCH  19  21
BRANCH  19  23
ATOM     23  O   UNL     1       7.702  -4.081  22.916  0.00  0.00    -0.186 OA
BRANCH  23  24
ATOM     24  P   UNL     1       6.417  -4.943  22.586  0.00  0.00    +0.481 P 
ATOM     25  O   UNL     1       5.339  -4.253  21.832  0.00  0.00    -0.227 OA
BRANCH  24  26
ATOM     26  O   UNL     1       6.022  -5.685  23.940  0.00  0.00    -0.302 OA
ATOM     27  H   UNL     1       5.649  -6.564  23.768  0.00  0.00    +0.222 HD
ENDBRANCH  24  26
BRANCH  24  28
ATOM     28  O   UNL     1       7.022  -6.170  21.763  0.00  0.00    -0.302 OA
ATOM     29  H   UNL     1       7.436  -5.871  20.932  0.00  0.00    +0.222 HD
ENDBRANCH  24  28
ENDBRANCH  23  24
ENDBRANCH  19  23
ENDBRANCH  18  19
ENDBRANCH   4  18
TORSDOF 14
ENDMDL
MODEL 2
REMARK VINA RESULT:      -5.6      2.719      6.151
REMARK  Name = 
REMARK  14 active torsions:
REMARK  status: ('A' for Active; 'I' for Inactive)
REMARK    1  A    between atoms: O_1  and  C_2
REMARK    2  A    between atoms: C_4  and  O_6
REMARK    3  A    between atoms: C_7  and  O_18
REMARK    4  A    between atoms: C_10  and  C_12
REMARK    5  A    between atoms: C_12  and  O_13
REMARK    6  A    between atoms: O_13  and  P_14
REMARK    7  A    between atoms: P_14  and  O_15
REMARK    8  A    between atoms: P_14  and  O_16
REMARK    9  A    between atoms: O_18  and  P_19
REMARK   10  A    between atoms: P_19  and  O_20
REMARK   11  A    between atoms: P_19  and  O_22
REMARK   12  A    between atoms: O_22  and  P_23
REMARK   13  A    between atoms: P_23  and  O_24
REMARK   14  A    between atoms: P_23  and  O_25
REMARK                            x       y       z     vdW  Elec       q    Type
REMARK                         _______ _______ _______ _____ _____    ______ ____
ROOT
ATOM      1  C   UNL     1       7.816  -5.349  25.887  0.00  0.00    +0.151 C 
ATOM      2  C   UNL     1       6.405  -4.818  25.649  0.00  0.00    +0.049 C 
ATOM      3  C   UNL     1       6.595  -3.320  26.045  0.00  0.00    +0.043 C 
ATOM      4  C   UNL     1       7.984  -2.899  25.490  0.00  0.00    +0.162 C 
ATOM      5  C   UNL     1       8.781  -4.219  25.450  0.00  0.00    +0.172 C 
ENDROOT
BRANCH   1   6
ATOM      6  O   UNL     1       7.977  -5.628  27.285  0.00  0.00    -0.389 OA
ATOM      7  H   UNL     1       7.513  -4.953  27.812  0.00  0.00    +0.210 HD
ENDBRANCH   1   6
BRANCH   5   8
ATOM      8  O   UNL     1       9.208  -4.384  24.099  0.00  0.00    -0.387 OA
ATOM      9  H   UNL     1       8.885  -5.249  23.791  0.00  0.00    +0.210 HD
ENDBRANCH   5   8
BRANCH   2  10
ATOM     10  C   UNL     1       5.912  -5.004  24.193  0.00  0.00    +0.178 C 
BRANCH  10  11
ATOM     11  O   UNL     1       6.690  -5.881  23.309  0.00  0.00    -0.286 OA
BRANCH  11  12
ATOM     12  P   UNL     1       6.298  -5.420  21.689  0.00  0.00    +0.472 P 
ATOM     13  O   UNL     1       5.946  -5.007  20.239  0.00  0.00    -0.228 OA
BRANCH  12  14
ATOM     14  O   UNL     1       7.077  -4.030  22.073  0.00  0.00    -0.303 OA
ATOM     15  H   UNL     1       6.644  -3.260  21.666  0.00  0.00    +0.222 HD
ENDBRANCH  12  14
BRANCH  12  16
ATOM     16  O   UNL     1       4.881  -4.909  22.333  0.00  0.00    -0.303 OA
ATOM     17  H   UNL     1       4.909  -5.187  23.268  0.00  0.00    +0.222 HD
ENDBRANCH  12  16
ENDBRANCH  11  12
ENDBRANCH  10  11
ENDBRANCH   2  10
BRANCH   4  18
ATOM     18  O   UNL     1       8.624  -1.887  26.278  0.00  0.00    -0.280 OA
BRANCH  18  19
ATOM     19  P   UNL     1       9.049  -0.431  25.560  0.00  0.00    +0.484 P 
ATOM     20  O   UNL     1       7.871  -0.042  24.668  0.00  0.00    -0.227 OA
BRANCH  19  21
ATOM     21  O   UNL     1       8.265   0.405  26.855  0.00  0.00    -0.302 OA
ATOM     22  H   UNL     1       8.218  -0.280  27.554  0.00  0.00    +0.222 HD
ENDBRANCH  19  21
BRANCH  19  23
ATOM     23  O   UNL     1       9.834  -1.268  24.265  0.00  0.00    -0.186 OA
BRANCH  23  24
ATOM     24  P   UNL     1       9.709  -0.774  22.767  0.00  0.00    +0.481 P 
ATOM     25  O   UNL     1      10.097   0.635  22.505  0.00  0.00    -0.227 OA
BRANCH  24  26
ATOM     26  O   UNL     1       8.279  -1.260  22.259  0.00  0.00    -0.302 OA
ATOM     27  H   UNL     1       8.228  -1.262  21.290  0.00  0.00    +0.222 HD
ENDBRANCH  24  26
BRANCH  24  28
ATOM     28  O   UNL     1      10.647  -1.801  21.982  0.00  0.00    -0.302 OA
ATOM     29  H   UNL     1      10.122  -2.475  21.514  0.00  0.00    +0.222 HD
ENDBRANCH  24  28
ENDBRANCH  23  24
ENDBRANCH  19  23
ENDBRANCH  18  19
ENDBRANCH   4  18
TORSDOF 14
ENDMDL
MODEL 3
REMARK VINA RESULT:      -5.5      2.180      6.720
REMARK  Name = 
REMARK  14 active torsions:
REMARK  status: ('A' for Active; 'I' for Inactive)
REMARK    1  A    between atoms: O_1  and  C_2
REMARK    2  A    between atoms: C_4  and  O_6
REMARK    3  A    between atoms: C_7  and  O_18
REMARK    4  A    between atoms: C_10  and  C_12
REMARK    5  A    between atoms: C_12  and  O_13
REMARK    6  A    between atoms: O_13  and  P_14
REMARK    7  A    between atoms: P_14  and  O_15
REMARK    8  A    between atoms: P_14  and  O_16
REMARK    9  A    between atoms: O_18  and  P_19
REMARK   10  A    between atoms: P_19  and  O_20
REMARK   11  A    between atoms: P_19  and  O_22
REMARK   12  A    between atoms: O_22  and  P_23
REMARK   13  A    between atoms: P_23  and  O_24
REMARK   14  A    between atoms: P_23  and  O_25
REMARK                            x       y       z     vdW  Elec       q    Type
REMARK                         _______ _______ _______ _____ _____    ______ ____
ROOT
ATOM      1  C   UNL     1       9.280  -1.884  22.351  0.00  0.00    +0.151 C 
ATOM      2  C   UNL     1       9.936  -2.026  23.722  0.00  0.00    +0.049 C 
ATOM      3  C   UNL     1       9.905  -0.542  24.206  0.00  0.00    +0.043 C 
ATOM      4  C   UNL     1       8.535   0.034  23.750  0.00  0.00    +0.162 C 
ATOM      5  C   UNL     1       8.174  -0.812  22.510  0.00  0.00    +0.172 C 
ENDROOT
BRANCH   1   6
ATOM      6  O   UNL     1      10.267  -1.445  21.408  0.00  0.00    -0.389 OA
ATOM      7  H   UNL     1       9.888  -1.439  20.510  0.00  0.00    +0.210 HD
ENDBRANCH   1   6
BRANCH   5   8
ATOM      8  O   UNL     1       6.904  -1.401  22.789  0.00  0.00    -0.387 OA
ATOM      9  H   UNL     1       6.998  -1.934  23.599  0.00  0.00    +0.210 HD
ENDBRANCH   5   8
BRANCH   2  10
ATOM     10  C   UNL     1       9.182  -2.990  24.671  0.00  0.00    +0.178 C 
BRANCH  10  11
ATOM     11  O   UNL     1       9.719  -4.345  24.845  0.00  0.00    -0.286 OA
BRANCH  11  12
ATOM     12  P   UNL     1       8.573  -5.208  25.812  0.00  0.00    +0.472 P 
ATOM     13  O   UNL     1       7.548  -5.980  26.677  0.00  0.00    -0.228 OA
BRANCH  12  14
ATOM     14  O   UNL     1       9.511  -4.718  27.063  0.00  0.00    -0.303 OA
ATOM     15  H   UNL     1      10.455  -4.745  26.827  0.00  0.00    +0.222 HD
ENDBRANCH  12  14
BRANCH  12  16
ATOM     16  O   UNL     1       9.513  -6.513  25.501  0.00  0.00    -0.303 OA
ATOM     17  H   UNL     1      10.057  -6.260  24.731  0.00  0.00    +0.222 HD
ENDBRANCH  12  16
ENDBRANCH  11  12
ENDBRANCH  10  11
ENDBRANCH   2  10
BRANCH   4  18
ATOM     18  O   UNL     1       8.577   1.439  23.472  0.00  0.00    -0.280 OA
BRANCH  18  19
ATOM     19  P   UNL     1       8.068   1.996  21.973  0.00  0.00    +0.484 P 
ATOM     20  O   UNL     1       7.930   3.512  22.113  0.00  0.00    -0.227 OA
BRANCH  19  21
ATOM     21  O   UNL     1       9.722   2.249  21.536  0.00  0.00    -0.302 OA
ATOM     22  H   UNL     1      10.126   1.374  21.713  0.00  0.00    +0.222 HD
ENDBRANCH  19  21
BRANCH  19  23
ATOM     23  O   UNL     1       6.413   1.743  22.410  0.00  0.00    -0.186 OA
BRANCH  23  24
ATOM     24  P   UNL     1       5.627   2.783  23.306  0.00  0.00    +0.481 P 
ATOM     25  O   UNL     1       4.898   3.855  22.581  0.00  0.00    -0.227 OA
BRANCH  24  26
ATOM     26  O   UNL     1       6.630   3.218  24.465  0.00  0.00    -0.302 OA
ATOM     27  H   UNL     1       7.146   4.000  24.214  0.00  0.00    +0.222 HD
ENDBRANCH  24  26
BRANCH  24  28
ATOM     28  O   UNL     1       4.632   1.848  24.135  0.00  0.00    -0.302 OA
ATOM     29  H   UNL     1       3.909   1.515  23.573  0.00  0.00    +0.222 HD
ENDBRANCH  24  28
ENDBRANCH  23  24
ENDBRANCH  19  23
ENDBRANCH  18  19
ENDBRANCH   4  18
TORSDOF 14
ENDMDL
MODEL 4
REMARK VINA RESULT:      -5.5      2.440      6.965
REMARK  Name = 
REMARK  14 active torsions:
REMARK  status: ('A' for Active; 'I' for Inactive)
REMARK    1  A    between atoms: O_1  and  C_2
REMARK    2  A    between atoms: C_4  and  O_6
REMARK    3  A    between atoms: C_7  and  O_18
REMARK    4  A    between atoms: C_10  and  C_12
REMARK    5  A    between atoms: C_12  and  O_13
REMARK    6  A    between atoms: O_13  and  P_14
REMARK    7  A    between atoms: P_14  and  O_15
REMARK    8  A    between atoms: P_14  and  O_16
REMARK    9  A    between atoms: O_18  and  P_19
REMARK   10  A    between atoms: P_19  and  O_20
REMARK   11  A    between atoms: P_19  and  O_22
REMARK   12  A    between atoms: O_22  and  P_23
REMARK   13  A    between atoms: P_23  and  O_24
REMARK   14  A    between atoms: P_23  and  O_25
REMARK                            x       y       z     vdW  Elec       q    Type
REMARK                         _______ _______ _______ _____ _____    ______ ____
ROOT
ATOM      1  C   UNL     1       8.300  -5.067  26.026  0.00  0.00    +0.151 C 
ATOM      2  C   UNL     1       7.037  -4.281  26.371  0.00  0.00    +0.049 C 
ATOM      3  C   UNL     1       7.436  -2.863  25.853  0.00  0.00    +0.043 C 
ATOM      4  C   UNL     1       8.202  -3.088  24.521  0.00  0.00    +0.162 C 
ATOM      5  C   UNL     1       8.805  -4.500  24.676  0.00  0.00    +0.172 C 
ENDROOT
BRANCH   1   6
ATOM      6  O   UNL     1       9.277  -4.849  27.053  0.00  0.00    -0.389 OA
ATOM      7  H   UNL     1      10.128  -5.244  26.790  0.00  0.00    +0.210 HD
ENDBRANCH   1   6
BRANCH   5   8
ATOM      8  O   UNL     1       8.320  -5.262  23.570  0.00  0.00    -0.387 OA
ATOM      9  H   UNL     1       7.475  -5.665  23.839  0.00  0.00    +0.210 HD
ENDBRANCH   5   8
BRANCH   2  10
ATOM     10  C   UNL     1       5.760  -4.837  25.696  0.00  0.00    +0.178 C 
BRANCH  10  11
ATOM     11  O   UNL     1       5.880  -6.065  24.900  0.00  0.00    -0.286 OA
BRANCH  11  12
ATOM     12  P   UNL     1       4.638  -5.996  23.698  0.00  0.00    +0.472 P 
ATOM     13  O   UNL     1       3.527  -5.934  22.622  0.00  0.00    -0.228 OA
BRANCH  12  14
ATOM     14  O   UNL     1       4.329  -7.536  24.167  0.00  0.00    -0.303 OA
ATOM     15  H   UNL     1       4.377  -8.149  23.413  0.00  0.00    +0.222 HD
ENDBRANCH  12  14
BRANCH  12  16
ATOM     16  O   UNL     1       5.820  -6.454  22.660  0.00  0.00    -0.303 OA
ATOM     17  H   UNL     1       5.669  -5.927  21.852  0.00  0.00    +0.222 HD
ENDBRANCH  12  16
ENDBRANCH  11  12
ENDBRANCH  10  11
ENDBRANCH   2  10
BRANCH   4  18
ATOM     18  O   UNL     1       9.193  -2.086  24.263  0.00  0.00    -0.280 OA
BRANCH  18  19
ATOM     19  P   UNL     1       9.213  -1.311  22.774  0.00  0.00    +0.484 P 
ATOM     20  O   UNL     1      10.447  -1.838  22.042  0.00  0.00    -0.227 OA
BRANCH  19  21
ATOM     21  O   UNL     1       8.326  -2.637  22.104  0.00  0.00    -0.302 OA
ATOM     22  H   UNL     1       8.191  -3.218  22.881  0.00  0.00    +0.222 HD
ENDBRANCH  19  21
BRANCH  19  23
ATOM     23  O   UNL     1      10.100   0.014  23.445  0.00  0.00    -0.186 OA
BRANCH  23  24
ATOM     24  P   UNL     1       9.492   0.919  24.591  0.00  0.00    +0.481 P 
ATOM     25  O   UNL     1       9.708   2.382  24.457  0.00  0.00    -0.227 OA
BRANCH  24  26
ATOM     26  O   UNL     1       9.904   0.229  25.967  0.00  0.00    -0.302 OA
ATOM     27  H   UNL     1       9.350   0.538  26.700  0.00  0.00    +0.222 HD
ENDBRANCH  24  26
BRANCH  24  28
ATOM     28  O   UNL     1       7.940   0.544  24.546  0.00  0.00    -0.302 OA
ATOM     29  H   UNL     1       7.488   0.992  23.807  0.00  0.00    +0.222 HD
ENDBRANCH  24  28
ENDBRANCH  23  24
ENDBRANCH  19  23
ENDBRANCH  18  19
ENDBRANCH   4  18
TORSDOF 14
ENDMDL
MODEL 5
REMARK VINA RESULT:      -5.5      1.878      6.902
REMARK  Name = 
REMARK  14 active torsions:
REMARK  status: ('A' for Active; 'I' for Inactive)
REMARK    1  A    between atoms: O_1  and  C_2
REMARK    2  A    between atoms: C_4  and  O_6
REMARK    3  A    between atoms: C_7  and  O_18
REMARK    4  A    between atoms: C_10  and  C_12
REMARK    5  A    between atoms: C_12  and  O_13
REMARK    6  A    between atoms: O_13  and  P_14
REMARK    7  A    between atoms: P_14  and  O_15
REMARK    8  A    between atoms: P_14  and  O_16
REMARK    9  A    between atoms: O_18  and  P_19
REMARK   10  A    between atoms: P_19  and  O_20
REMARK   11  A    between atoms: P_19  and  O_22
REMARK   12  A    between atoms: O_22  and  P_23
REMARK   13  A    between atoms: P_23  and  O_24
REMARK   14  A    between atoms: P_23  and  O_25
REMARK                            x       y       z     vdW  Elec       q    Type
REMARK                         _______ _______ _______ _____ _____    ______ ____
ROOT
ATOM      1  C   UNL     1      10.374  -0.510  23.425  0.00  0.00    +0.151 C 
ATOM      2  C   UNL     1       9.553  -1.431  24.325  0.00  0.00    +0.049 C 
ATOM      3  C   UNL     1       8.189  -0.671  24.338  0.00  0.00    +0.043 C 
ATOM      4  C   UNL     1       7.971  -0.148  22.891  0.00  0.00    +0.162 C 
ATOM      5  C   UNL     1       9.402   0.006  22.335  0.00  0.00    +0.172 C 
ENDROOT
BRANCH   1   6
ATOM      6  O   UNL     1      10.868   0.584  24.209  0.00  0.00    -0.389 OA
ATOM      7  H   UNL     1      11.554   0.267  24.825  0.00  0.00    +0.210 HD
ENDBRANCH   1   6
BRANCH   5   8
ATOM      8  O   UNL     1       9.458  -0.797  21.157  0.00  0.00    -0.387 OA
ATOM      9  H   UNL     1      10.277  -0.568  20.682  0.00  0.00    +0.210 HD
ENDBRANCH   5   8
BRANCH   2  10
ATOM     10  C   UNL     1       9.438  -2.878  23.788  0.00  0.00    +0.178 C 
BRANCH  10  11
ATOM     11  O   UNL     1      10.141  -3.941  24.517  0.00  0.00    -0.286 OA
BRANCH  11  12
ATOM     12  P   UNL     1       8.928  -4.851  25.349  0.00  0.00    +0.472 P 
ATOM     13  O   UNL     1       7.843  -5.666  26.093  0.00  0.00    -0.228 OA
BRANCH  12  14
ATOM     14  O   UNL     1      10.138  -5.932  25.585  0.00  0.00    -0.303 OA
ATOM     15  H   UNL     1       9.988  -6.458  26.390  0.00  0.00    +0.222 HD
ENDBRANCH  12  14
BRANCH  12  16
ATOM     16  O   UNL     1       8.565  -5.446  23.866  0.00  0.00    -0.303 OA
ATOM     17  H   UNL     1       8.474  -6.410  23.992  0.00  0.00    +0.222 HD
ENDBRANCH  12  16
ENDBRANCH  11  12
ENDBRANCH  10  11
ENDBRANCH   2  10
BRANCH   4  18
ATOM     18  O   UNL     1       7.220   1.071  22.838  0.00  0.00    -0.280 OA
BRANCH  18  19
ATOM     19  P   UNL     1       6.817   1.853  24.267  0.00  0.00    +0.484 P 
ATOM     20  O   UNL     1       6.216   3.197  23.856  0.00  0.00    -0.227 OA
BRANCH  19  21
ATOM     21  O   UNL     1       5.228   1.179  24.155  0.00  0.00    -0.302 OA
ATOM     22  H   UNL     1       5.102   0.780  25.041  0.00  0.00    +0.222 HD
ENDBRANCH  19  21
BRANCH  19  23
ATOM     23  O   UNL     1       8.406   2.527  24.378  0.00  0.00    -0.186 OA
BRANCH  23  24
ATOM     24  P   UNL     1       8.859   3.731  23.457  0.00  0.00    +0.481 P 
ATOM     25  O   UNL     1       8.736   5.089  24.045  0.00  0.00    -0.227 OA
BRANCH  24  26
ATOM     26  O   UNL     1       8.196   3.473  22.032  0.00  0.00    -0.302 OA
ATOM     27  H   UNL     1       8.186   4.280  21.494  0.00  0.00    +0.222 HD
ENDBRANCH  24  26
BRANCH  24  28
ATOM     28  O   UNL     1      10.379   3.365  23.128  0.00  0.00    -0.302 OA
ATOM     29  H   UNL     1      10.627   3.654  22.231  0.00  0.00    +0.222 HD
ENDBRANCH  24  28
ENDBRANCH  23  24
ENDBRANCH  19  23
ENDBRANCH  18  19
ENDBRANCH   4  18
TORSDOF 14
ENDMDL
MODEL 6
REMARK VINA RESULT:      -5.5      3.039      4.367
REMARK  Name = 
REMARK  14 active torsions:
REMARK  status: ('A' for Active; 'I' for Inactive)
REMARK    1  A    between atoms: O_1  and  C_2
REMARK    2  A    between atoms: C_4  and  O_6
REMARK    3  A    between atoms: C_7  and  O_18
REMARK    4  A    between atoms: C_10  and  C_12
REMARK    5  A    between atoms: C_12  and  O_13
REMARK    6  A    between atoms: O_13  and  P_14
REMARK    7  A    between atoms: P_14  and  O_15
REMARK    8  A    between atoms: P_14  and  O_16
REMARK    9  A    between atoms: O_18  and  P_19
REMARK   10  A    between atoms: P_19  and  O_20
REMARK   11  A    between atoms: P_19  and  O_22
REMARK   12  A    between atoms: O_22  and  P_23
REMARK   13  A    between atoms: P_23  and  O_24
REMARK   14  A    between atoms: P_23  and  O_25
REMARK                            x       y       z     vdW  Elec       q    Type
REMARK                         _______ _______ _______ _____ _____    ______ ____
ROOT
ATOM      1  C   UNL     1       7.983  -4.698  24.046  0.00  0.00    +0.151 C 
ATOM      2  C   UNL     1       7.520  -3.376  24.652  0.00  0.00    +0.049 C 
ATOM      3  C   UNL     1       7.082  -3.854  26.072  0.00  0.00    +0.043 C 
ATOM      4  C   UNL     1       8.136  -4.903  26.521  0.00  0.00    +0.162 C 
ATOM      5  C   UNL     1       8.668  -5.482  25.193  0.00  0.00    +0.172 C 
ENDROOT
BRANCH   1   6
ATOM      6  O   UNL     1       6.837  -5.416  23.567  0.00  0.00    -0.389 OA
ATOM      7  H   UNL     1       7.012  -5.760  22.673  0.00  0.00    +0.210 HD
ENDBRANCH   1   6
BRANCH   5   8
ATOM      8  O   UNL     1      10.079  -5.271  25.206  0.00  0.00    -0.387 OA
ATOM      9  H   UNL     1      10.233  -4.311  25.259  0.00  0.00    +0.210 HD
ENDBRANCH   5   8
BRANCH   2  10
ATOM     10  C   UNL     1       8.625  -2.292  24.690  0.00  0.00    +0.178 C 
BRANCH  10  11
ATOM     11  O   UNL     1       9.754  -2.427  23.760  0.00  0.00    -0.286 OA
BRANCH  11  12
ATOM     12  P   UNL     1      10.024  -0.857  23.085  0.00  0.00    +0.472 P 
ATOM     13  O   UNL     1      10.266   0.547  22.480  0.00  0.00    -0.228 OA
BRANCH  12  14
ATOM     14  O   UNL     1       8.406  -0.873  22.827  0.00  0.00    -0.303 OA
ATOM     15  H   UNL     1       7.987  -1.637  23.261  0.00  0.00    +0.222 HD
ENDBRANCH  12  14
BRANCH  12  16
ATOM     16  O   UNL     1      10.343  -1.670  21.698  0.00  0.00    -0.303 OA
ATOM     17  H   UNL     1       9.491  -2.061  21.429  0.00  0.00    +0.222 HD
ENDBRANCH  12  16
ENDBRANCH  11  12
ENDBRANCH  10  11
ENDBRANCH   2  10
BRANCH   4  18
ATOM     18  O   UNL     1       7.599  -5.908  27.389  0.00  0.00    -0.280 OA
BRANCH  18  19
ATOM     19  P   UNL     1       5.945  -5.959  27.666  0.00  0.00    +0.484 P 
ATOM     20  O   UNL     1       5.684  -7.260  28.424  0.00  0.00    -0.227 OA
BRANCH  19  21
ATOM     21  O   UNL     1       6.205  -5.193  29.196  0.00  0.00    -0.302 OA
ATOM     22  H   UNL     1       6.977  -5.682  29.550  0.00  0.00    +0.222 HD
ENDBRANCH  19  21
BRANCH  19  23
ATOM     23  O   UNL     1       5.684  -6.724  26.137  0.00  0.00    -0.186 OA
BRANCH  23  24
ATOM     24  P   UNL     1       4.261  -6.725  25.445  0.00  0.00    +0.481 P 
ATOM     25  O   UNL     1       3.119  -7.155  26.293  0.00  0.00    -0.227 OA
BRANCH  24  26
ATOM     26  O   UNL     1       4.454  -7.441  24.035  0.00  0.00    -0.302 OA
ATOM     27  H   UNL     1       4.235  -8.385  24.083  0.00  0.00    +0.222 HD
ENDBRANCH  24  26
BRANCH  24  28
ATOM     28  O   UNL     1       4.104  -5.209  24.969  0.00  0.00    -0.302 OA
ATOM     29  H   UNL     1       4.891  -4.907  24.480  0.00  0.00    +0.222 HD
ENDBRANCH  24  28
ENDBRANCH  23  24
ENDBRANCH  19  23
ENDBRANCH  18  19
ENDBRANCH   4  18
TORSDOF 14
ENDMDL
MODEL 7
REMARK VINA RESULT:      -5.4      3.294      5.244
REMARK  Name = 
REMARK  14 active torsions:
REMARK  status: ('A' for Active; 'I' for Inactive)
REMARK    1  A    between atoms: O_1  and  C_2
REMARK    2  A    between atoms: C_4  and  O_6
REMARK    3  A    between atoms: C_7  and  O_18
REMARK    4  A    between atoms: C_10  and  C_12
REMARK    5  A    between atoms: C_12  and  O_13
REMARK    6  A    between atoms: O_13  and  P_14
REMARK    7  A    between atoms: P_14  and  O_15
REMARK    8  A    between atoms: P_14  and  O_16
REMARK    9  A    between atoms: O_18  and  P_19
REMARK   10  A    between atoms: P_19  and  O_20
REMARK   11  A    between atoms: P_19  and  O_22
REMARK   12  A    between atoms: O_22  and  P_23
REMARK   13  A    between atoms: P_23  and  O_24
REMARK   14  A    between atoms: P_23  and  O_25
REMARK                            x       y       z     vdW  Elec       q    Type
REMARK                         _______ _______ _______ _____ _____    ______ ____
ROOT
ATOM      1  C   UNL     1       7.296  -4.956  22.556  0.00  0.00    +0.151 C 
ATOM      2  C   UNL     1       6.621  -3.695  22.021  0.00  0.00    +0.049 C 
ATOM      3  C   UNL     1       5.208  -3.834  22.671  0.00  0.00    +0.043 C 
ATOM      4  C   UNL     1       5.444  -4.370  24.110  0.00  0.00    +0.162 C 
ATOM      5  C   UNL     1       6.775  -5.145  24.002  0.00  0.00    +0.172 C 
ENDROOT
BRANCH   1   6
ATOM      6  O   UNL     1       6.913  -6.070  21.738  0.00  0.00    -0.389 OA
ATOM      7  H   UNL     1       5.945  -6.181  21.764  0.00  0.00    +0.210 HD
ENDBRANCH   1   6
BRANCH   5   8
ATOM      8  O   UNL     1       7.654  -4.558  24.960  0.00  0.00    -0.387 OA
ATOM      9  H   UNL     1       8.250  -3.954  24.482  0.00  0.00    +0.210 HD
ENDBRANCH   5   8
BRANCH   2  10
ATOM     10  C   UNL     1       7.347  -2.388  22.420  0.00  0.00    +0.178 C 
BRANCH  10  11
ATOM     11  O   UNL     1       8.780  -2.277  22.121  0.00  0.00    -0.286 OA
BRANCH  11  12
ATOM     12  P   UNL     1       9.506  -1.486  23.477  0.00  0.00    +0.472 P 
ATOM     13  O   UNL     1      10.155  -0.778  24.691  0.00  0.00    -0.228 OA
BRANCH  12  14
ATOM     14  O   UNL     1       9.997  -2.996  23.883  0.00  0.00    -0.303 OA
ATOM     15  H   UNL     1      10.740  -3.286  23.326  0.00  0.00    +0.222 HD
ENDBRANCH  12  14
BRANCH  12  16
ATOM     16  O   UNL     1       8.041  -1.675  24.186  0.00  0.00    -0.303 OA
ATOM     17  H   UNL     1       7.622  -0.794  24.146  0.00  0.00    +0.222 HD
ENDBRANCH  12  16
ENDBRANCH  11  12
ENDBRANCH  10  11
ENDBRANCH   2  10
BRANCH   4  18
ATOM     18  O   UNL     1       4.367  -5.181  24.595  0.00  0.00    -0.280 OA
BRANCH  18  19
ATOM     19  P   UNL     1       4.710  -6.526  25.539  0.00  0.00    +0.484 P 
ATOM     20  O   UNL     1       3.396  -6.908  26.220  0.00  0.00    -0.227 OA
BRANCH  19  21
ATOM     21  O   UNL     1       4.246  -7.538  24.215  0.00  0.00    -0.302 OA
ATOM     22  H   UNL     1       3.932  -6.890  23.551  0.00  0.00    +0.222 HD
ENDBRANCH  19  21
BRANCH  19  23
ATOM     23  O   UNL     1       5.173  -5.513  26.863  0.00  0.00    -0.186 OA
BRANCH  23  24
ATOM     24  P   UNL     1       6.135  -6.036  28.005  0.00  0.00    +0.481 P 
ATOM     25  O   UNL     1       7.592  -5.915  27.743  0.00  0.00    -0.227 OA
BRANCH  24  26
ATOM     26  O   UNL     1       5.573  -7.461  28.441  0.00  0.00    -0.302 OA
ATOM     27  H   UNL     1       5.542  -8.076  27.692  0.00  0.00    +0.222 HD
ENDBRANCH  24  26
BRANCH  24  28
ATOM     28  O   UNL     1       5.687  -5.162  29.265  0.00  0.00    -0.302 OA
ATOM     29  H   UNL     1       5.147  -4.398  28.993  0.00  0.00    +0.222 HD
ENDBRANCH  24  28
ENDBRANCH  23  24
ENDBRANCH  19  23
ENDBRANCH  18  19
ENDBRANCH   4  18
TORSDOF 14
ENDMDL
MODEL 8
REMARK VINA RESULT:      -5.4      2.019      3.268
REMARK  Name = 
REMARK  14 active torsions:
REMARK  status: ('A' for Active; 'I' for Inactive)
REMARK    1  A    between atoms: O_1  and  C_2
REMARK    2  A    between atoms: C_4  and  O_6
REMARK    3  A    between atoms: C_7  and  O_18
REMARK    4  A    between atoms: C_10  and  C_12
REMARK    5  A    between atoms: C_12  and  O_13
REMARK    6  A    between atoms: O_13  and  P_14
REMARK    7  A    between atoms: P_14  and  O_15
REMARK    8  A    between atoms: P_14  and  O_16
REMARK    9  A    between atoms: O_18  and  P_19
REMARK   10  A    between atoms: P_19  and  O_20
REMARK   11  A    between atoms: P_19  and  O_22
REMARK   12  A    between atoms: O_22  and  P_23
REMARK   13  A    between atoms: P_23  and  O_24
REMARK   14  A    between atoms: P_23  and  O_25
REMARK                            x       y       z     vdW  Elec       q    Type
REMARK                         _______ _______ _______ _____ _____    ______ ____
ROOT
ATOM      1  C   UNL     1      10.110  -0.520  22.329  0.00  0.00    +0.151 C 
ATOM      2  C   UNL     1       8.864   0.244  21.887  0.00  0.00    +0.049 C 
ATOM      3  C   UNL     1       7.755  -0.572  22.625  0.00  0.00    +0.043 C 
ATOM      4  C   UNL     1       8.333  -0.921  24.024  0.00  0.00    +0.162 C 
ATOM      5  C   UNL     1       9.860  -0.940  23.799  0.00  0.00    +0.172 C 
ENDROOT
BRANCH   1   6
ATOM      6  O   UNL     1      10.261  -1.679  21.499  0.00  0.00    -0.389 OA
ATOM      7  H   UNL     1      10.836  -1.470  20.740  0.00  0.00    +0.210 HD
ENDBRANCH   1   6
BRANCH   5   8
ATOM      8  O   UNL     1      10.408   0.005  24.717  0.00  0.00    -0.387 OA
ATOM      9  H   UNL     1      10.649  -0.478  25.528  0.00  0.00    +0.210 HD
ENDBRANCH   5   8
BRANCH   2  10
ATOM     10  C   UNL     1       8.882   1.740  22.285  0.00  0.00    +0.178 C 
BRANCH  10  11
ATOM     11  O   UNL     1      10.138   2.300  22.802  0.00  0.00    -0.286 OA
BRANCH  11  12
ATOM     12  P   UNL     1       9.703   3.655  23.786  0.00  0.00    +0.472 P 
ATOM     13  O   UNL     1       9.314   4.867  24.666  0.00  0.00    -0.228 OA
BRANCH  12  14
ATOM     14  O   UNL     1       8.852   2.547  24.643  0.00  0.00    -0.303 OA
ATOM     15  H   UNL     1       8.004   2.343  24.210  0.00  0.00    +0.222 HD
ENDBRANCH  12  14
BRANCH  12  16
ATOM     16  O   UNL     1       8.497   3.872  22.698  0.00  0.00    -0.303 OA
ATOM     17  H   UNL     1       7.796   3.248  22.965  0.00  0.00    +0.222 HD
ENDBRANCH  12  16
ENDBRANCH  11  12
ENDBRANCH  10  11
ENDBRANCH   2  10
BRANCH   4  18
ATOM     18  O   UNL     1       7.834  -2.157  24.550  0.00  0.00    -0.280 OA
BRANCH  18  19
ATOM     19  P   UNL     1       7.708  -2.354  26.211  0.00  0.00    +0.484 P 
ATOM     20  O   UNL     1       8.559  -1.246  26.832  0.00  0.00    -0.227 OA
BRANCH  19  21
ATOM     21  O   UNL     1       6.378  -1.249  26.214  0.00  0.00    -0.302 OA
ATOM     22  H   UNL     1       6.455  -0.819  25.337  0.00  0.00    +0.222 HD
ENDBRANCH  19  21
BRANCH  19  23
ATOM     23  O   UNL     1       9.039  -3.459  26.208  0.00  0.00    -0.186 OA
BRANCH  23  24
ATOM     24  P   UNL     1       8.881  -4.942  25.679  0.00  0.00    +0.481 P 
ATOM     25  O   UNL     1       7.730  -5.711  26.217  0.00  0.00    -0.227 OA
BRANCH  24  26
ATOM     26  O   UNL     1      10.327  -5.603  25.772  0.00  0.00    -0.302 OA
ATOM     27  H   UNL     1      10.482  -5.998  26.644  0.00  0.00    +0.222 HD
ENDBRANCH  24  26
BRANCH  24  28
ATOM     28  O   UNL     1       8.768  -4.738  24.099  0.00  0.00    -0.302 OA
ATOM     29  H   UNL     1       8.116  -5.348  23.708  0.00  0.00    +0.222 HD
ENDBRANCH  24  28
ENDBRANCH  23  24
ENDBRANCH  19  23
ENDBRANCH  18  19
ENDBRANCH   4  18
TORSDOF 14
ENDMDL
MODEL 9
REMARK VINA RESULT:      -5.3      3.356      6.951
REMARK  Name = 
REMARK  14 active torsions:
REMARK  status: ('A' for Active; 'I' for Inactive)
REMARK    1  A    between atoms: O_1  and  C_2
REMARK    2  A    between atoms: C_4  and  O_6
REMARK    3  A    between atoms: C_7  and  O_18
REMARK    4  A    between atoms: C_10  and  C_12
REMARK    5  A    between atoms: C_12  and  O_13
REMARK    6  A    between atoms: O_13  and  P_14
REMARK    7  A    between atoms: P_14  and  O_15
REMARK    8  A    between atoms: P_14  and  O_16
REMARK    9  A    between atoms: O_18  and  P_19
REMARK   10  A    between atoms: P_19  and  O_20
REMARK   11  A    between atoms: P_19  and  O_22
REMARK   12  A    between atoms: O_22  and  P_23
REMARK   13  A    between atoms: P_23  and  O_24
REMARK   14  A    between atoms: P_23  and  O_25
REMARK                            x       y       z     vdW  Elec       q    Type
REMARK                         _______ _______ _______ _____ _____    ______ ____
ROOT
ATOM      1  C   UNL     1       5.235  -4.497  23.282  0.00  0.00    +0.151 C 
ATOM      2  C   UNL     1       6.198  -5.322  24.132  0.00  0.00    +0.049 C 
ATOM      3  C   UNL     1       7.566  -4.736  23.661  0.00  0.00    +0.043 C 
ATOM      4  C   UNL     1       7.350  -3.205  23.504  0.00  0.00    +0.162 C 
ATOM      5  C   UNL     1       5.843  -3.074  23.201  0.00  0.00    +0.172 C 
ENDROOT
BRANCH   1   6
ATOM      6  O   UNL     1       5.156  -5.079  21.974  0.00  0.00    -0.389 OA
ATOM      7  H   UNL     1       5.896  -4.763  21.425  0.00  0.00    +0.210 HD
ENDBRANCH   1   6
BRANCH   5   8
ATOM      8  O   UNL     1       5.309  -2.215  24.207  0.00  0.00    -0.387 OA
ATOM      9  H   UNL     1       5.736  -2.449  25.051  0.00  0.00    +0.210 HD
ENDBRANCH   5   8
BRANCH   2  10
ATOM     10  C   UNL     1       5.964  -5.170  25.655  0.00  0.00    +0.178 C 
BRANCH  10  11
ATOM     11  O   UNL     1       5.856  -6.392  26.461  0.00  0.00    -0.286 OA
BRANCH  11  12
ATOM     12  P   UNL     1       5.956  -5.900  28.117  0.00  0.00    +0.472 P 
ATOM     13  O   UNL     1       6.046  -5.460  29.598  0.00  0.00    -0.228 OA
BRANCH  12  14
ATOM     14  O   UNL     1       7.564  -6.148  27.920  0.00  0.00    -0.303 OA
ATOM     15  H   UNL     1       7.926  -5.575  27.222  0.00  0.00    +0.222 HD
ENDBRANCH  12  14
BRANCH  12  16
ATOM     16  O   UNL     1       5.663  -7.477  28.451  0.00  0.00    -0.303 OA
ATOM     17  H   UNL     1       5.040  -7.774  27.760  0.00  0.00    +0.222 HD
ENDBRANCH  12  16
ENDBRANCH  11  12
ENDBRANCH  10  11
ENDBRANCH   2  10
BRANCH   4  18
ATOM     18  O   UNL     1       8.174  -2.619  22.489  0.00  0.00    -0.280 OA
BRANCH  18  19
ATOM     19  P   UNL     1       9.100  -1.269  22.858  0.00  0.00    +0.484 P 
ATOM     20  O   UNL     1      10.227  -1.765  23.763  0.00  0.00    -0.227 OA
BRANCH  19  21
ATOM     21  O   UNL     1      10.114  -1.628  21.503  0.00  0.00    -0.302 OA
ATOM     22  H   UNL     1      10.778  -0.908  21.537  0.00  0.00    +0.222 HD
ENDBRANCH  19  21
BRANCH  19  23
ATOM     23  O   UNL     1       8.086  -0.909  24.212  0.00  0.00    -0.186 OA
BRANCH  23  24
ATOM     24  P   UNL     1       8.416   0.283  25.199  0.00  0.00    +0.481 P 
ATOM     25  O   UNL     1       7.251   1.025  25.746  0.00  0.00    -0.227 OA
BRANCH  24  26
ATOM     26  O   UNL     1       9.576   1.126  24.503  0.00  0.00    -0.302 OA
ATOM     27  H   UNL     1       9.787   1.925  25.010  0.00  0.00    +0.222 HD
ENDBRANCH  24  26
BRANCH  24  28
ATOM     28  O   UNL     1       9.251  -0.440  26.352  0.00  0.00    -0.302 OA
ATOM     29  H   UNL     1       9.967   0.132  26.684  0.00  0.00    +0.222 HD
ENDBRANCH  24  28
ENDBRANCH  23  24
ENDBRANCH  19  23
ENDBRANCH  18  19
ENDBRANCH   4  18
TORSDOF 14
ENDMDL
