MODEL 1
REMARK VINA RESULT:      -5.7      0.000      0.000
REMARK  Name = 
REMARK  8 active torsions:
REMARK  status: ('A' for Active; 'I' for Inactive)
REMARK    1  A    between atoms: C_2  and  O_3
REMARK    2  A    between atoms: C_6  and  C_8
REMARK    3  A    between atoms: C_8  and  C_9
REMARK    4  A    between atoms: C_12  and  O_13
REMARK    5  A    between atoms: O_13  and  C_14
REMARK    6  A    between atoms: C_17  and  O_19
REMARK    7  A    between atoms: O_19  and  C_20
REMARK    8  A    between atoms: C_20  and  C_21
REMARK                            x       y       z     vdW  Elec       q    Type
REMARK                         _______ _______ _______ _____ _____    ______ ____
ROOT
ATOM      1  C   UNL     1      10.030   5.534  23.856  0.00  0.00    +0.170 C 
ATOM      2  C   UNL     1       9.465   4.103  23.843  0.00  0.00    +0.223 C 
ATOM      3  C   UNL     1      10.611   3.236  23.263  0.00  0.00    +0.102 C 
ATOM      4  N   UNL     1      11.651   4.199  22.832  0.00  0.00    -0.307 NA
ATOM      5  H   UNL     1      12.575   3.766  22.887  0.00  0.00    +0.122 HD
ATOM      6  C   UNL     1      11.535   5.333  23.741  0.00  0.00    +0.116 C 
ENDROOT
BRANCH   1   7
ATOM      7  O   UNL     1       9.674   6.251  25.035  0.00  0.00    -0.387 OA
ATOM      8  H   UNL     1       8.990   6.904  24.805  0.00  0.00    +0.210 HD
ENDBRANCH   1   7
BRANCH   2   9
ATOM      9  O   UNL     1       8.278   4.075  23.029  0.00  0.00    -0.457 OA
BRANCH   9  10
ATOM     10  C   UNL     1       7.137   3.647  23.628  0.00  0.00    +0.304 C 
ATOM     11  O   UNL     1       6.657   4.103  24.657  0.00  0.00    -0.251 OA
ATOM     12  C   UNL     1       6.578   2.463  22.899  0.00  0.00    +0.136 C 
ENDBRANCH   9  10
ENDBRANCH   2   9
BRANCH   3  13
ATOM     13  C   UNL     1      10.194   2.270  22.140  0.00  0.00    +0.057 C 
BRANCH  13  14
ATOM     14  C   UNL     1      10.039   0.843  22.619  0.00  0.00    -0.046 A 
ATOM     15  C   UNL     1       9.737  -0.178  21.707  0.00  0.00    +0.007 A 
ATOM     16  C   UNL     1       9.667  -1.513  22.120  0.00  0.00    +0.046 A 
ATOM     17  C   UNL     1       9.893  -1.843  23.455  0.00  0.00    +0.120 A 
ATOM     18  C   UNL     1      10.182  -0.828  24.370  0.00  0.00    +0.046 A 
ATOM     19  C   UNL     1      10.246   0.506  23.960  0.00  0.00    +0.007 A 
BRANCH  17  20
ATOM     20  O   UNL     1       9.925  -3.111  23.968  0.00  0.00    -0.495 OA
ATOM     21  C   UNL     1       8.681  -3.794  24.055  0.00  0.00    +0.277 C 
ENDBRANCH  17  20
ENDBRANCH  13  14
ENDBRANCH   3  13
TORSDOF 6
ENDMDL
MODEL 2
REMARK VINA RESULT:      -5.7      2.813      7.269
REMARK  Name = 
REMARK  8 active torsions:
REMARK  status: ('A' for Active; 'I' for Inactive)
REMARK    1  A    between atoms: C_2  and  O_3
REMARK    2  A    between atoms: C_6  and  C_8
REMARK    3  A    between atoms: C_8  and  C_9
REMARK    4  A    between atoms: C_12  and  O_13
REMARK    5  A    between atoms: O_13  and  C_14
REMARK    6  A    between atoms: C_17  and  O_19
REMARK    7  A    between atoms: O_19  and  C_20
REMARK    8  A    between atoms: C_20  and  C_21
REMARK                            x       y       z     vdW  Elec       q    Type
REMARK                         _______ _______ _______ _____ _____    ______ ____
ROOT
ATOM      1  C   UNL     1       6.256  -4.337  23.699  0.00  0.00    +0.170 C 
ATOM      2  C   UNL     1       7.519  -3.576  24.139  0.00  0.00    +0.223 C 
ATOM      3  C   UNL     1       7.605  -2.371  23.169  0.00  0.00    +0.102 C 
ATOM      4  N   UNL     1       6.540  -2.598  22.165  0.00  0.00    -0.307 NA
ATOM      5  H   UNL     1       6.206  -1.705  21.799  0.00  0.00    +0.122 HD
ATOM      6  C   UNL     1       5.486  -3.319  22.870  0.00  0.00    +0.116 C 
ENDROOT
BRANCH   1   7
ATOM      7  O   UNL     1       5.493  -4.815  24.804  0.00  0.00    -0.387 OA
ATOM      8  H   UNL     1       4.633  -5.129  24.474  0.00  0.00    +0.210 HD
ENDBRANCH   1   7
BRANCH   2   9
ATOM      9  O   UNL     1       8.654  -4.456  24.039  0.00  0.00    -0.457 OA
BRANCH   9  10
ATOM     10  C   UNL     1       9.419  -4.594  25.153  0.00  0.00    +0.304 C 
ATOM     11  O   UNL     1      10.516  -5.133  25.203  0.00  0.00    -0.251 OA
ATOM     12  C   UNL     1       8.692  -4.068  26.354  0.00  0.00    +0.136 C 
ENDBRANCH   9  10
ENDBRANCH   2   9
BRANCH   3  13
ATOM     13  C   UNL     1       8.987  -2.148  22.529  0.00  0.00    +0.057 C 
BRANCH  13  14
ATOM     14  C   UNL     1       9.523  -0.751  22.758  0.00  0.00    -0.046 A 
ATOM     15  C   UNL     1       9.469   0.202  21.732  0.00  0.00    +0.007 A 
ATOM     16  C   UNL     1       9.889   1.519  21.951  0.00  0.00    +0.046 A 
ATOM     17  C   UNL     1      10.374   1.897  23.202  0.00  0.00    +0.120 A 
ATOM     18  C   UNL     1      10.441   0.947  24.223  0.00  0.00    +0.046 A 
ATOM     19  C   UNL     1      10.028  -0.370  24.004  0.00  0.00    +0.007 A 
BRANCH  17  20
ATOM     20  O   UNL     1      10.745   3.163  23.563  0.00  0.00    -0.495 OA
ATOM     21  C   UNL     1       9.694   4.078  23.848  0.00  0.00    +0.277 C 
ENDBRANCH  17  20
ENDBRANCH  13  14
ENDBRANCH   3  13
TORSDOF 6
ENDMDL
MODEL 3
REMARK VINA RESULT:      -5.7      3.831      7.303
REMARK  Name = 
REMARK  8 active torsions:
REMARK  status: ('A' for Active; 'I' for Inactive)
REMARK    1  A    between atoms: C_2  and  O_3
REMARK    2  A    between atoms: C_6  and  C_8
REMARK    3  A    between atoms: C_8  and  C_9
REMARK    4  A    between atoms: C_12  and  O_13
REMARK    5  A    between atoms: O_13  and  C_14
REMARK    6  A    between atoms: C_17  and  O_19
REMARK    7  A    between atoms: O_19  and  C_20
REMARK    8  A    between atoms: C_20  and  C_21
REMARK                            x       y       z     vdW  Elec       q    Type
REMARK                         _______ _______ _______ _____ _____    ______ ____
ROOT
ATOM      1  C   UNL     1       5.553  -5.238  23.147  0.00  0.00    +0.170 C 
ATOM      2  C   UNL     1       6.166  -3.833  23.275  0.00  0.00    +0.223 C 
ATOM      3  C   UNL     1       7.639  -4.008  22.827  0.00  0.00    +0.102 C 
ATOM      4  N   UNL     1       7.824  -5.467  22.647  0.00  0.00    -0.307 NA
ATOM      5  H   UNL     1       8.540  -5.646  21.940  0.00  0.00    +0.122 HD
ATOM      6  C   UNL     1       6.521  -5.978  22.234  0.00  0.00    +0.116 C 
ENDROOT
BRANCH   1   7
ATOM      7  O   UNL     1       4.231  -5.212  22.615  0.00  0.00    -0.387 OA
ATOM      8  H   UNL     1       4.078  -4.340  22.210  0.00  0.00    +0.210 HD
ENDBRANCH   1   7
BRANCH   2   9
ATOM      9  O   UNL     1       6.047  -3.393  24.641  0.00  0.00    -0.457 OA
BRANCH   9  10
ATOM     10  C   UNL     1       5.132  -2.420  24.891  0.00  0.00    +0.304 C 
ATOM     11  O   UNL     1       3.935  -2.596  25.068  0.00  0.00    -0.251 OA
ATOM     12  C   UNL     1       5.778  -1.069  24.833  0.00  0.00    +0.136 C 
ENDBRANCH   9  10
ENDBRANCH   2   9
BRANCH   3  13
ATOM     13  C   UNL     1       8.685  -3.389  23.770  0.00  0.00    +0.057 C 
BRANCH  13  14
ATOM     14  C   UNL     1       9.183  -2.041  23.294  0.00  0.00    -0.046 A 
ATOM     15  C   UNL     1       9.038  -1.670  21.950  0.00  0.00    +0.007 A 
ATOM     16  C   UNL     1       9.421  -0.399  21.510  0.00  0.00    +0.046 A 
ATOM     17  C   UNL     1       9.959   0.519  22.411  0.00  0.00    +0.120 A 
ATOM     18  C   UNL     1      10.116   0.149  23.749  0.00  0.00    +0.046 A 
ATOM     19  C   UNL     1       9.740  -1.122  24.189  0.00  0.00    +0.007 A 
BRANCH  17  20
ATOM     20  O   UNL     1      10.303   1.811  22.123  0.00  0.00    -0.495 OA
ATOM     21  C   UNL     1      10.497   2.680  23.231  0.00  0.00    +0.277 C 
ENDBRANCH  17  20
ENDBRANCH  13  14
ENDBRANCH   3  13
TORSDOF 6
ENDMDL
MODEL 4
REMARK VINA RESULT:      -5.5      3.419      7.761
REMARK  Name = 
REMARK  8 active torsions:
REMARK  status: ('A' for Active; 'I' for Inactive)
REMARK    1  A    between atoms: C_2  and  O_3
REMARK    2  A    between atoms: C_6  and  C_8
REMARK    3  A    between atoms: C_8  and  C_9
REMARK    4  A    between atoms: C_12  and  O_13
REMARK    5  A    between atoms: O_13  and  C_14
REMARK    6  A    between atoms: C_17  and  O_19
REMARK    7  A    between atoms: O_19  and  C_20
REMARK    8  A    between atoms: C_20  and  C_21
REMARK                            x       y       z     vdW  Elec       q    Type
REMARK                         _______ _______ _______ _____ _____    ______ ____
ROOT
ATOM      1  C   UNL     1       5.416  -4.943  24.032  0.00  0.00    +0.170 C 
ATOM      2  C   UNL     1       6.691  -4.156  24.384  0.00  0.00    +0.223 C 
ATOM      3  C   UNL     1       6.774  -3.047  23.305  0.00  0.00    +0.102 C 
ATOM      4  N   UNL     1       5.694  -3.356  22.340  0.00  0.00    -0.307 NA
ATOM      5  H   UNL     1       5.362  -2.497  21.897  0.00  0.00    +0.122 HD
ATOM      6  C   UNL     1       4.644  -3.999  23.122  0.00  0.00    +0.116 C 
ENDROOT
BRANCH   1   7
ATOM      7  O   UNL     1       4.664  -5.310  25.186  0.00  0.00    -0.387 OA
ATOM      8  H   UNL     1       5.274  -5.389  25.940  0.00  0.00    +0.210 HD
ENDBRANCH   1   7
BRANCH   2   9
ATOM      9  O   UNL     1       7.818  -5.051  24.352  0.00  0.00    -0.457 OA
BRANCH   9  10
ATOM     10  C   UNL     1       8.405  -5.336  25.543  0.00  0.00    +0.304 C 
ATOM     11  O   UNL     1       7.837  -5.783  26.530  0.00  0.00    -0.251 OA
ATOM     12  C   UNL     1       9.851  -4.940  25.520  0.00  0.00    +0.136 C 
ENDBRANCH   9  10
ENDBRANCH   2   9
BRANCH   3  13
ATOM     13  C   UNL     1       8.149  -2.896  22.630  0.00  0.00    +0.057 C 
BRANCH  13  14
ATOM     14  C   UNL     1       8.855  -1.613  23.013  0.00  0.00    -0.046 A 
ATOM     15  C   UNL     1       9.131  -1.335  24.359  0.00  0.00    +0.007 A 
ATOM     16  C   UNL     1       9.852  -0.193  24.724  0.00  0.00    +0.046 A 
ATOM     17  C   UNL     1      10.303   0.690  23.744  0.00  0.00    +0.120 A 
ATOM     18  C   UNL     1      10.019   0.423  22.403  0.00  0.00    +0.046 A 
ATOM     19  C   UNL     1       9.294  -0.714  22.037  0.00  0.00    +0.007 A 
BRANCH  17  20
ATOM     20  O   UNL     1      11.075   1.797  23.963  0.00  0.00    -0.495 OA
ATOM     21  C   UNL     1      10.592   3.026  23.435  0.00  0.00    +0.277 C 
ENDBRANCH  17  20
ENDBRANCH  13  14
ENDBRANCH   3  13
TORSDOF 6
ENDMDL
MODEL 5
REMARK VINA RESULT:      -5.5      3.356      7.682
REMARK  Name = 
REMARK  8 active torsions:
REMARK  status: ('A' for Active; 'I' for Inactive)
REMARK    1  A    between atoms: C_2  and  O_3
REMARK    2  A    between atoms: C_6  and  C_8
REMARK    3  A    between atoms: C_8  and  C_9
REMARK    4  A    between atoms: C_12  and  O_13
REMARK    5  A    between atoms: O_13  and  C_14
REMARK    6  A    between atoms: C_17  and  O_19
REMARK    7  A    between atoms: O_19  and  C_20
REMARK    8  A    between atoms: C_20  and  C_21
REMARK                            x       y       z     vdW  Elec       q    Type
REMARK                         _______ _______ _______ _____ _____    ______ ____
ROOT
ATOM      1  C   UNL     1       7.580  -4.765  26.062  0.00  0.00    +0.170 C 
ATOM      2  C   UNL     1       7.465  -4.928  24.537  0.00  0.00    +0.223 C 
ATOM      3  C   UNL     1       8.247  -3.723  23.956  0.00  0.00    +0.102 C 
ATOM      4  N   UNL     1       8.597  -2.882  25.124  0.00  0.00    -0.307 NA
ATOM      5  H   UNL     1       9.460  -2.367  24.940  0.00  0.00    +0.122 HD
ATOM      6  C   UNL     1       8.752  -3.809  26.240  0.00  0.00    +0.116 C 
ENDROOT
BRANCH   1   7
ATOM      7  O   UNL     1       7.796  -6.006  26.730  0.00  0.00    -0.387 OA
ATOM      8  H   UNL     1       7.463  -6.723  26.164  0.00  0.00    +0.210 HD
ENDBRANCH   1   7
BRANCH   2   9
ATOM      9  O   UNL     1       6.073  -4.919  24.169  0.00  0.00    -0.457 OA
BRANCH   9  10
ATOM     10  C   UNL     1       5.585  -6.052  23.600  0.00  0.00    +0.304 C 
ATOM     11  O   UNL     1       4.827  -6.850  24.135  0.00  0.00    -0.251 OA
ATOM     12  C   UNL     1       6.175  -6.247  22.237  0.00  0.00    +0.136 C 
ENDBRANCH   9  10
ENDBRANCH   2   9
BRANCH   3  13
ATOM     13  C   UNL     1       7.511  -2.936  22.857  0.00  0.00    +0.057 C 
BRANCH  13  14
ATOM     14  C   UNL     1       8.147  -1.594  22.567  0.00  0.00    -0.046 A 
ATOM     15  C   UNL     1       7.475  -0.409  22.899  0.00  0.00    +0.007 A 
ATOM     16  C   UNL     1       8.081   0.838  22.710  0.00  0.00    +0.046 A 
ATOM     17  C   UNL     1       9.368   0.915  22.180  0.00  0.00    +0.120 A 
ATOM     18  C   UNL     1      10.035  -0.263  21.836  0.00  0.00    +0.046 A 
ATOM     19  C   UNL     1       9.430  -1.508  22.019  0.00  0.00    +0.007 A 
BRANCH  17  20
ATOM     20  O   UNL     1      10.094   2.062  22.014  0.00  0.00    -0.495 OA
ATOM     21  C   UNL     1      10.509   2.730  23.199  0.00  0.00    +0.277 C 
ENDBRANCH  17  20
ENDBRANCH  13  14
ENDBRANCH   3  13
TORSDOF 6
ENDMDL
MODEL 6
REMARK VINA RESULT:      -5.5      3.076      6.871
REMARK  Name = 
REMARK  8 active torsions:
REMARK  status: ('A' for Active; 'I' for Inactive)
REMARK    1  A    between atoms: C_2  and  O_3
REMARK    2  A    between atoms: C_6  and  C_8
REMARK    3  A    between atoms: C_8  and  C_9
REMARK    4  A    between atoms: C_12  and  O_13
REMARK    5  A    between atoms: O_13  and  C_14
REMARK    6  A    between atoms: C_17  and  O_19
REMARK    7  A    between atoms: O_19  and  C_20
REMARK    8  A    between atoms: C_20  and  C_21
REMARK                            x       y       z     vdW  Elec       q    Type
REMARK                         _______ _______ _______ _____ _____    ______ ____
ROOT
ATOM      1  C   UNL     1       5.690  -2.603  23.710  0.00  0.00    +0.170 C 
ATOM      2  C   UNL     1       7.057  -3.262  23.459  0.00  0.00    +0.223 C 
ATOM      3  C   UNL     1       8.090  -2.214  23.943  0.00  0.00    +0.102 C 
ATOM      4  N   UNL     1       7.300  -1.002  24.262  0.00  0.00    -0.307 NA
ATOM      5  H   UNL     1       7.766  -0.461  24.993  0.00  0.00    +0.122 HD
ATOM      6  C   UNL     1       5.998  -1.490  24.703  0.00  0.00    +0.116 C 
ENDROOT
BRANCH   1   7
ATOM      7  O   UNL     1       4.725  -3.521  24.218  0.00  0.00    -0.387 OA
ATOM      8  H   UNL     1       4.876  -3.631  25.172  0.00  0.00    +0.210 HD
ENDBRANCH   1   7
BRANCH   2   9
ATOM      9  O   UNL     1       7.182  -3.561  22.056  0.00  0.00    -0.457 OA
BRANCH   9  10
ATOM     10  C   UNL     1       6.649  -4.738  21.633  0.00  0.00    +0.304 C 
ATOM     11  O   UNL     1       5.700  -4.858  20.870  0.00  0.00    -0.251 OA
ATOM     12  C   UNL     1       7.331  -5.890  22.305  0.00  0.00    +0.136 C 
ENDBRANCH   9  10
ENDBRANCH   2   9
BRANCH   3  13
ATOM     13  C   UNL     1       9.241  -1.930  22.961  0.00  0.00    +0.057 C 
BRANCH  13  14
ATOM     14  C   UNL     1       9.733  -0.501  23.027  0.00  0.00    -0.046 A 
ATOM     15  C   UNL     1       9.570   0.353  21.928  0.00  0.00    +0.007 A 
ATOM     16  C   UNL     1       9.949   1.698  22.000  0.00  0.00    +0.046 A 
ATOM     17  C   UNL     1      10.501   2.205  23.175  0.00  0.00    +0.120 A 
ATOM     18  C   UNL     1      10.678   1.354  24.269  0.00  0.00    +0.046 A 
ATOM     19  C   UNL     1      10.305   0.010  24.196  0.00  0.00    +0.007 A 
BRANCH  17  20
ATOM     20  O   UNL     1      10.844   3.511  23.396  0.00  0.00    -0.495 OA
ATOM     21  C   UNL     1       9.809   4.371  23.856  0.00  0.00    +0.277 C 
ENDBRANCH  17  20
ENDBRANCH  13  14
ENDBRANCH   3  13
TORSDOF 6
ENDMDL
MODEL 7
REMARK VINA RESULT:      -5.5      3.443      5.369
REMARK  Name = 
REMARK  8 active torsions:
REMARK  status: ('A' for Active; 'I' for Inactive)
REMARK    1  A    between atoms: C_2  and  O_3
REMARK    2  A    between atoms: C_6  and  C_8
REMARK    3  A    between atoms: C_8  and  C_9
REMARK    4  A    between atoms: C_12  and  O_13
REMARK    5  A    between atoms: O_13  and  C_14
REMARK    6  A    between atoms: C_17  and  O_19
REMARK    7  A    between atoms: O_19  and  C_20
REMARK    8  A    between atoms: C_20  and  C_21
REMARK                            x       y       z     vdW  Elec       q    Type
REMARK                         _______ _______ _______ _____ _____    ______ ____
ROOT
ATOM      1  C   UNL     1       8.988   1.813  22.616  0.00  0.00    +0.170 C 
ATOM      2  C   UNL     1       8.547   0.339  22.656  0.00  0.00    +0.223 C 
ATOM      3  C   UNL     1       7.069   0.388  23.121  0.00  0.00    +0.102 C 
ATOM      4  N   UNL     1       6.816   1.804  23.475  0.00  0.00    -0.307 NA
ATOM      5  H   UNL     1       5.829   2.030  23.334  0.00  0.00    +0.122 HD
ATOM      6  C   UNL     1       7.677   2.587  22.596  0.00  0.00    +0.116 C 
ENDROOT
BRANCH   1   7
ATOM      7  O   UNL     1       9.801   2.109  21.483  0.00  0.00    -0.387 OA
ATOM      8  H   UNL     1      10.136   3.018  21.571  0.00  0.00    +0.210 HD
ENDBRANCH   1   7
BRANCH   2   9
ATOM      9  O   UNL     1       9.396  -0.379  23.570  0.00  0.00    -0.457 OA
BRANCH   9  10
ATOM     10  C   UNL     1       9.970  -1.518  23.102  0.00  0.00    +0.304 C 
ATOM     11  O   UNL     1      10.523  -1.645  22.018  0.00  0.00    -0.251 OA
ATOM     12  C   UNL     1       9.757  -2.644  24.068  0.00  0.00    +0.136 C 
ENDBRANCH   9  10
ENDBRANCH   2   9
BRANCH   3  13
ATOM     13  C   UNL     1       6.713  -0.582  24.261  0.00  0.00    +0.057 C 
BRANCH  13  14
ATOM     14  C   UNL     1       6.009  -1.831  23.774  0.00  0.00    -0.046 A 
ATOM     15  C   UNL     1       6.297  -2.353  22.505  0.00  0.00    +0.007 A 
ATOM     16  C   UNL     1       5.715  -3.548  22.071  0.00  0.00    +0.046 A 
ATOM     17  C   UNL     1       4.831  -4.235  22.901  0.00  0.00    +0.120 A 
ATOM     18  C   UNL     1       4.531  -3.712  24.161  0.00  0.00    +0.046 A 
ATOM     19  C   UNL     1       5.107  -2.515  24.594  0.00  0.00    +0.007 A 
BRANCH  17  20
ATOM     20  O   UNL     1       4.254  -5.444  22.624  0.00  0.00    -0.495 OA
ATOM     21  C   UNL     1       3.976  -6.287  23.736  0.00  0.00    +0.277 C 
ENDBRANCH  17  20
ENDBRANCH  13  14
ENDBRANCH   3  13
TORSDOF 6
ENDMDL
MODEL 8
REMARK VINA RESULT:      -5.4      3.574      5.414
REMARK  Name = 
REMARK  8 active torsions:
REMARK  status: ('A' for Active; 'I' for Inactive)
REMARK    1  A    between atoms: C_2  and  O_3
REMARK    2  A    between atoms: C_6  and  C_8
REMARK    3  A    between atoms: C_8  and  C_9
REMARK    4  A    between atoms: C_12  and  O_13
REMARK    5  A    between atoms: O_13  and  C_14
REMARK    6  A    between atoms: C_17  and  O_19
REMARK    7  A    between atoms: O_19  and  C_20
REMARK    8  A    between atoms: C_20  and  C_21
REMARK                            x       y       z     vdW  Elec       q    Type
REMARK                         _______ _______ _______ _____ _____    ______ ____
ROOT
ATOM      1  C   UNL     1       8.666   0.302  22.500  0.00  0.00    +0.170 C 
ATOM      2  C   UNL     1       8.321  -0.802  23.515  0.00  0.00    +0.223 C 
ATOM      3  C   UNL     1       9.005  -2.074  22.954  0.00  0.00    +0.102 C 
ATOM      4  N   UNL     1       9.527  -1.685  21.624  0.00  0.00    -0.307 NA
ATOM      5  H   UNL     1      10.352  -2.242  21.393  0.00  0.00    +0.122 HD
ATOM      6  C   UNL     1       9.850  -0.266  21.730  0.00  0.00    +0.116 C 
ENDROOT
BRANCH   1   7
ATOM      7  O   UNL     1       8.982   1.542  23.129  0.00  0.00    -0.387 OA
ATOM      8  H   UNL     1       8.511   2.254  22.662  0.00  0.00    +0.210 HD
ENDBRANCH   1   7
BRANCH   2   9
ATOM      9  O   UNL     1       6.890  -0.929  23.599  0.00  0.00    -0.457 OA
BRANCH   9  10
ATOM     10  C   UNL     1       6.322  -0.651  24.802  0.00  0.00    +0.304 C 
ATOM     11  O   UNL     1       5.147  -0.364  24.987  0.00  0.00    -0.251 OA
ATOM     12  C   UNL     1       7.361  -0.654  25.882  0.00  0.00    +0.136 C 
ENDBRANCH   9  10
ENDBRANCH   2   9
BRANCH   3  13
ATOM     13  C   UNL     1       8.110  -3.325  22.898  0.00  0.00    +0.057 C 
BRANCH  13  14
ATOM     14  C   UNL     1       7.888  -3.951  24.258  0.00  0.00    -0.046 A 
ATOM     15  C   UNL     1       6.629  -4.463  24.601  0.00  0.00    +0.007 A 
ATOM     16  C   UNL     1       6.427  -5.115  25.822  0.00  0.00    +0.046 A 
ATOM     17  C   UNL     1       7.484  -5.259  26.719  0.00  0.00    +0.120 A 
ATOM     18  C   UNL     1       8.737  -4.739  26.387  0.00  0.00    +0.046 A 
ATOM     19  C   UNL     1       8.939  -4.083  25.170  0.00  0.00    +0.007 A 
BRANCH  17  20
ATOM     20  O   UNL     1       7.435  -5.935  27.907  0.00  0.00    -0.495 OA
ATOM     21  C   UNL     1       6.159  -6.041  28.528  0.00  0.00    +0.277 C 
ENDBRANCH  17  20
ENDBRANCH  13  14
ENDBRANCH   3  13
TORSDOF 6
ENDMDL
MODEL 9
REMARK VINA RESULT:      -5.4      3.522      7.432
REMARK  Name = 
REMARK  8 active torsions:
REMARK  status: ('A' for Active; 'I' for Inactive)
REMARK    1  A    between atoms: C_2  and  O_3
REMARK    2  A    between atoms: C_6  and  C_8
REMARK    3  A    between atoms: C_8  and  C_9
REMARK    4  A    between atoms: C_12  and  O_13
REMARK    5  A    between atoms: O_13  and  C_14
REMARK    6  A    between atoms: C_17  and  O_19
REMARK    7  A    between atoms: O_19  and  C_20
REMARK    8  A    between atoms: C_20  and  C_21
REMARK                            x       y       z     vdW  Elec       q    Type
REMARK                         _______ _______ _______ _____ _____    ______ ____
ROOT
ATOM      1  C   UNL     1       8.273  -4.925  26.366  0.00  0.00    +0.170 C 
ATOM      2  C   UNL     1       7.350  -4.824  25.139  0.00  0.00    +0.223 C 
ATOM      3  C   UNL     1       8.301  -4.485  23.963  0.00  0.00    +0.102 C 
ATOM      4  N   UNL     1       9.624  -4.246  24.585  0.00  0.00    -0.307 NA
ATOM      5  H   UNL     1      10.369  -4.482  23.926  0.00  0.00    +0.122 HD
ATOM      6  C   UNL     1       9.661  -5.101  25.766  0.00  0.00    +0.116 C 
ENDROOT
BRANCH   1   7
ATOM      7  O   UNL     1       7.921  -6.004  27.227  0.00  0.00    -0.387 OA
ATOM      8  H   UNL     1       7.518  -5.638  28.033  0.00  0.00    +0.210 HD
ENDBRANCH   1   7
BRANCH   2   9
ATOM      9  O   UNL     1       6.368  -3.798  25.375  0.00  0.00    -0.457 OA
BRANCH   9  10
ATOM     10  C   UNL     1       5.125  -4.215  25.734  0.00  0.00    +0.304 C 
ATOM     11  O   UNL     1       4.875  -5.128  26.508  0.00  0.00    -0.251 OA
ATOM     12  C   UNL     1       4.081  -3.454  24.975  0.00  0.00    +0.136 C 
ENDBRANCH   9  10
ENDBRANCH   2   9
BRANCH   3  13
ATOM     13  C   UNL     1       7.845  -3.316  23.072  0.00  0.00    +0.057 C 
BRANCH  13  14
ATOM     14  C   UNL     1       8.619  -2.041  23.329  0.00  0.00    -0.046 A 
ATOM     15  C   UNL     1       8.298  -1.231  24.427  0.00  0.00    +0.007 A 
ATOM     16  C   UNL     1       9.053  -0.091  24.723  0.00  0.00    +0.046 A 
ATOM     17  C   UNL     1      10.139   0.255  23.921  0.00  0.00    +0.120 A 
ATOM     18  C   UNL     1      10.454  -0.543  22.819  0.00  0.00    +0.046 A 
ATOM     19  C   UNL     1       9.698  -1.678  22.518  0.00  0.00    +0.007 A 
BRANCH  17  20
ATOM     20  O   UNL     1      10.996   1.297  24.145  0.00  0.00    -0.495 OA
ATOM     21  C   UNL     1      10.616   2.560  23.612  0.00  0.00    +0.277 C 
ENDBRANCH  17  20
ENDBRANCH  13  14
ENDBRANCH   3  13
TORSDOF 6
ENDMDL
