MODEL 1
REMARK VINA RESULT:      -4.6      0.000      0.000
REMARK  Name = 
REMARK  9 active torsions:
REMARK  status: ('A' for Active; 'I' for Inactive)
REMARK    1  A    between atoms: C_2  and  N_3
REMARK    2  A    between atoms: C_2  and  C_4
REMARK    3  A    between atoms: C_2  and  C_8
REMARK    4  A    between atoms: C_4  and  C_5
REMARK    5  A    between atoms: C_5  and  S_6
REMARK    6  A    between atoms: S_6  and  C_7
REMARK    7  A    between atoms: C_8  and  O_9
REMARK    8  A    between atoms: C_8  and  O_10
REMARK    9  A    between atoms: C_8  and  C_11
REMARK                            x       y       z     vdW  Elec       q    Type
REMARK                         _______ _______ _______ _____ _____    ______ ____
ROOT
ATOM      1  C   UNL     1      10.038   1.934  23.989  0.00  0.00    +0.304 C 
ENDROOT
BRANCH   1   2
ATOM      2  C   UNL     1      10.425   3.403  23.819  0.00  0.00    +0.163 A 
ATOM      3  S   UNL     1       9.347   4.690  24.213  0.00  0.00    -0.073 S 
ATOM      4  C   UNL     1      10.520   5.825  23.697  0.00  0.00    +0.067 A 
ATOM      5  C   UNL     1      11.670   5.168  23.327  0.00  0.00    +0.119 A 
ATOM      6  N   UNL     1      11.626   3.791  23.416  0.00  0.00    -0.245 NA
ENDBRANCH   1   2
BRANCH   1   7
ATOM      7  O   UNL     1      11.230   1.229  24.361  0.00  0.00    -0.499 OA
ATOM      8  H   UNL     1      11.284   1.274  25.335  0.00  0.00    +0.288 HD
ENDBRANCH   1   7
BRANCH   1   9
ATOM      9  O   UNL     1       9.095   1.770  25.049  0.00  0.00    -0.499 OA
ATOM     10  H   UNL     1       8.540   2.564  25.081  0.00  0.00    +0.288 HD
ENDBRANCH   1   9
BRANCH   1  11
ATOM     11  C   UNL     1       9.479   1.289  22.673  0.00  0.00    +0.144 C 
BRANCH  11  12
ATOM     12  N   UNL     1       9.721   2.183  21.501  0.00  0.00    -0.321 NA
ATOM     13  H   UNL     1       8.810   2.596  21.270  0.00  0.00    +0.119 HD
ATOM     14  H   UNL     1      10.241   2.993  21.854  0.00  0.00    +0.119 HD
ENDBRANCH  11  12
BRANCH  11  15
ATOM     15  C   UNL     1      10.103  -0.091  22.391  0.00  0.00    +0.037 C 
BRANCH  15  16
ATOM     16  C   UNL     1       9.208  -1.013  21.568  0.00  0.00    +0.070 C 
BRANCH  16  17
ATOM     17  S   UNL     1       8.458  -2.242  22.691  0.00  0.00    -0.164 S 
ATOM     18  C   UNL     1       9.751  -2.282  23.950  0.00  0.00    +0.084 C 
ENDBRANCH  16  17
ENDBRANCH  15  16
ENDBRANCH  11  15
ENDBRANCH   1  11
TORSDOF 8
ENDMDL
MODEL 2
REMARK VINA RESULT:      -4.5      3.260      5.923
REMARK  Name = 
REMARK  9 active torsions:
REMARK  status: ('A' for Active; 'I' for Inactive)
REMARK    1  A    between atoms: C_2  and  N_3
REMARK    2  A    between atoms: C_2  and  C_4
REMARK    3  A    between atoms: C_2  and  C_8
REMARK    4  A    between atoms: C_4  and  C_5
REMARK    5  A    between atoms: C_5  and  S_6
REMARK    6  A    between atoms: S_6  and  C_7
REMARK    7  A    between atoms: C_8  and  O_9
REMARK    8  A    between atoms: C_8  and  O_10
REMARK    9  A    between atoms: C_8  and  C_11
REMARK                            x       y       z     vdW  Elec       q    Type
REMARK                         _______ _______ _______ _____ _____    ______ ____
ROOT
ATOM      1  C   UNL     1       9.410  -2.233  23.739  0.00  0.00    +0.304 C 
ENDROOT
BRANCH   1   2
ATOM      2  C   UNL     1       8.060  -2.622  23.137  0.00  0.00    +0.163 A 
ATOM      3  S   UNL     1       6.666  -1.616  23.279  0.00  0.00    -0.073 S 
ATOM      4  C   UNL     1       5.743  -2.784  22.433  0.00  0.00    +0.067 A 
ATOM      5  C   UNL     1       6.555  -3.821  22.038  0.00  0.00    +0.119 A 
ATOM      6  N   UNL     1       7.879  -3.721  22.420  0.00  0.00    -0.245 NA
ENDBRANCH   1   2
BRANCH   1   7
ATOM      7  O   UNL     1       9.135  -1.490  24.934  0.00  0.00    -0.499 OA
ATOM      8  H   UNL     1       9.580  -1.965  25.662  0.00  0.00    +0.288 HD
ENDBRANCH   1   7
BRANCH   1   9
ATOM      9  O   UNL     1      10.156  -3.390  24.117  0.00  0.00    -0.499 OA
ATOM     10  H   UNL     1       9.731  -3.780  24.895  0.00  0.00    +0.288 HD
ENDBRANCH   1   9
BRANCH   1  11
ATOM     11  C   UNL     1      10.270  -1.330  22.788  0.00  0.00    +0.144 C 
BRANCH  11  12
ATOM     12  N   UNL     1       9.881  -1.542  21.362  0.00  0.00    -0.321 NA
ATOM     13  H   UNL     1       9.793  -2.559  21.243  0.00  0.00    +0.119 HD
ATOM     14  H   UNL     1       8.907  -1.231  21.275  0.00  0.00    +0.119 HD
ENDBRANCH  11  12
BRANCH  11  15
ATOM     15  C   UNL     1      10.136   0.166  23.128  0.00  0.00    +0.037 C 
BRANCH  15  16
ATOM     16  C   UNL     1       9.900   1.054  21.910  0.00  0.00    +0.070 C 
BRANCH  16  17
ATOM     17  S   UNL     1       8.251   1.826  22.068  0.00  0.00    -0.164 S 
ATOM     18  C   UNL     1       8.155   1.888  23.869  0.00  0.00    +0.084 C 
ENDBRANCH  16  17
ENDBRANCH  15  16
ENDBRANCH  11  15
ENDBRANCH   1  11
TORSDOF 8
ENDMDL
MODEL 3
REMARK VINA RESULT:      -4.5      3.186      4.086
REMARK  Name = 
REMARK  9 active torsions:
REMARK  status: ('A' for Active; 'I' for Inactive)
REMARK    1  A    between atoms: C_2  and  N_3
REMARK    2  A    between atoms: C_2  and  C_4
REMARK    3  A    between atoms: C_2  and  C_8
REMARK    4  A    between atoms: C_4  and  C_5
REMARK    5  A    between atoms: C_5  and  S_6
REMARK    6  A    between atoms: S_6  and  C_7
REMARK    7  A    between atoms: C_8  and  O_9
REMARK    8  A    between atoms: C_8  and  O_10
REMARK    9  A    between atoms: C_8  and  C_11
REMARK                            x       y       z     vdW  Elec       q    Type
REMARK                         _______ _______ _______ _____ _____    ______ ____
ROOT
ATOM      1  C   UNL     1       9.537  -1.520  22.825  0.00  0.00    +0.304 C 
ENDROOT
BRANCH   1   2
ATOM      2  C   UNL     1       9.907  -0.050  23.024  0.00  0.00    +0.163 A 
ATOM      3  S   UNL     1      10.537   0.545  24.515  0.00  0.00    -0.073 S 
ATOM      4  C   UNL     1      10.588   2.125  23.857  0.00  0.00    +0.067 A 
ATOM      5  C   UNL     1      10.194   2.093  22.539  0.00  0.00    +0.119 A 
ATOM      6  N   UNL     1       9.826   0.852  22.057  0.00  0.00    -0.245 NA
ENDBRANCH   1   2
BRANCH   1   7
ATOM      7  O   UNL     1       9.786  -1.829  21.447  0.00  0.00    -0.499 OA
ATOM      8  H   UNL     1       9.680  -0.993  20.953  0.00  0.00    +0.288 HD
ENDBRANCH   1   7
BRANCH   1   9
ATOM      9  O   UNL     1      10.370  -2.371  23.612  0.00  0.00    -0.499 OA
ATOM     10  H   UNL     1      10.187  -3.288  23.357  0.00  0.00    +0.288 HD
ENDBRANCH   1   9
BRANCH   1  11
ATOM     11  C   UNL     1       8.027  -1.820  23.128  0.00  0.00    +0.144 C 
BRANCH  11  12
ATOM     12  N   UNL     1       7.190  -0.606  22.898  0.00  0.00    -0.321 NA
ATOM     13  H   UNL     1       6.888  -0.292  23.829  0.00  0.00    +0.119 HD
ATOM     14  H   UNL     1       7.831   0.143  22.617  0.00  0.00    +0.119 HD
ENDBRANCH  11  12
BRANCH  11  15
ATOM     15  C   UNL     1       7.481  -2.978  22.271  0.00  0.00    +0.037 C 
BRANCH  15  16
ATOM     16  C   UNL     1       7.536  -4.335  22.965  0.00  0.00    +0.070 C 
BRANCH  16  17
ATOM     17  S   UNL     1       6.868  -5.595  21.824  0.00  0.00    -0.164 S 
ATOM     18  C   UNL     1       5.200  -5.716  22.503  0.00  0.00    +0.084 C 
ENDBRANCH  16  17
ENDBRANCH  15  16
ENDBRANCH  11  15
ENDBRANCH   1  11
TORSDOF 8
ENDMDL
MODEL 4
REMARK VINA RESULT:      -4.4      2.833      3.805
REMARK  Name = 
REMARK  9 active torsions:
REMARK  status: ('A' for Active; 'I' for Inactive)
REMARK    1  A    between atoms: C_2  and  N_3
REMARK    2  A    between atoms: C_2  and  C_4
REMARK    3  A    between atoms: C_2  and  C_8
REMARK    4  A    between atoms: C_4  and  C_5
REMARK    5  A    between atoms: C_5  and  S_6
REMARK    6  A    between atoms: S_6  and  C_7
REMARK    7  A    between atoms: C_8  and  O_9
REMARK    8  A    between atoms: C_8  and  O_10
REMARK    9  A    between atoms: C_8  and  C_11
REMARK                            x       y       z     vdW  Elec       q    Type
REMARK                         _______ _______ _______ _____ _____    ______ ____
ROOT
ATOM      1  C   UNL     1       9.529  -1.498  22.805  0.00  0.00    +0.304 C 
ENDROOT
BRANCH   1   2
ATOM      2  C   UNL     1       9.906  -0.029  22.998  0.00  0.00    +0.163 A 
ATOM      3  S   UNL     1      10.568   0.565  24.476  0.00  0.00    -0.073 S 
ATOM      4  C   UNL     1      10.608   2.144  23.818  0.00  0.00    +0.067 A 
ATOM      5  C   UNL     1      10.185   2.114  22.509  0.00  0.00    +0.119 A 
ATOM      6  N   UNL     1       9.806   0.874  22.034  0.00  0.00    -0.245 NA
ENDBRANCH   1   2
BRANCH   1   7
ATOM      7  O   UNL     1       9.734  -1.802  21.419  0.00  0.00    -0.499 OA
ATOM      8  H   UNL     1       8.916  -1.539  20.956  0.00  0.00    +0.288 HD
ENDBRANCH   1   7
BRANCH   1   9
ATOM      9  O   UNL     1      10.387  -2.352  23.563  0.00  0.00    -0.499 OA
ATOM     10  H   UNL     1      10.165  -3.270  23.345  0.00  0.00    +0.288 HD
ENDBRANCH   1   9
BRANCH   1  11
ATOM     11  C   UNL     1       8.030  -1.800  23.156  0.00  0.00    +0.144 C 
BRANCH  11  12
ATOM     12  N   UNL     1       7.205  -0.559  23.060  0.00  0.00    -0.321 NA
ATOM     13  H   UNL     1       7.731   0.168  23.560  0.00  0.00    +0.119 HD
ATOM     14  H   UNL     1       7.268  -0.240  22.087  0.00  0.00    +0.119 HD
ENDBRANCH  11  12
BRANCH  11  15
ATOM     15  C   UNL     1       7.425  -2.880  22.240  0.00  0.00    +0.037 C 
BRANCH  15  16
ATOM     16  C   UNL     1       7.480  -4.286  22.829  0.00  0.00    +0.070 C 
BRANCH  16  17
ATOM     17  S   UNL     1       7.381  -4.154  24.649  0.00  0.00    -0.164 S 
ATOM     18  C   UNL     1       8.816  -5.164  25.069  0.00  0.00    +0.084 C 
ENDBRANCH  16  17
ENDBRANCH  15  16
ENDBRANCH  11  15
ENDBRANCH   1  11
TORSDOF 8
ENDMDL
MODEL 5
REMARK VINA RESULT:      -4.4      1.614      5.427
REMARK  Name = 
REMARK  9 active torsions:
REMARK  status: ('A' for Active; 'I' for Inactive)
REMARK    1  A    between atoms: C_2  and  N_3
REMARK    2  A    between atoms: C_2  and  C_4
REMARK    3  A    between atoms: C_2  and  C_8
REMARK    4  A    between atoms: C_4  and  C_5
REMARK    5  A    between atoms: C_5  and  S_6
REMARK    6  A    between atoms: S_6  and  C_7
REMARK    7  A    between atoms: C_8  and  O_9
REMARK    8  A    between atoms: C_8  and  O_10
REMARK    9  A    between atoms: C_8  and  C_11
REMARK                            x       y       z     vdW  Elec       q    Type
REMARK                         _______ _______ _______ _____ _____    ______ ____
ROOT
ATOM      1  C   UNL     1      10.039   1.169  24.008  0.00  0.00    +0.304 C 
ENDROOT
BRANCH   1   2
ATOM      2  C   UNL     1       9.285  -0.024  23.422  0.00  0.00    +0.163 A 
ATOM      3  S   UNL     1      10.091  -1.466  22.926  0.00  0.00    -0.073 S 
ATOM      4  C   UNL     1       8.594  -2.123  22.419  0.00  0.00    +0.067 A 
ATOM      5  C   UNL     1       7.577  -1.246  22.717  0.00  0.00    +0.119 A 
ATOM      6  N   UNL     1       7.966  -0.059  23.308  0.00  0.00    -0.245 NA
ENDBRANCH   1   2
BRANCH   1   7
ATOM      7  O   UNL     1       9.296   1.610  25.154  0.00  0.00    -0.499 OA
ATOM      8  H   UNL     1       9.955   1.835  25.839  0.00  0.00    +0.288 HD
ENDBRANCH   1   7
BRANCH   1   9
ATOM      9  O   UNL     1      11.337   0.786  24.462  0.00  0.00    -0.499 OA
ATOM     10  H   UNL     1      11.414  -0.176  24.371  0.00  0.00    +0.288 HD
ENDBRANCH   1   9
BRANCH   1  11
ATOM     11  C   UNL     1      10.156   2.374  23.009  0.00  0.00    +0.144 C 
BRANCH  11  12
ATOM     12  N   UNL     1       9.836   1.939  21.617  0.00  0.00    -0.321 NA
ATOM     13  H   UNL     1      10.675   2.143  21.060  0.00  0.00    +0.119 HD
ATOM     14  H   UNL     1       9.829   0.913  21.625  0.00  0.00    +0.119 HD
ENDBRANCH  11  12
BRANCH  11  15
ATOM     15  C   UNL     1       9.231   3.543  23.396  0.00  0.00    +0.037 C 
BRANCH  15  16
ATOM     16  C   UNL     1       9.975   4.767  23.921  0.00  0.00    +0.070 C 
BRANCH  16  17
ATOM     17  S   UNL     1      11.731   4.627  23.436  0.00  0.00    -0.164 S 
ATOM     18  C   UNL     1      12.341   6.146  24.196  0.00  0.00    +0.084 C 
ENDBRANCH  16  17
ENDBRANCH  15  16
ENDBRANCH  11  15
ENDBRANCH   1  11
TORSDOF 8
ENDMDL
MODEL 6
REMARK VINA RESULT:      -4.4      2.503      3.295
REMARK  Name = 
REMARK  9 active torsions:
REMARK  status: ('A' for Active; 'I' for Inactive)
REMARK    1  A    between atoms: C_2  and  N_3
REMARK    2  A    between atoms: C_2  and  C_4
REMARK    3  A    between atoms: C_2  and  C_8
REMARK    4  A    between atoms: C_4  and  C_5
REMARK    5  A    between atoms: C_5  and  S_6
REMARK    6  A    between atoms: S_6  and  C_7
REMARK    7  A    between atoms: C_8  and  O_9
REMARK    8  A    between atoms: C_8  and  O_10
REMARK    9  A    between atoms: C_8  and  C_11
REMARK                            x       y       z     vdW  Elec       q    Type
REMARK                         _______ _______ _______ _____ _____    ______ ____
ROOT
ATOM      1  C   UNL     1       9.807   2.778  22.957  0.00  0.00    +0.304 C 
ENDROOT
BRANCH   1   2
ATOM      2  C   UNL     1       8.301   2.991  22.815  0.00  0.00    +0.163 A 
ATOM      3  S   UNL     1       7.575   4.550  22.951  0.00  0.00    -0.073 S 
ATOM      4  C   UNL     1       6.032   3.847  22.724  0.00  0.00    +0.067 A 
ATOM      5  C   UNL     1       6.165   2.497  22.492  0.00  0.00    +0.119 A 
ATOM      6  N   UNL     1       7.457   2.012  22.522  0.00  0.00    -0.245 NA
ENDBRANCH   1   2
BRANCH   1   7
ATOM      7  O   UNL     1      10.258   2.164  21.741  0.00  0.00    -0.499 OA
ATOM      8  H   UNL     1      10.744   2.853  21.249  0.00  0.00    +0.288 HD
ENDBRANCH   1   7
BRANCH   1   9
ATOM      9  O   UNL     1      10.493   4.023  23.087  0.00  0.00    -0.499 OA
ATOM     10  H   UNL     1      10.480   4.276  24.022  0.00  0.00    +0.288 HD
ENDBRANCH   1   9
BRANCH   1  11
ATOM     11  C   UNL     1      10.185   1.833  24.151  0.00  0.00    +0.144 C 
BRANCH  11  12
ATOM     12  N   UNL     1       9.061   1.743  25.130  0.00  0.00    -0.321 NA
ATOM     13  H   UNL     1       9.313   0.986  25.778  0.00  0.00    +0.119 HD
ATOM     14  H   UNL     1       9.128   2.571  25.731  0.00  0.00    +0.119 HD
ENDBRANCH  11  12
BRANCH  11  15
ATOM     15  C   UNL     1      10.554   0.415  23.677  0.00  0.00    +0.037 C 
BRANCH  15  16
ATOM     16  C   UNL     1       9.939  -0.695  24.524  0.00  0.00    +0.070 C 
BRANCH  16  17
ATOM     17  S   UNL     1       9.755  -2.184  23.480  0.00  0.00    -0.164 S 
ATOM     18  C   UNL     1       9.421  -1.368  21.906  0.00  0.00    +0.084 C 
ENDBRANCH  16  17
ENDBRANCH  15  16
ENDBRANCH  11  15
ENDBRANCH   1  11
TORSDOF 8
ENDMDL
MODEL 7
REMARK VINA RESULT:      -4.4      3.396      6.613
REMARK  Name = 
REMARK  9 active torsions:
REMARK  status: ('A' for Active; 'I' for Inactive)
REMARK    1  A    between atoms: C_2  and  N_3
REMARK    2  A    between atoms: C_2  and  C_4
REMARK    3  A    between atoms: C_2  and  C_8
REMARK    4  A    between atoms: C_4  and  C_5
REMARK    5  A    between atoms: C_5  and  S_6
REMARK    6  A    between atoms: S_6  and  C_7
REMARK    7  A    between atoms: C_8  and  O_9
REMARK    8  A    between atoms: C_8  and  O_10
REMARK    9  A    between atoms: C_8  and  C_11
REMARK                            x       y       z     vdW  Elec       q    Type
REMARK                         _______ _______ _______ _____ _____    ______ ____
ROOT
ATOM      1  C   UNL     1       9.116  -2.903  24.067  0.00  0.00    +0.304 C 
ENDROOT
BRANCH   1   2
ATOM      2  C   UNL     1       7.910  -3.365  23.250  0.00  0.00    +0.163 A 
ATOM      3  S   UNL     1       7.511  -5.032  23.062  0.00  0.00    -0.073 S 
ATOM      4  C   UNL     1       6.191  -4.599  22.062  0.00  0.00    +0.067 A 
ATOM      5  C   UNL     1       6.093  -3.229  21.989  0.00  0.00    +0.119 A 
ATOM      6  N   UNL     1       7.058  -2.524  22.682  0.00  0.00    -0.245 NA
ENDBRANCH   1   2
BRANCH   1   7
ATOM      7  O   UNL     1       8.607  -2.370  25.297  0.00  0.00    -0.499 OA
ATOM      8  H   UNL     1       9.212  -1.647  25.555  0.00  0.00    +0.288 HD
ENDBRANCH   1   7
BRANCH   1   9
ATOM      9  O   UNL     1       9.966  -4.002  24.395  0.00  0.00    -0.499 OA
ATOM     10  H   UNL     1      10.795  -3.896  23.903  0.00  0.00    +0.288 HD
ENDBRANCH   1   9
BRANCH   1  11
ATOM     11  C   UNL     1       9.947  -1.779  23.354  0.00  0.00    +0.144 C 
BRANCH  11  12
ATOM     12  N   UNL     1       9.800  -1.873  21.870  0.00  0.00    -0.321 NA
ATOM     13  H   UNL     1       9.483  -0.947  21.561  0.00  0.00    +0.119 HD
ATOM     14  H   UNL     1      10.749  -1.915  21.484  0.00  0.00    +0.119 HD
ENDBRANCH  11  12
BRANCH  11  15
ATOM     15  C   UNL     1       9.531  -0.368  23.811  0.00  0.00    +0.037 C 
BRANCH  15  16
ATOM     16  C   UNL     1      10.683   0.460  24.373  0.00  0.00    +0.070 C 
BRANCH  16  17
ATOM     17  S   UNL     1      10.529   2.167  23.740  0.00  0.00    -0.164 S 
ATOM     18  C   UNL     1       9.977   1.784  22.065  0.00  0.00    +0.084 C 
ENDBRANCH  16  17
ENDBRANCH  15  16
ENDBRANCH  11  15
ENDBRANCH   1  11
TORSDOF 8
ENDMDL
MODEL 8
REMARK VINA RESULT:      -4.4      2.146      5.557
REMARK  Name = 
REMARK  9 active torsions:
REMARK  status: ('A' for Active; 'I' for Inactive)
REMARK    1  A    between atoms: C_2  and  N_3
REMARK    2  A    between atoms: C_2  and  C_4
REMARK    3  A    between atoms: C_2  and  C_8
REMARK    4  A    between atoms: C_4  and  C_5
REMARK    5  A    between atoms: C_5  and  S_6
REMARK    6  A    between atoms: S_6  and  C_7
REMARK    7  A    between atoms: C_8  and  O_9
REMARK    8  A    between atoms: C_8  and  O_10
REMARK    9  A    between atoms: C_8  and  C_11
REMARK                            x       y       z     vdW  Elec       q    Type
REMARK                         _______ _______ _______ _____ _____    ______ ____
ROOT
ATOM      1  C   UNL     1       9.130   2.178  22.374  0.00  0.00    +0.304 C 
ENDROOT
BRANCH   1   2
ATOM      2  C   UNL     1       8.633   0.737  22.486  0.00  0.00    +0.163 A 
ATOM      3  S   UNL     1       9.510  -0.593  21.826  0.00  0.00    -0.073 S 
ATOM      4  C   UNL     1       8.277  -1.659  22.349  0.00  0.00    +0.067 A 
ATOM      5  C   UNL     1       7.321  -0.958  23.045  0.00  0.00    +0.119 A 
ATOM      6  N   UNL     1       7.532   0.403  23.143  0.00  0.00    -0.245 NA
ENDBRANCH   1   2
BRANCH   1   7
ATOM      7  O   UNL     1      10.203   2.175  21.423  0.00  0.00    -0.499 OA
ATOM      8  H   UNL     1      10.591   1.279  21.447  0.00  0.00    +0.288 HD
ENDBRANCH   1   7
BRANCH   1   9
ATOM      9  O   UNL     1       8.109   3.037  21.866  0.00  0.00    -0.499 OA
ATOM     10  H   UNL     1       8.524   3.873  21.604  0.00  0.00    +0.288 HD
ENDBRANCH   1   9
BRANCH   1  11
ATOM     11  C   UNL     1       9.680   2.746  23.729  0.00  0.00    +0.144 C 
BRANCH  11  12
ATOM     12  N   UNL     1       9.832   1.655  24.737  0.00  0.00    -0.321 NA
ATOM     13  H   UNL     1       9.128   1.841  25.461  0.00  0.00    +0.119 HD
ATOM     14  H   UNL     1       9.471   0.800  24.301  0.00  0.00    +0.119 HD
ENDBRANCH  11  12
BRANCH  11  15
ATOM     15  C   UNL     1      11.033   3.461  23.554  0.00  0.00    +0.037 C 
BRANCH  15  16
ATOM     16  C   UNL     1      10.943   4.981  23.661  0.00  0.00    +0.070 C 
BRANCH  16  17
ATOM     17  S   UNL     1       9.355   5.411  24.456  0.00  0.00    -0.164 S 
ATOM     18  C   UNL     1       8.653   6.413  23.129  0.00  0.00    +0.084 C 
ENDBRANCH  16  17
ENDBRANCH  15  16
ENDBRANCH  11  15
ENDBRANCH   1  11
TORSDOF 8
ENDMDL
MODEL 9
REMARK VINA RESULT:      -4.4      1.600      5.274
REMARK  Name = 
REMARK  9 active torsions:
REMARK  status: ('A' for Active; 'I' for Inactive)
REMARK    1  A    between atoms: C_2  and  N_3
REMARK    2  A    between atoms: C_2  and  C_4
REMARK    3  A    between atoms: C_2  and  C_8
REMARK    4  A    between atoms: C_4  and  C_5
REMARK    5  A    between atoms: C_5  and  S_6
REMARK    6  A    between atoms: S_6  and  C_7
REMARK    7  A    between atoms: C_8  and  O_9
REMARK    8  A    between atoms: C_8  and  O_10
REMARK    9  A    between atoms: C_8  and  C_11
REMARK                            x       y       z     vdW  Elec       q    Type
REMARK                         _______ _______ _______ _____ _____    ______ ____
ROOT
ATOM      1  C   UNL     1      10.181   1.224  24.109  0.00  0.00    +0.304 C 
ENDROOT
BRANCH   1   2
ATOM      2  C   UNL     1       9.530   0.073  23.343  0.00  0.00    +0.163 A 
ATOM      3  S   UNL     1       7.855  -0.305  23.501  0.00  0.00    -0.073 S 
ATOM      4  C   UNL     1       8.054  -1.620  22.424  0.00  0.00    +0.067 A 
ATOM      5  C   UNL     1       9.350  -1.649  21.961  0.00  0.00    +0.119 A 
ATOM      6  N   UNL     1      10.186  -0.673  22.467  0.00  0.00    -0.245 NA
ENDBRANCH   1   2
BRANCH   1   7
ATOM      7  O   UNL     1       9.325   1.523  25.220  0.00  0.00    -0.499 OA
ATOM      8  H   UNL     1       8.418   1.574  24.862  0.00  0.00    +0.288 HD
ENDBRANCH   1   7
BRANCH   1   9
ATOM      9  O   UNL     1      11.450   0.837  24.638  0.00  0.00    -0.499 OA
ATOM     10  H   UNL     1      11.331   0.009  25.127  0.00  0.00    +0.288 HD
ENDBRANCH   1   9
BRANCH   1  11
ATOM     11  C   UNL     1      10.337   2.526  23.248  0.00  0.00    +0.144 C 
BRANCH  11  12
ATOM     12  N   UNL     1      10.072   2.241  21.806  0.00  0.00    -0.321 NA
ATOM     13  H   UNL     1      10.551   1.355  21.603  0.00  0.00    +0.119 HD
ATOM     14  H   UNL     1       9.085   1.972  21.737  0.00  0.00    +0.119 HD
ENDBRANCH  11  12
BRANCH  11  15
ATOM     15  C   UNL     1       9.395   3.651  23.719  0.00  0.00    +0.037 C 
BRANCH  15  16
ATOM     16  C   UNL     1      10.081   5.007  23.858  0.00  0.00    +0.070 C 
BRANCH  16  17
ATOM     17  S   UNL     1       8.882   6.309  23.408  0.00  0.00    -0.164 S 
ATOM     18  C   UNL     1       7.617   5.263  22.658  0.00  0.00    +0.084 C 
ENDBRANCH  16  17
ENDBRANCH  15  16
ENDBRANCH  11  15
ENDBRANCH   1  11
TORSDOF 8
ENDMDL
