MODEL 1
REMARK VINA RESULT:      -5.8      0.000      0.000
REMARK  Name = 
REMARK  12 active torsions:
REMARK  status: ('A' for Active; 'I' for Inactive)
REMARK    1  A    between atoms: C_1  and  O_2
REMARK    2  A    between atoms: O_2  and  C_3
REMARK    3  A    between atoms: C_6  and  C_7
REMARK    4  A    between atoms: C_7  and  C_8
REMARK    5  A    between atoms: C_8  and  C_9
REMARK    6  A    between atoms: C_8  and  N_10
REMARK    7  A    between atoms: N_10  and  C_11
REMARK    8  A    between atoms: C_11  and  C_12
REMARK    9  A    between atoms: C_12  and  O_13
REMARK   10  A    between atoms: C_12  and  C_14
REMARK   11  A    between atoms: C_16  and  N_17
REMARK   12  A    between atoms: C_20  and  O_21
REMARK                            x       y       z     vdW  Elec       q    Type
REMARK                         _______ _______ _______ _____ _____    ______ ____
ROOT
ATOM      1  C   UNL     1       6.477   3.557  23.130  0.00  0.00    +0.158 C 
ENDROOT
BRANCH   1   2
ATOM      2  C   UNL     1       6.731   2.351  24.024  0.00  0.00    -0.016 A 
ATOM      3  C   UNL     1       7.290   2.520  25.298  0.00  0.00    +0.010 A 
ATOM      4  C   UNL     1       7.569   1.412  26.102  0.00  0.00    +0.047 A 
ATOM      5  C   UNL     1       7.276   0.130  25.646  0.00  0.00    +0.138 A 
ATOM      6  C   UNL     1       6.710  -0.076  24.383  0.00  0.00    +0.075 A 
ATOM      7  C   UNL     1       6.444   1.041  23.584  0.00  0.00    +0.033 A 
BRANCH   6   8
ATOM      8  N   UNL     1       6.459  -1.388  23.945  0.00  0.00    -0.285 N 
ATOM      9  H   UNL     1       6.302  -2.115  24.631  0.00  0.00    +0.155 HD
ATOM     10  C   UNL     1       6.432  -1.840  22.655  0.00  0.00    +0.330 C 
ATOM     11  O   UNL     1       6.234  -3.011  22.377  0.00  0.00    -0.279 OA
ENDBRANCH   6   8
BRANCH   5  12
ATOM     12  O   UNL     1       7.527  -0.904  26.505  0.00  0.00    -0.505 OA
ATOM     13  H   UNL     1       6.917  -0.817  27.258  0.00  0.00    +0.292 HD
ENDBRANCH   5  12
ENDBRANCH   1   2
BRANCH   1  14
ATOM     14  O   UNL     1       6.758   3.225  21.764  0.00  0.00    -0.386 OA
ATOM     15  H   UNL     1       6.857   2.263  21.698  0.00  0.00    +0.210 HD
ENDBRANCH   1  14
BRANCH   1  16
ATOM     16  C   UNL     1       7.360   4.754  23.560  0.00  0.00    +0.117 C 
BRANCH  16  17
ATOM     17  N   UNL     1       8.673   4.797  22.888  0.00  0.00    -0.310 NA
ATOM     18  H   UNL     1       8.704   4.058  22.177  0.00  0.00    +0.122 HD
BRANCH  17  19
ATOM     19  C   UNL     1       9.803   4.682  23.828  0.00  0.00    +0.055 C 
ATOM     20  C   UNL     1      10.393   6.086  24.026  0.00  0.00    +0.024 C 
BRANCH  19  21
ATOM     21  C   UNL     1      10.902   3.698  23.349  0.00  0.00    +0.053 C 
BRANCH  21  25
ATOM     22  C   UNL     1      10.092  -0.515  22.953  0.00  0.00    +0.120 A 
ATOM     23  C   UNL     1      10.572  -0.000  24.155  0.00  0.00    +0.046 A 
ATOM     24  C   UNL     1      10.780   1.374  24.295  0.00  0.00    +0.007 A 
ATOM     25  C   UNL     1      10.503   2.246  23.237  0.00  0.00    -0.046 A 
ATOM     26  C   UNL     1       9.972   1.725  22.050  0.00  0.00    +0.007 A 
ATOM     27  C   UNL     1       9.755   0.352  21.916  0.00  0.00    +0.046 A 
BRANCH  22  29
ATOM     28  C   UNL     1       9.824  -2.657  23.877  0.00  0.00    +0.277 C 
ATOM     29  O   UNL     1       9.898  -1.849  22.705  0.00  0.00    -0.495 OA
ENDBRANCH  22  29
ENDBRANCH  21  25
ENDBRANCH  19  21
ENDBRANCH  17  19
ENDBRANCH  16  17
ENDBRANCH   1  16
TORSDOF 10
ENDMDL
MODEL 2
REMARK VINA RESULT:      -5.7      1.779      2.524
REMARK  Name = 
REMARK  12 active torsions:
REMARK  status: ('A' for Active; 'I' for Inactive)
REMARK    1  A    between atoms: C_1  and  O_2
REMARK    2  A    between atoms: O_2  and  C_3
REMARK    3  A    between atoms: C_6  and  C_7
REMARK    4  A    between atoms: C_7  and  C_8
REMARK    5  A    between atoms: C_8  and  C_9
REMARK    6  A    between atoms: C_8  and  N_10
REMARK    7  A    between atoms: N_10  and  C_11
REMARK    8  A    between atoms: C_11  and  C_12
REMARK    9  A    between atoms: C_12  and  O_13
REMARK   10  A    between atoms: C_12  and  C_14
REMARK   11  A    between atoms: C_16  and  N_17
REMARK   12  A    between atoms: C_20  and  O_21
REMARK                            x       y       z     vdW  Elec       q    Type
REMARK                         _______ _______ _______ _____ _____    ______ ____
ROOT
ATOM      1  C   UNL     1       7.579   2.167  22.630  0.00  0.00    +0.158 C 
ENDROOT
BRANCH   1   2
ATOM      2  C   UNL     1       6.876   1.037  23.370  0.00  0.00    -0.016 A 
ATOM      3  C   UNL     1       6.276   1.271  24.615  0.00  0.00    +0.010 A 
ATOM      4  C   UNL     1       5.673   0.227  25.319  0.00  0.00    +0.047 A 
ATOM      5  C   UNL     1       5.649  -1.055  24.778  0.00  0.00    +0.138 A 
ATOM      6  C   UNL     1       6.231  -1.325  23.535  0.00  0.00    +0.075 A 
ATOM      7  C   UNL     1       6.841  -0.273  22.844  0.00  0.00    +0.033 A 
BRANCH   6   8
ATOM      8  N   UNL     1       6.216  -2.640  23.036  0.00  0.00    -0.285 N 
ATOM      9  H   UNL     1       6.718  -3.361  23.537  0.00  0.00    +0.155 HD
ATOM     10  C   UNL     1       5.615  -3.086  21.893  0.00  0.00    +0.330 C 
ATOM     11  O   UNL     1       5.685  -4.248  21.528  0.00  0.00    -0.279 OA
ENDBRANCH   6   8
BRANCH   5  12
ATOM     12  O   UNL     1       4.996  -2.018  25.497  0.00  0.00    -0.505 OA
ATOM     13  H   UNL     1       5.589  -2.786  25.569  0.00  0.00    +0.292 HD
ENDBRANCH   5  12
ENDBRANCH   1   2
BRANCH   1  14
ATOM     14  O   UNL     1       6.616   2.988  21.957  0.00  0.00    -0.386 OA
ATOM     15  H   UNL     1       6.149   2.441  21.307  0.00  0.00    +0.210 HD
ENDBRANCH   1  14
BRANCH   1  16
ATOM     16  C   UNL     1       8.586   1.602  21.597  0.00  0.00    +0.117 C 
BRANCH  16  17
ATOM     17  N   UNL     1       9.990   1.948  21.885  0.00  0.00    -0.310 NA
ATOM     18  H   UNL     1      10.591   1.177  21.576  0.00  0.00    +0.122 HD
BRANCH  17  19
ATOM     19  C   UNL     1      10.223   2.269  23.306  0.00  0.00    +0.055 C 
ATOM     20  C   UNL     1      10.989   3.600  23.367  0.00  0.00    +0.024 C 
BRANCH  19  21
ATOM     21  C   UNL     1      11.001   1.163  24.065  0.00  0.00    +0.053 C 
BRANCH  21  25
ATOM     22  C   UNL     1       9.109  -2.566  25.104  0.00  0.00    +0.120 A 
ATOM     23  C   UNL     1       8.991  -1.458  25.942  0.00  0.00    +0.046 A 
ATOM     24  C   UNL     1       9.560  -0.237  25.573  0.00  0.00    +0.007 A 
ATOM     25  C   UNL     1      10.245  -0.110  24.360  0.00  0.00    -0.046 A 
ATOM     26  C   UNL     1      10.315  -1.215  23.501  0.00  0.00    +0.007 A 
ATOM     27  C   UNL     1       9.736  -2.432  23.868  0.00  0.00    +0.046 A 
BRANCH  22  29
ATOM     28  C   UNL     1       9.607  -4.846  25.365  0.00  0.00    +0.277 C 
ATOM     29  O   UNL     1       8.625  -3.813  25.399  0.00  0.00    -0.495 OA
ENDBRANCH  22  29
ENDBRANCH  21  25
ENDBRANCH  19  21
ENDBRANCH  17  19
ENDBRANCH  16  17
ENDBRANCH   1  16
TORSDOF 10
ENDMDL
MODEL 3
REMARK VINA RESULT:      -5.7      1.894      3.669
REMARK  Name = 
REMARK  12 active torsions:
REMARK  status: ('A' for Active; 'I' for Inactive)
REMARK    1  A    between atoms: C_1  and  O_2
REMARK    2  A    between atoms: O_2  and  C_3
REMARK    3  A    between atoms: C_6  and  C_7
REMARK    4  A    between atoms: C_7  and  C_8
REMARK    5  A    between atoms: C_8  and  C_9
REMARK    6  A    between atoms: C_8  and  N_10
REMARK    7  A    between atoms: N_10  and  C_11
REMARK    8  A    between atoms: C_11  and  C_12
REMARK    9  A    between atoms: C_12  and  O_13
REMARK   10  A    between atoms: C_12  and  C_14
REMARK   11  A    between atoms: C_16  and  N_17
REMARK   12  A    between atoms: C_20  and  O_21
REMARK                            x       y       z     vdW  Elec       q    Type
REMARK                         _______ _______ _______ _____ _____    ______ ____
ROOT
ATOM      1  C   UNL     1       8.920   1.279  21.352  0.00  0.00    +0.158 C 
ENDROOT
BRANCH   1   2
ATOM      2  C   UNL     1       8.950  -0.083  22.032  0.00  0.00    -0.016 A 
ATOM      3  C   UNL     1      10.166  -0.634  22.460  0.00  0.00    +0.010 A 
ATOM      4  C   UNL     1      10.203  -1.904  23.040  0.00  0.00    +0.047 A 
ATOM      5  C   UNL     1       9.026  -2.626  23.212  0.00  0.00    +0.138 A 
ATOM      6  C   UNL     1       7.793  -2.105  22.804  0.00  0.00    +0.075 A 
ATOM      7  C   UNL     1       7.770  -0.836  22.216  0.00  0.00    +0.033 A 
BRANCH   6   8
ATOM      8  N   UNL     1       6.629  -2.878  22.964  0.00  0.00    -0.285 N 
ATOM      9  H   UNL     1       6.249  -3.009  23.892  0.00  0.00    +0.155 HD
ATOM     10  C   UNL     1       5.930  -3.535  21.991  0.00  0.00    +0.330 C 
ATOM     11  O   UNL     1       4.943  -4.209  22.236  0.00  0.00    -0.279 OA
ENDBRANCH   6   8
BRANCH   5  12
ATOM     12  O   UNL     1       9.129  -3.840  23.833  0.00  0.00    -0.505 OA
ATOM     13  H   UNL     1       9.537  -4.461  23.205  0.00  0.00    +0.292 HD
ENDBRANCH   5  12
ENDBRANCH   1   2
BRANCH   1  14
ATOM     14  O   UNL     1      10.193   1.923  21.485  0.00  0.00    -0.386 OA
ATOM     15  H   UNL     1      10.551   1.716  22.361  0.00  0.00    +0.210 HD
ENDBRANCH   1  14
BRANCH   1  16
ATOM     16  C   UNL     1       7.822   2.177  21.974  0.00  0.00    +0.117 C 
BRANCH  16  17
ATOM     17  N   UNL     1       8.352   3.308  22.759  0.00  0.00    -0.310 NA
ATOM     18  H   UNL     1       9.349   3.418  22.548  0.00  0.00    +0.122 HD
BRANCH  17  19
ATOM     19  C   UNL     1       8.126   3.156  24.208  0.00  0.00    +0.055 C 
ATOM     20  C   UNL     1       8.371   4.522  24.867  0.00  0.00    +0.024 C 
BRANCH  19  21
ATOM     21  C   UNL     1       9.026   2.074  24.860  0.00  0.00    +0.053 C 
BRANCH  21  25
ATOM     22  C   UNL     1       7.073  -1.466  26.349  0.00  0.00    +0.120 A 
ATOM     23  C   UNL     1       8.451  -1.311  26.486  0.00  0.00    +0.046 A 
ATOM     24  C   UNL     1       9.071  -0.138  26.050  0.00  0.00    +0.007 A 
ATOM     25  C   UNL     1       8.318   0.895  25.483  0.00  0.00    -0.046 A 
ATOM     26  C   UNL     1       6.926   0.752  25.397  0.00  0.00    +0.007 A 
ATOM     27  C   UNL     1       6.308  -0.419  25.842  0.00  0.00    +0.046 A 
BRANCH  22  29
ATOM     28  C   UNL     1       7.174  -3.781  26.734  0.00  0.00    +0.277 C 
ATOM     29  O   UNL     1       6.383  -2.595  26.705  0.00  0.00    -0.495 OA
ENDBRANCH  22  29
ENDBRANCH  21  25
ENDBRANCH  19  21
ENDBRANCH  17  19
ENDBRANCH  16  17
ENDBRANCH   1  16
TORSDOF 10
ENDMDL
MODEL 4
REMARK VINA RESULT:      -5.7      1.335      2.569
REMARK  Name = 
REMARK  12 active torsions:
REMARK  status: ('A' for Active; 'I' for Inactive)
REMARK    1  A    between atoms: C_1  and  O_2
REMARK    2  A    between atoms: O_2  and  C_3
REMARK    3  A    between atoms: C_6  and  C_7
REMARK    4  A    between atoms: C_7  and  C_8
REMARK    5  A    between atoms: C_8  and  C_9
REMARK    6  A    between atoms: C_8  and  N_10
REMARK    7  A    between atoms: N_10  and  C_11
REMARK    8  A    between atoms: C_11  and  C_12
REMARK    9  A    between atoms: C_12  and  O_13
REMARK   10  A    between atoms: C_12  and  C_14
REMARK   11  A    between atoms: C_16  and  N_17
REMARK   12  A    between atoms: C_20  and  O_21
REMARK                            x       y       z     vdW  Elec       q    Type
REMARK                         _______ _______ _______ _____ _____    ______ ____
ROOT
ATOM      1  C   UNL     1       6.546   3.323  23.184  0.00  0.00    +0.158 C 
ENDROOT
BRANCH   1   2
ATOM      2  C   UNL     1       6.768   2.085  24.042  0.00  0.00    -0.016 A 
ATOM      3  C   UNL     1       6.519   0.808  23.521  0.00  0.00    +0.010 A 
ATOM      4  C   UNL     1       6.674  -0.326  24.320  0.00  0.00    +0.047 A 
ATOM      5  C   UNL     1       7.097  -0.195  25.640  0.00  0.00    +0.138 A 
ATOM      6  C   UNL     1       7.364   1.062  26.192  0.00  0.00    +0.075 A 
ATOM      7  C   UNL     1       7.194   2.192  25.384  0.00  0.00    +0.033 A 
BRANCH   6   8
ATOM      8  N   UNL     1       7.757   1.157  27.539  0.00  0.00    -0.285 N 
ATOM      9  H   UNL     1       8.743   1.195  27.762  0.00  0.00    +0.155 HD
ATOM     10  C   UNL     1       6.948   1.170  28.640  0.00  0.00    +0.330 C 
ATOM     11  O   UNL     1       7.389   1.225  29.776  0.00  0.00    -0.279 OA
ENDBRANCH   6   8
BRANCH   5  12
ATOM     12  O   UNL     1       7.279  -1.351  26.349  0.00  0.00    -0.505 OA
ATOM     13  H   UNL     1       8.203  -1.630  26.227  0.00  0.00    +0.292 HD
ENDBRANCH   5  12
ENDBRANCH   1   2
BRANCH   1  14
ATOM     14  O   UNL     1       6.921   3.055  21.827  0.00  0.00    -0.386 OA
ATOM     15  H   UNL     1       7.801   2.649  21.827  0.00  0.00    +0.210 HD
ENDBRANCH   1  14
BRANCH   1  16
ATOM     16  C   UNL     1       7.374   4.517  23.720  0.00  0.00    +0.117 C 
BRANCH  16  17
ATOM     17  N   UNL     1       8.650   4.724  23.008  0.00  0.00    -0.310 NA
ATOM     18  H   UNL     1       8.700   4.067  22.222  0.00  0.00    +0.122 HD
BRANCH  17  19
ATOM     19  C   UNL     1       9.826   4.594  23.887  0.00  0.00    +0.055 C 
ATOM     20  C   UNL     1      10.434   5.993  24.068  0.00  0.00    +0.024 C 
BRANCH  19  21
ATOM     21  C   UNL     1      10.892   3.607  23.345  0.00  0.00    +0.053 C 
BRANCH  21  25
ATOM     22  C   UNL     1      10.043  -0.603  22.996  0.00  0.00    +0.120 A 
ATOM     23  C   UNL     1      10.434  -0.061  24.219  0.00  0.00    +0.046 A 
ATOM     24  C   UNL     1      10.654   1.313  24.339  0.00  0.00    +0.007 A 
ATOM     25  C   UNL     1      10.478   2.159  23.239  0.00  0.00    -0.046 A 
ATOM     26  C   UNL     1      10.036   1.613  22.027  0.00  0.00    +0.007 A 
ATOM     27  C   UNL     1       9.807   0.240  21.913  0.00  0.00    +0.046 A 
BRANCH  22  29
ATOM     28  C   UNL     1       9.700  -2.719  23.954  0.00  0.00    +0.277 C 
ATOM     29  O   UNL     1       9.847  -1.939  22.769  0.00  0.00    -0.495 OA
ENDBRANCH  22  29
ENDBRANCH  21  25
ENDBRANCH  19  21
ENDBRANCH  17  19
ENDBRANCH  16  17
ENDBRANCH   1  16
TORSDOF 10
ENDMDL
MODEL 5
REMARK VINA RESULT:      -5.6      2.738      4.028
REMARK  Name = 
REMARK  12 active torsions:
REMARK  status: ('A' for Active; 'I' for Inactive)
REMARK    1  A    between atoms: C_1  and  O_2
REMARK    2  A    between atoms: O_2  and  C_3
REMARK    3  A    between atoms: C_6  and  C_7
REMARK    4  A    between atoms: C_7  and  C_8
REMARK    5  A    between atoms: C_8  and  C_9
REMARK    6  A    between atoms: C_8  and  N_10
REMARK    7  A    between atoms: N_10  and  C_11
REMARK    8  A    between atoms: C_11  and  C_12
REMARK    9  A    between atoms: C_12  and  O_13
REMARK   10  A    between atoms: C_12  and  C_14
REMARK   11  A    between atoms: C_16  and  N_17
REMARK   12  A    between atoms: C_20  and  O_21
REMARK                            x       y       z     vdW  Elec       q    Type
REMARK                         _______ _______ _______ _____ _____    ______ ____
ROOT
ATOM      1  C   UNL     1       6.409   0.639  23.936  0.00  0.00    +0.158 C 
ENDROOT
BRANCH   1   2
ATOM      2  C   UNL     1       5.991  -0.819  24.074  0.00  0.00    -0.016 A 
ATOM      3  C   UNL     1       5.363  -1.267  25.244  0.00  0.00    +0.010 A 
ATOM      4  C   UNL     1       5.022  -2.613  25.395  0.00  0.00    +0.047 A 
ATOM      5  C   UNL     1       5.290  -3.517  24.371  0.00  0.00    +0.138 A 
ATOM      6  C   UNL     1       5.907  -3.105  23.185  0.00  0.00    +0.075 A 
ATOM      7  C   UNL     1       6.253  -1.756  23.051  0.00  0.00    +0.033 A 
BRANCH   6   8
ATOM      8  N   UNL     1       6.191  -4.054  22.188  0.00  0.00    -0.285 N 
ATOM      9  H   UNL     1       5.643  -4.053  21.338  0.00  0.00    +0.155 HD
ATOM     10  C   UNL     1       7.131  -5.045  22.229  0.00  0.00    +0.330 C 
ATOM     11  O   UNL     1       7.282  -5.843  21.319  0.00  0.00    -0.279 OA
ENDBRANCH   6   8
BRANCH   5  12
ATOM     12  O   UNL     1       4.881  -4.808  24.564  0.00  0.00    -0.505 OA
ATOM     13  H   UNL     1       4.114  -4.965  23.988  0.00  0.00    +0.292 HD
ENDBRANCH   5  12
ENDBRANCH   1   2
BRANCH   1  14
ATOM     14  O   UNL     1       5.253   1.469  23.768  0.00  0.00    -0.386 OA
ATOM     15  H   UNL     1       4.804   1.206  22.951  0.00  0.00    +0.210 HD
ENDBRANCH   1  14
BRANCH   1  16
ATOM     16  C   UNL     1       7.356   0.825  22.724  0.00  0.00    +0.117 C 
BRANCH  16  17
ATOM     17  N   UNL     1       8.632   1.483  23.061  0.00  0.00    -0.310 NA
ATOM     18  H   UNL     1       8.607   2.449  22.719  0.00  0.00    +0.122 HD
BRANCH  17  19
ATOM     19  C   UNL     1       9.806   0.761  22.536  0.00  0.00    +0.055 C 
ATOM     20  C   UNL     1       9.314  -0.207  21.450  0.00  0.00    +0.024 C 
BRANCH  19  21
ATOM     21  C   UNL     1      10.593  -0.008  23.629  0.00  0.00    +0.053 C 
BRANCH  21  25
ATOM     22  C   UNL     1       8.634  -2.890  26.163  0.00  0.00    +0.120 A 
ATOM     23  C   UNL     1       8.697  -1.549  26.538  0.00  0.00    +0.046 A 
ATOM     24  C   UNL     1       9.284  -0.611  25.687  0.00  0.00    +0.007 A 
ATOM     25  C   UNL     1       9.807  -1.002  24.450  0.00  0.00    -0.046 A 
ATOM     26  C   UNL     1       9.694  -2.343  24.059  0.00  0.00    +0.007 A 
ATOM     27  C   UNL     1       9.096  -3.278  24.908  0.00  0.00    +0.046 A 
BRANCH  22  29
ATOM     28  C   UNL     1       8.088  -5.169  26.318  0.00  0.00    +0.277 C 
ATOM     29  O   UNL     1       8.118  -3.889  26.946  0.00  0.00    -0.495 OA
ENDBRANCH  22  29
ENDBRANCH  21  25
ENDBRANCH  19  21
ENDBRANCH  17  19
ENDBRANCH  16  17
ENDBRANCH   1  16
TORSDOF 10
ENDMDL
MODEL 6
REMARK VINA RESULT:      -5.6      3.453      6.390
REMARK  Name = 
REMARK  12 active torsions:
REMARK  status: ('A' for Active; 'I' for Inactive)
REMARK    1  A    between atoms: C_1  and  O_2
REMARK    2  A    between atoms: O_2  and  C_3
REMARK    3  A    between atoms: C_6  and  C_7
REMARK    4  A    between atoms: C_7  and  C_8
REMARK    5  A    between atoms: C_8  and  C_9
REMARK    6  A    between atoms: C_8  and  N_10
REMARK    7  A    between atoms: N_10  and  C_11
REMARK    8  A    between atoms: C_11  and  C_12
REMARK    9  A    between atoms: C_12  and  O_13
REMARK   10  A    between atoms: C_12  and  C_14
REMARK   11  A    between atoms: C_16  and  N_17
REMARK   12  A    between atoms: C_20  and  O_21
REMARK                            x       y       z     vdW  Elec       q    Type
REMARK                         _______ _______ _______ _____ _____    ______ ____
ROOT
ATOM      1  C   UNL     1       5.322  -3.140  22.796  0.00  0.00    +0.158 C 
ENDROOT
BRANCH   1   2
ATOM      2  C   UNL     1       4.928  -4.435  23.494  0.00  0.00    -0.016 A 
ATOM      3  C   UNL     1       3.907  -5.240  22.970  0.00  0.00    +0.010 A 
ATOM      4  C   UNL     1       3.511  -6.403  23.634  0.00  0.00    +0.047 A 
ATOM      5  C   UNL     1       4.143  -6.780  24.815  0.00  0.00    +0.138 A 
ATOM      6  C   UNL     1       5.171  -6.006  25.363  0.00  0.00    +0.075 A 
ATOM      7  C   UNL     1       5.553  -4.838  24.695  0.00  0.00    +0.033 A 
BRANCH   6   8
ATOM      8  N   UNL     1       5.763  -6.402  26.576  0.00  0.00    -0.285 N 
ATOM      9  H   UNL     1       5.505  -7.292  26.981  0.00  0.00    +0.155 HD
ATOM     10  C   UNL     1       6.656  -5.697  27.332  0.00  0.00    +0.330 C 
ATOM     11  O   UNL     1       7.092  -6.116  28.391  0.00  0.00    -0.279 OA
ENDBRANCH   6   8
BRANCH   5  12
ATOM     12  O   UNL     1       3.740  -7.957  25.384  0.00  0.00    -0.505 OA
ATOM     13  H   UNL     1       3.353  -7.750  26.251  0.00  0.00    +0.292 HD
ENDBRANCH   5  12
ENDBRANCH   1   2
BRANCH   1  14
ATOM     14  O   UNL     1       5.826  -3.422  21.485  0.00  0.00    -0.386 OA
ATOM     15  H   UNL     1       6.104  -4.349  21.456  0.00  0.00    +0.210 HD
ENDBRANCH   1  14
BRANCH   1  16
ATOM     16  C   UNL     1       6.401  -2.384  23.611  0.00  0.00    +0.117 C 
BRANCH  16  17
ATOM     17  N   UNL     1       7.534  -1.907  22.797  0.00  0.00    -0.310 NA
ATOM     18  H   UNL     1       7.255  -1.904  21.810  0.00  0.00    +0.122 HD
BRANCH  17  19
ATOM     19  C   UNL     1       8.762  -2.698  23.002  0.00  0.00    +0.055 C 
ATOM     20  C   UNL     1       8.768  -3.184  24.459  0.00  0.00    +0.024 C 
BRANCH  19  21
ATOM     21  C   UNL     1      10.060  -1.908  22.691  0.00  0.00    +0.053 C 
BRANCH  21  25
ATOM     22  C   UNL     1      10.226   2.371  23.169  0.00  0.00    +0.120 A 
ATOM     23  C   UNL     1       9.838   1.812  21.953  0.00  0.00    +0.046 A 
ATOM     24  C   UNL     1       9.734   0.426  21.821  0.00  0.00    +0.007 A 
ATOM     25  C   UNL     1      10.006  -0.414  22.905  0.00  0.00    -0.046 A 
ATOM     26  C   UNL     1      10.346   0.158  24.138  0.00  0.00    +0.007 A 
ATOM     27  C   UNL     1      10.440   1.546  24.270  0.00  0.00    +0.046 A 
BRANCH  22  29
ATOM     28  C   UNL     1      11.761   4.137  23.371  0.00  0.00    +0.277 C 
ATOM     29  O   UNL     1      10.400   3.713  23.383  0.00  0.00    -0.495 OA
ENDBRANCH  22  29
ENDBRANCH  21  25
ENDBRANCH  19  21
ENDBRANCH  17  19
ENDBRANCH  16  17
ENDBRANCH   1  16
TORSDOF 10
ENDMDL
MODEL 7
REMARK VINA RESULT:      -5.5      3.607      6.659
REMARK  Name = 
REMARK  12 active torsions:
REMARK  status: ('A' for Active; 'I' for Inactive)
REMARK    1  A    between atoms: C_1  and  O_2
REMARK    2  A    between atoms: O_2  and  C_3
REMARK    3  A    between atoms: C_6  and  C_7
REMARK    4  A    between atoms: C_7  and  C_8
REMARK    5  A    between atoms: C_8  and  C_9
REMARK    6  A    between atoms: C_8  and  N_10
REMARK    7  A    between atoms: N_10  and  C_11
REMARK    8  A    between atoms: C_11  and  C_12
REMARK    9  A    between atoms: C_12  and  O_13
REMARK   10  A    between atoms: C_12  and  C_14
REMARK   11  A    between atoms: C_16  and  N_17
REMARK   12  A    between atoms: C_20  and  O_21
REMARK                            x       y       z     vdW  Elec       q    Type
REMARK                         _______ _______ _______ _____ _____    ______ ____
ROOT
ATOM      1  C   UNL     1       7.777  -4.652  26.130  0.00  0.00    +0.158 C 
ENDROOT
BRANCH   1   2
ATOM      2  C   UNL     1       6.622  -5.389  25.465  0.00  0.00    -0.016 A 
ATOM      3  C   UNL     1       5.695  -6.099  26.241  0.00  0.00    +0.010 A 
ATOM      4  C   UNL     1       4.663  -6.816  25.632  0.00  0.00    +0.047 A 
ATOM      5  C   UNL     1       4.538  -6.815  24.246  0.00  0.00    +0.138 A 
ATOM      6  C   UNL     1       5.439  -6.110  23.439  0.00  0.00    +0.075 A 
ATOM      7  C   UNL     1       6.474  -5.404  24.061  0.00  0.00    +0.033 A 
BRANCH   6   8
ATOM      8  N   UNL     1       5.300  -6.160  22.041  0.00  0.00    -0.285 N 
ATOM      9  H   UNL     1       4.512  -6.653  21.643  0.00  0.00    +0.155 HD
ATOM     10  C   UNL     1       6.145  -5.634  21.105  0.00  0.00    +0.330 C 
ATOM     11  O   UNL     1       5.952  -5.756  19.907  0.00  0.00    -0.279 OA
ENDBRANCH   6   8
BRANCH   5  12
ATOM     12  O   UNL     1       3.474  -7.494  23.719  0.00  0.00    -0.505 OA
ATOM     13  H   UNL     1       3.493  -8.398  24.079  0.00  0.00    +0.292 HD
ENDBRANCH   5  12
ENDBRANCH   1   2
BRANCH   1  14
ATOM     14  O   UNL     1       8.036  -5.210  27.424  0.00  0.00    -0.386 OA
ATOM     15  H   UNL     1       8.890  -5.666  27.395  0.00  0.00    +0.210 HD
ENDBRANCH   1  14
BRANCH   1  16
ATOM     16  C   UNL     1       7.454  -3.144  26.275  0.00  0.00    +0.117 C 
BRANCH  16  17
ATOM     17  N   UNL     1       8.648  -2.278  26.277  0.00  0.00    -0.310 NA
ATOM     18  H   UNL     1       8.753  -1.861  27.208  0.00  0.00    +0.122 HD
BRANCH  17  19
ATOM     19  C   UNL     1       8.606  -1.241  25.229  0.00  0.00    +0.055 C 
ATOM     20  C   UNL     1       8.550  -1.951  23.868  0.00  0.00    +0.024 C 
BRANCH  19  21
ATOM     21  C   UNL     1       9.813  -0.268  25.281  0.00  0.00    +0.053 C 
BRANCH  21  25
ATOM     22  C   UNL     1       9.381   3.793  23.906  0.00  0.00    +0.120 A 
ATOM     23  C   UNL     1      10.462   3.018  23.488  0.00  0.00    +0.046 A 
ATOM     24  C   UNL     1      10.567   1.686  23.893  0.00  0.00    +0.007 A 
ATOM     25  C   UNL     1       9.588   1.113  24.712  0.00  0.00    -0.046 A 
ATOM     26  C   UNL     1       8.479   1.884  25.086  0.00  0.00    +0.007 A 
ATOM     27  C   UNL     1       8.372   3.213  24.670  0.00  0.00    +0.046 A 
BRANCH  22  29
ATOM     28  C   UNL     1      10.396   5.903  23.731  0.00  0.00    +0.277 C 
ATOM     29  O   UNL     1       9.214   5.117  23.598  0.00  0.00    -0.495 OA
ENDBRANCH  22  29
ENDBRANCH  21  25
ENDBRANCH  19  21
ENDBRANCH  17  19
ENDBRANCH  16  17
ENDBRANCH   1  16
TORSDOF 10
ENDMDL
MODEL 8
REMARK VINA RESULT:      -5.5      3.837      8.101
REMARK  Name = 
REMARK  12 active torsions:
REMARK  status: ('A' for Active; 'I' for Inactive)
REMARK    1  A    between atoms: C_1  and  O_2
REMARK    2  A    between atoms: O_2  and  C_3
REMARK    3  A    between atoms: C_6  and  C_7
REMARK    4  A    between atoms: C_7  and  C_8
REMARK    5  A    between atoms: C_8  and  C_9
REMARK    6  A    between atoms: C_8  and  N_10
REMARK    7  A    between atoms: N_10  and  C_11
REMARK    8  A    between atoms: C_11  and  C_12
REMARK    9  A    between atoms: C_12  and  O_13
REMARK   10  A    between atoms: C_12  and  C_14
REMARK   11  A    between atoms: C_16  and  N_17
REMARK   12  A    between atoms: C_20  and  O_21
REMARK                            x       y       z     vdW  Elec       q    Type
REMARK                         _______ _______ _______ _____ _____    ______ ____
ROOT
ATOM      1  C   UNL     1       6.461  -5.173  27.830  0.00  0.00    +0.158 C 
ENDROOT
BRANCH   1   2
ATOM      2  C   UNL     1       7.457  -4.636  26.811  0.00  0.00    -0.016 A 
ATOM      3  C   UNL     1       8.285  -5.514  26.099  0.00  0.00    +0.010 A 
ATOM      4  C   UNL     1       9.234  -5.023  25.200  0.00  0.00    +0.047 A 
ATOM      5  C   UNL     1       9.350  -3.651  24.991  0.00  0.00    +0.138 A 
ATOM      6  C   UNL     1       8.535  -2.744  25.677  0.00  0.00    +0.075 A 
ATOM      7  C   UNL     1       7.596  -3.249  26.583  0.00  0.00    +0.033 A 
BRANCH   6   8
ATOM      8  N   UNL     1       8.704  -1.365  25.465  0.00  0.00    -0.285 N 
ATOM      9  H   UNL     1       9.491  -1.045  24.915  0.00  0.00    +0.155 HD
ATOM     10  C   UNL     1       7.931  -0.350  25.954  0.00  0.00    +0.330 C 
ATOM     11  O   UNL     1       8.180   0.825  25.736  0.00  0.00    -0.279 OA
ENDBRANCH   6   8
BRANCH   5  12
ATOM     12  O   UNL     1      10.262  -3.242  24.058  0.00  0.00    -0.505 OA
ATOM     13  H   UNL     1      10.752  -2.490  24.433  0.00  0.00    +0.292 HD
ENDBRANCH   5  12
ENDBRANCH   1   2
BRANCH   1  14
ATOM     14  O   UNL     1       6.969  -6.372  28.429  0.00  0.00    -0.386 OA
ATOM     15  H   UNL     1       6.288  -6.732  29.017  0.00  0.00    +0.210 HD
ENDBRANCH   1  14
BRANCH   1  16
ATOM     16  C   UNL     1       5.097  -5.471  27.159  0.00  0.00    +0.117 C 
BRANCH  16  17
ATOM     17  N   UNL     1       5.122  -6.635  26.253  0.00  0.00    -0.310 NA
ATOM     18  H   UNL     1       6.086  -6.791  25.942  0.00  0.00    +0.122 HD
BRANCH  17  19
ATOM     19  C   UNL     1       4.207  -6.489  25.106  0.00  0.00    +0.055 C 
ATOM     20  C   UNL     1       3.211  -7.658  25.148  0.00  0.00    +0.024 C 
BRANCH  19  21
ATOM     21  C   UNL     1       4.938  -6.452  23.739  0.00  0.00    +0.053 C 
BRANCH  21  25
ATOM     22  C   UNL     1       6.723  -2.657  22.748  0.00  0.00    +0.120 A 
ATOM     23  C   UNL     1       7.254  -3.841  22.238  0.00  0.00    +0.046 A 
ATOM     24  C   UNL     1       6.638  -5.063  22.518  0.00  0.00    +0.007 A 
ATOM     25  C   UNL     1       5.481  -5.112  23.303  0.00  0.00    -0.046 A 
ATOM     26  C   UNL     1       4.926  -3.913  23.769  0.00  0.00    +0.007 A 
ATOM     27  C   UNL     1       5.538  -2.692  23.479  0.00  0.00    +0.046 A 
BRANCH  22  29
ATOM     28  C   UNL     1       8.516  -1.430  21.856  0.00  0.00    +0.277 C 
ATOM     29  O   UNL     1       7.279  -1.419  22.565  0.00  0.00    -0.495 OA
ENDBRANCH  22  29
ENDBRANCH  21  25
ENDBRANCH  19  21
ENDBRANCH  17  19
ENDBRANCH  16  17
ENDBRANCH   1  16
TORSDOF 10
ENDMDL
MODEL 9
REMARK VINA RESULT:      -5.5      4.281      8.488
REMARK  Name = 
REMARK  12 active torsions:
REMARK  status: ('A' for Active; 'I' for Inactive)
REMARK    1  A    between atoms: C_1  and  O_2
REMARK    2  A    between atoms: O_2  and  C_3
REMARK    3  A    between atoms: C_6  and  C_7
REMARK    4  A    between atoms: C_7  and  C_8
REMARK    5  A    between atoms: C_8  and  C_9
REMARK    6  A    between atoms: C_8  and  N_10
REMARK    7  A    between atoms: N_10  and  C_11
REMARK    8  A    between atoms: C_11  and  C_12
REMARK    9  A    between atoms: C_12  and  O_13
REMARK   10  A    between atoms: C_12  and  C_14
REMARK   11  A    between atoms: C_16  and  N_17
REMARK   12  A    between atoms: C_20  and  O_21
REMARK                            x       y       z     vdW  Elec       q    Type
REMARK                         _______ _______ _______ _____ _____    ______ ____
ROOT
ATOM      1  C   UNL     1       9.376  -4.651  25.283  0.00  0.00    +0.158 C 
ENDROOT
BRANCH   1   2
ATOM      2  C   UNL     1       8.311  -4.291  24.256  0.00  0.00    -0.016 A 
ATOM      3  C   UNL     1       7.804  -5.268  23.388  0.00  0.00    +0.010 A 
ATOM      4  C   UNL     1       6.863  -4.931  22.413  0.00  0.00    +0.047 A 
ATOM      5  C   UNL     1       6.408  -3.620  22.308  0.00  0.00    +0.138 A 
ATOM      6  C   UNL     1       6.885  -2.619  23.162  0.00  0.00    +0.075 A 
ATOM      7  C   UNL     1       7.835  -2.968  24.128  0.00  0.00    +0.033 A 
BRANCH   6   8
ATOM      8  N   UNL     1       6.427  -1.299  23.003  0.00  0.00    -0.285 N 
ATOM      9  H   UNL     1       5.433  -1.130  22.929  0.00  0.00    +0.155 HD
ATOM     10  C   UNL     1       7.184  -0.166  22.898  0.00  0.00    +0.330 C 
ATOM     11  O   UNL     1       6.690   0.937  22.731  0.00  0.00    -0.279 OA
ENDBRANCH   6   8
BRANCH   5  12
ATOM     12  O   UNL     1       5.448  -3.371  21.366  0.00  0.00    -0.505 OA
ATOM     13  H   UNL     1       5.812  -3.623  20.500  0.00  0.00    +0.292 HD
ENDBRANCH   5  12
ENDBRANCH   1   2
BRANCH   1  14
ATOM     14  O   UNL     1       9.834  -5.992  25.066  0.00  0.00    -0.386 OA
ATOM     15  H   UNL     1       9.167  -6.463  24.545  0.00  0.00    +0.210 HD
ENDBRANCH   1  14
BRANCH   1  16
ATOM     16  C   UNL     1       8.815  -4.526  26.721  0.00  0.00    +0.117 C 
BRANCH  16  17
ATOM     17  N   UNL     1       8.101  -5.730  27.188  0.00  0.00    -0.310 NA
ATOM     18  H   UNL     1       8.248  -6.485  26.511  0.00  0.00    +0.122 HD
BRANCH  17  19
ATOM     19  C   UNL     1       6.664  -5.492  27.418  0.00  0.00    +0.055 C 
ATOM     20  C   UNL     1       6.285  -6.156  28.750  0.00  0.00    +0.024 C 
BRANCH  19  21
ATOM     21  C   UNL     1       5.763  -6.025  26.274  0.00  0.00    +0.053 C 
BRANCH  21  25
ATOM     22  C   UNL     1       2.416  -3.462  25.382  0.00  0.00    +0.120 A 
ATOM     23  C   UNL     1       3.637  -2.916  25.772  0.00  0.00    +0.046 A 
ATOM     24  C   UNL     1       4.734  -3.749  26.006  0.00  0.00    +0.007 A 
ATOM     25  C   UNL     1       4.622  -5.134  25.845  0.00  0.00    -0.046 A 
ATOM     26  C   UNL     1       3.405  -5.669  25.403  0.00  0.00    +0.007 A 
ATOM     27  C   UNL     1       2.313  -4.833  25.159  0.00  0.00    +0.046 A 
BRANCH  22  29
ATOM     28  C   UNL     1       0.637  -2.286  26.367  0.00  0.00    +0.277 C 
ATOM     29  O   UNL     1       1.275  -2.734  25.172  0.00  0.00    -0.495 OA
ENDBRANCH  22  29
ENDBRANCH  21  25
ENDBRANCH  19  21
ENDBRANCH  17  19
ENDBRANCH  16  17
ENDBRANCH   1  16
TORSDOF 10
ENDMDL
