MODEL 1
REMARK VINA RESULT:      -5.9      0.000      0.000
REMARK  Name = 
REMARK  6 active torsions:
REMARK  status: ('A' for Active; 'I' for Inactive)
REMARK    1  A    between atoms: O_1  and  S_2
REMARK    2  A    between atoms: S_2  and  C_5
REMARK    3  A    between atoms: C_5  and  C_6
REMARK    4  A    between atoms: C_6  and  C_7
REMARK    5  A    between atoms: C_7  and  S_8
REMARK    6  A    between atoms: S_8  and  C_9
REMARK                            x       y       z     vdW  Elec       q    Type
REMARK                         _______ _______ _______ _____ _____    ______ ____
ROOT
ATOM      1  S   UNL     1       9.173  -3.870  24.809  0.00  0.00    -0.099 S 
ENDROOT
BRANCH   1   2
ATOM      2  C   UNL     1       9.388  -2.304  24.062  0.00  0.00    +0.136 A 
ATOM      3  S   UNL     1       8.910  -2.005  22.448  0.00  0.00    -0.061 S 
ATOM      4  C   UNL     1       9.460  -0.380  22.591  0.00  0.00    +0.040 A 
ATOM      5  C   UNL     1       9.453   0.645  21.631  0.00  0.00    +0.017 A 
ATOM      6  C   UNL     1       9.951   1.898  21.999  0.00  0.00    +0.001 A 
ATOM      7  C   UNL     1      10.436   2.123  23.283  0.00  0.00    +0.002 A 
ATOM      8  C   UNL     1      10.440   1.094  24.231  0.00  0.00    +0.029 A 
ATOM      9  C   UNL     1       9.952  -0.182  23.884  0.00  0.00    +0.079 A 
ATOM     10  N   UNL     1       9.914  -1.293  24.712  0.00  0.00    -0.233 NA
ENDBRANCH   1   2
BRANCH   1  11
ATOM     11  C   UNL     1       7.840  -4.557  23.783  0.00  0.00    +0.078 C 
BRANCH  11  12
ATOM     12  C   UNL     1       6.614  -4.785  24.663  0.00  0.00    +0.036 C 
BRANCH  12  13
ATOM     13  C   UNL     1       6.808  -4.207  26.060  0.00  0.00    +0.198 C 
BRANCH  13  14
ATOM     14  S   UNL     1       6.496  -5.464  27.298  0.00  0.00    +0.080 S 
ATOM     15  O   UNL     1       6.096  -4.849  28.541  0.00  0.00    -0.147 OA
ATOM     16  O   UNL     1       5.767  -6.566  26.714  0.00  0.00    -0.147 OA
BRANCH  14  17
ATOM     17  O   UNL     1       8.016  -5.971  27.498  0.00  0.00    -0.254 OA
ATOM     18  H   UNL     1       8.272  -5.804  28.431  0.00  0.00    +0.244 HD
ENDBRANCH  14  17
ENDBRANCH  13  14
ENDBRANCH  12  13
ENDBRANCH  11  12
ENDBRANCH   1  11
TORSDOF 6
ENDMDL
MODEL 2
REMARK VINA RESULT:      -5.9      2.589      3.044
REMARK  Name = 
REMARK  6 active torsions:
REMARK  status: ('A' for Active; 'I' for Inactive)
REMARK    1  A    between atoms: O_1  and  S_2
REMARK    2  A    between atoms: S_2  and  C_5
REMARK    3  A    between atoms: C_5  and  C_6
REMARK    4  A    between atoms: C_6  and  C_7
REMARK    5  A    between atoms: C_7  and  S_8
REMARK    6  A    between atoms: S_8  and  C_9
REMARK                            x       y       z     vdW  Elec       q    Type
REMARK                         _______ _______ _______ _____ _____    ______ ____
ROOT
ATOM      1  S   UNL     1       9.131  -3.881  24.664  0.00  0.00    -0.099 S 
ENDROOT
BRANCH   1   2
ATOM      2  C   UNL     1       9.375  -2.290  23.981  0.00  0.00    +0.136 A 
ATOM      3  S   UNL     1       8.943  -1.929  22.366  0.00  0.00    -0.061 S 
ATOM      4  C   UNL     1       9.498  -0.315  22.584  0.00  0.00    +0.040 A 
ATOM      5  C   UNL     1       9.523   0.744  21.663  0.00  0.00    +0.017 A 
ATOM      6  C   UNL     1      10.019   1.980  22.089  0.00  0.00    +0.001 A 
ATOM      7  C   UNL     1      10.470   2.155  23.393  0.00  0.00    +0.002 A 
ATOM      8  C   UNL     1      10.443   1.092  24.302  0.00  0.00    +0.029 A 
ATOM      9  C   UNL     1       9.957  -0.167  23.895  0.00  0.00    +0.079 A 
ATOM     10  N   UNL     1       9.890  -1.307  24.681  0.00  0.00    -0.233 NA
ENDBRANCH   1   2
BRANCH   1  11
ATOM     11  C   UNL     1       7.360  -3.811  25.066  0.00  0.00    +0.078 C 
BRANCH  11  12
ATOM     12  C   UNL     1       6.680  -5.051  24.495  0.00  0.00    +0.036 C 
BRANCH  12  13
ATOM     13  C   UNL     1       7.098  -5.309  23.052  0.00  0.00    +0.198 C 
BRANCH  13  14
ATOM     14  S   UNL     1       5.690  -5.132  21.959  0.00  0.00    +0.080 S 
ATOM     15  O   UNL     1       4.958  -3.931  22.282  0.00  0.00    -0.147 OA
ATOM     16  O   UNL     1       6.068  -5.463  20.605  0.00  0.00    -0.147 OA
BRANCH  14  17
ATOM     17  O   UNL     1       4.815  -6.373  22.509  0.00  0.00    -0.254 OA
ATOM     18  H   UNL     1       4.002  -6.011  22.925  0.00  0.00    +0.244 HD
ENDBRANCH  14  17
ENDBRANCH  13  14
ENDBRANCH  12  13
ENDBRANCH  11  12
ENDBRANCH   1  11
TORSDOF 6
ENDMDL
MODEL 3
REMARK VINA RESULT:      -5.7      2.204      2.987
REMARK  Name = 
REMARK  6 active torsions:
REMARK  status: ('A' for Active; 'I' for Inactive)
REMARK    1  A    between atoms: O_1  and  S_2
REMARK    2  A    between atoms: S_2  and  C_5
REMARK    3  A    between atoms: C_5  and  C_6
REMARK    4  A    between atoms: C_6  and  C_7
REMARK    5  A    between atoms: C_7  and  S_8
REMARK    6  A    between atoms: S_8  and  C_9
REMARK                            x       y       z     vdW  Elec       q    Type
REMARK                         _______ _______ _______ _____ _____    ______ ____
ROOT
ATOM      1  S   UNL     1       5.807  -2.547  23.987  0.00  0.00    -0.099 S 
ENDROOT
BRANCH   1   2
ATOM      2  C   UNL     1       7.070  -1.352  23.802  0.00  0.00    +0.136 A 
ATOM      3  S   UNL     1       8.042  -0.859  25.119  0.00  0.00    -0.061 S 
ATOM      4  C   UNL     1       8.893   0.219  24.082  0.00  0.00    +0.040 A 
ATOM      5  C   UNL     1       9.942   1.100  24.390  0.00  0.00    +0.017 A 
ATOM      6  C   UNL     1      10.480   1.873  23.357  0.00  0.00    +0.001 A 
ATOM      7  C   UNL     1       9.992   1.767  22.059  0.00  0.00    +0.002 A 
ATOM      8  C   UNL     1       8.945   0.888  21.764  0.00  0.00    +0.029 A 
ATOM      9  C   UNL     1       8.377   0.103  22.789  0.00  0.00    +0.079 A 
ATOM     10  N   UNL     1       7.328  -0.791  22.644  0.00  0.00    -0.233 NA
ENDBRANCH   1   2
BRANCH   1  11
ATOM     11  C   UNL     1       6.272  -3.737  22.695  0.00  0.00    +0.078 C 
BRANCH  11  12
ATOM     12  C   UNL     1       7.655  -4.295  23.019  0.00  0.00    +0.036 C 
BRANCH  12  13
ATOM     13  C   UNL     1       7.691  -4.946  24.397  0.00  0.00    +0.198 C 
BRANCH  13  14
ATOM     14  S   UNL     1       9.240  -4.574  25.216  0.00  0.00    +0.080 S 
ATOM     15  O   UNL     1      10.068  -3.754  24.366  0.00  0.00    -0.147 OA
ATOM     16  O   UNL     1       9.002  -4.250  26.604  0.00  0.00    -0.147 OA
BRANCH  14  17
ATOM     17  O   UNL     1       9.875  -6.059  25.191  0.00  0.00    -0.254 OA
ATOM     18  H   UNL     1       9.478  -6.572  25.928  0.00  0.00    +0.244 HD
ENDBRANCH  14  17
ENDBRANCH  13  14
ENDBRANCH  12  13
ENDBRANCH  11  12
ENDBRANCH   1  11
TORSDOF 6
ENDMDL
MODEL 4
REMARK VINA RESULT:      -5.7      1.241      1.733
REMARK  Name = 
REMARK  6 active torsions:
REMARK  status: ('A' for Active; 'I' for Inactive)
REMARK    1  A    between atoms: O_1  and  S_2
REMARK    2  A    between atoms: S_2  and  C_5
REMARK    3  A    between atoms: C_5  and  C_6
REMARK    4  A    between atoms: C_6  and  C_7
REMARK    5  A    between atoms: C_7  and  S_8
REMARK    6  A    between atoms: S_8  and  C_9
REMARK                            x       y       z     vdW  Elec       q    Type
REMARK                         _______ _______ _______ _____ _____    ______ ____
ROOT
ATOM      1  S   UNL     1       7.402  -4.096  22.705  0.00  0.00    -0.099 S 
ENDROOT
BRANCH   1   2
ATOM      2  C   UNL     1       8.270  -2.594  22.927  0.00  0.00    +0.136 A 
ATOM      3  S   UNL     1       9.101  -2.243  24.379  0.00  0.00    -0.061 S 
ATOM      4  C   UNL     1       9.583  -0.724  23.730  0.00  0.00    +0.040 A 
ATOM      5  C   UNL     1      10.349   0.290  24.327  0.00  0.00    +0.017 A 
ATOM      6  C   UNL     1      10.617   1.442  23.581  0.00  0.00    +0.001 A 
ATOM      7  C   UNL     1      10.141   1.575  22.281  0.00  0.00    +0.002 A 
ATOM      8  C   UNL     1       9.376   0.559  21.697  0.00  0.00    +0.029 A 
ATOM      9  C   UNL     1       9.083  -0.609  22.431  0.00  0.00    +0.079 A 
ATOM     10  N   UNL     1       8.326  -1.681  21.987  0.00  0.00    -0.233 NA
ENDBRANCH   1   2
BRANCH   1  11
ATOM     11  C   UNL     1       7.508  -4.801  24.376  0.00  0.00    +0.078 C 
BRANCH  11  12
ATOM     12  C   UNL     1       6.195  -4.533  25.104  0.00  0.00    +0.036 C 
BRANCH  12  13
ATOM     13  C   UNL     1       6.427  -4.126  26.555  0.00  0.00    +0.198 C 
BRANCH  13  14
ATOM     14  S   UNL     1       6.410  -5.571  27.613  0.00  0.00    +0.080 S 
ATOM     15  O   UNL     1       6.130  -5.187  28.975  0.00  0.00    -0.147 OA
ATOM     16  O   UNL     1       5.716  -6.656  26.960  0.00  0.00    -0.147 OA
BRANCH  14  17
ATOM     17  O   UNL     1       7.985  -5.924  27.544  0.00  0.00    -0.254 OA
ATOM     18  H   UNL     1       8.477  -5.089  27.384  0.00  0.00    +0.244 HD
ENDBRANCH  14  17
ENDBRANCH  13  14
ENDBRANCH  12  13
ENDBRANCH  11  12
ENDBRANCH   1  11
TORSDOF 6
ENDMDL
MODEL 5
REMARK VINA RESULT:      -5.6      2.802      3.481
REMARK  Name = 
REMARK  6 active torsions:
REMARK  status: ('A' for Active; 'I' for Inactive)
REMARK    1  A    between atoms: O_1  and  S_2
REMARK    2  A    between atoms: S_2  and  C_5
REMARK    3  A    between atoms: C_5  and  C_6
REMARK    4  A    between atoms: C_6  and  C_7
REMARK    5  A    between atoms: C_7  and  S_8
REMARK    6  A    between atoms: S_8  and  C_9
REMARK                            x       y       z     vdW  Elec       q    Type
REMARK                         _______ _______ _______ _____ _____    ______ ____
ROOT
ATOM      1  S   UNL     1       8.946  -3.938  24.797  0.00  0.00    -0.099 S 
ENDROOT
BRANCH   1   2
ATOM      2  C   UNL     1       9.166  -2.262  24.349  0.00  0.00    +0.136 A 
ATOM      3  S   UNL     1       9.080  -1.004  25.503  0.00  0.00    -0.061 S 
ATOM      4  C   UNL     1       9.385   0.149  24.263  0.00  0.00    +0.040 A 
ATOM      5  C   UNL     1       9.472   1.547  24.356  0.00  0.00    +0.017 A 
ATOM      6  C   UNL     1       9.743   2.271  23.191  0.00  0.00    +0.001 A 
ATOM      7  C   UNL     1       9.927   1.622  21.975  0.00  0.00    +0.002 A 
ATOM      8  C   UNL     1       9.835   0.228  21.893  0.00  0.00    +0.029 A 
ATOM      9  C   UNL     1       9.553  -0.526  23.051  0.00  0.00    +0.079 A 
ATOM     10  N   UNL     1       9.416  -1.904  23.112  0.00  0.00    -0.233 NA
ENDBRANCH   1   2
BRANCH   1  11
ATOM     11  C   UNL     1       7.212  -3.920  25.341  0.00  0.00    +0.078 C 
BRANCH  11  12
ATOM     12  C   UNL     1       6.458  -5.025  24.606  0.00  0.00    +0.036 C 
BRANCH  12  13
ATOM     13  C   UNL     1       7.010  -5.247  23.203  0.00  0.00    +0.198 C 
BRANCH  13  14
ATOM     14  S   UNL     1       5.971  -4.430  21.993  0.00  0.00    +0.080 S 
ATOM     15  O   UNL     1       6.033  -5.129  20.732  0.00  0.00    -0.147 OA
ATOM     16  O   UNL     1       4.717  -4.042  22.597  0.00  0.00    -0.147 OA
BRANCH  14  17
ATOM     17  O   UNL     1       6.838  -3.079  21.820  0.00  0.00    -0.254 OA
ATOM     18  H   UNL     1       6.259  -2.394  21.422  0.00  0.00    +0.244 HD
ENDBRANCH  14  17
ENDBRANCH  13  14
ENDBRANCH  12  13
ENDBRANCH  11  12
ENDBRANCH   1  11
TORSDOF 6
ENDMDL
MODEL 6
REMARK VINA RESULT:      -5.6      2.763      3.412
REMARK  Name = 
REMARK  6 active torsions:
REMARK  status: ('A' for Active; 'I' for Inactive)
REMARK    1  A    between atoms: O_1  and  S_2
REMARK    2  A    between atoms: S_2  and  C_5
REMARK    3  A    between atoms: C_5  and  C_6
REMARK    4  A    between atoms: C_6  and  C_7
REMARK    5  A    between atoms: C_7  and  S_8
REMARK    6  A    between atoms: S_8  and  C_9
REMARK                            x       y       z     vdW  Elec       q    Type
REMARK                         _______ _______ _______ _____ _____    ______ ____
ROOT
ATOM      1  S   UNL     1       9.231  -3.816  24.751  0.00  0.00    -0.099 S 
ENDROOT
BRANCH   1   2
ATOM      2  C   UNL     1       9.333  -2.121  24.330  0.00  0.00    +0.136 A 
ATOM      3  S   UNL     1       8.990  -0.891  25.467  0.00  0.00    -0.061 S 
ATOM      4  C   UNL     1       9.318   0.300  24.269  0.00  0.00    +0.040 A 
ATOM      5  C   UNL     1       9.254   1.699  24.371  0.00  0.00    +0.017 A 
ATOM      6  C   UNL     1       9.582   2.459  23.245  0.00  0.00    +0.001 A 
ATOM      7  C   UNL     1       9.967   1.846  22.057  0.00  0.00    +0.002 A 
ATOM      8  C   UNL     1      10.024   0.451  21.966  0.00  0.00    +0.029 A 
ATOM      9  C   UNL     1       9.689  -0.340  23.084  0.00  0.00    +0.079 A 
ATOM     10  N   UNL     1       9.684  -1.726  23.129  0.00  0.00    -0.233 NA
ENDBRANCH   1   2
BRANCH   1  11
ATOM     11  C   UNL     1       7.437  -4.006  24.969  0.00  0.00    +0.078 C 
BRANCH  11  12
ATOM     12  C   UNL     1       6.747  -3.677  23.648  0.00  0.00    +0.036 C 
BRANCH  12  13
ATOM     13  C   UNL     1       7.239  -4.572  22.517  0.00  0.00    +0.198 C 
BRANCH  13  14
ATOM     14  S   UNL     1       5.857  -5.416  21.749  0.00  0.00    +0.080 S 
ATOM     15  O   UNL     1       4.628  -5.071  22.422  0.00  0.00    -0.147 OA
ATOM     16  O   UNL     1       5.987  -5.373  20.311  0.00  0.00    -0.147 OA
BRANCH  14  17
ATOM     17  O   UNL     1       6.228  -6.921  22.202  0.00  0.00    -0.254 OA
ATOM     18  H   UNL     1       6.674  -6.875  23.075  0.00  0.00    +0.244 HD
ENDBRANCH  14  17
ENDBRANCH  13  14
ENDBRANCH  12  13
ENDBRANCH  11  12
ENDBRANCH   1  11
TORSDOF 6
ENDMDL
MODEL 7
REMARK VINA RESULT:      -5.4      4.646      7.206
REMARK  Name = 
REMARK  6 active torsions:
REMARK  status: ('A' for Active; 'I' for Inactive)
REMARK    1  A    between atoms: O_1  and  S_2
REMARK    2  A    between atoms: S_2  and  C_5
REMARK    3  A    between atoms: C_5  and  C_6
REMARK    4  A    between atoms: C_6  and  C_7
REMARK    5  A    between atoms: C_7  and  S_8
REMARK    6  A    between atoms: S_8  and  C_9
REMARK                            x       y       z     vdW  Elec       q    Type
REMARK                         _______ _______ _______ _____ _____    ______ ____
ROOT
ATOM      1  S   UNL     1       9.484  -1.399  24.081  0.00  0.00    -0.099 S 
ENDROOT
BRANCH   1   2
ATOM      2  C   UNL     1       8.339  -2.703  23.863  0.00  0.00    +0.136 A 
ATOM      3  S   UNL     1       7.480  -3.375  25.181  0.00  0.00    -0.061 S 
ATOM      4  C   UNL     1       6.695  -4.465  24.106  0.00  0.00    +0.040 A 
ATOM      5  C   UNL     1       5.753  -5.467  24.393  0.00  0.00    +0.017 A 
ATOM      6  C   UNL     1       5.248  -6.223  23.331  0.00  0.00    +0.001 A 
ATOM      7  C   UNL     1       5.664  -5.985  22.025  0.00  0.00    +0.002 A 
ATOM      8  C   UNL     1       6.605  -4.986  21.751  0.00  0.00    +0.029 A 
ATOM      9  C   UNL     1       7.137  -4.215  22.804  0.00  0.00    +0.079 A 
ATOM     10  N   UNL     1       8.085  -3.211  22.681  0.00  0.00    -0.233 NA
ENDBRANCH   1   2
BRANCH   1  11
ATOM     11  C   UNL     1      10.287  -1.375  22.451  0.00  0.00    +0.078 C 
BRANCH  11  12
ATOM     12  C   UNL     1       9.751  -0.186  21.660  0.00  0.00    +0.036 C 
BRANCH  12  13
ATOM     13  C   UNL     1       8.621   0.520  22.400  0.00  0.00    +0.198 C 
BRANCH  13  14
ATOM     14  S   UNL     1       9.031   2.246  22.655  0.00  0.00    +0.080 S 
ATOM     15  O   UNL     1       7.980   3.088  22.137  0.00  0.00    -0.147 OA
ATOM     16  O   UNL     1       9.590   2.433  23.973  0.00  0.00    -0.147 OA
BRANCH  14  17
ATOM     17  O   UNL     1      10.262   2.345  21.613  0.00  0.00    -0.254 OA
ATOM     18  H   UNL     1       9.966   2.876  20.843  0.00  0.00    +0.244 HD
ENDBRANCH  14  17
ENDBRANCH  13  14
ENDBRANCH  12  13
ENDBRANCH  11  12
ENDBRANCH   1  11
TORSDOF 6
ENDMDL
MODEL 8
REMARK VINA RESULT:      -5.4      4.578      6.805
REMARK  Name = 
REMARK  6 active torsions:
REMARK  status: ('A' for Active; 'I' for Inactive)
REMARK    1  A    between atoms: O_1  and  S_2
REMARK    2  A    between atoms: S_2  and  C_5
REMARK    3  A    between atoms: C_5  and  C_6
REMARK    4  A    between atoms: C_6  and  C_7
REMARK    5  A    between atoms: C_7  and  S_8
REMARK    6  A    between atoms: S_8  and  C_9
REMARK                            x       y       z     vdW  Elec       q    Type
REMARK                         _______ _______ _______ _____ _____    ______ ____
ROOT
ATOM      1  S   UNL     1       7.798  -0.643  25.624  0.00  0.00    -0.099 S 
ENDROOT
BRANCH   1   2
ATOM      2  C   UNL     1       7.577  -2.048  24.606  0.00  0.00    +0.136 A 
ATOM      3  S   UNL     1       8.350  -3.535  24.946  0.00  0.00    -0.061 S 
ATOM      4  C   UNL     1       7.614  -4.230  23.554  0.00  0.00    +0.040 A 
ATOM      5  C   UNL     1       7.739  -5.533  23.045  0.00  0.00    +0.017 A 
ATOM      6  C   UNL     1       7.022  -5.862  21.891  0.00  0.00    +0.001 A 
ATOM      7  C   UNL     1       6.203  -4.926  21.269  0.00  0.00    +0.002 A 
ATOM      8  C   UNL     1       6.088  -3.630  21.785  0.00  0.00    +0.029 A 
ATOM      9  C   UNL     1       6.808  -3.268  22.942  0.00  0.00    +0.079 A 
ATOM     10  N   UNL     1       6.803  -2.022  23.547  0.00  0.00    -0.233 NA
ENDBRANCH   1   2
BRANCH   1  11
ATOM     11  C   UNL     1       9.596  -0.410  25.496  0.00  0.00    +0.078 C 
BRANCH  11  12
ATOM     12  C   UNL     1       9.942  -0.062  24.052  0.00  0.00    +0.036 C 
BRANCH  12  13
ATOM     13  C   UNL     1       9.207   1.187  23.581  0.00  0.00    +0.198 C 
BRANCH  13  14
ATOM     14  S   UNL     1       9.101   1.206  21.793  0.00  0.00    +0.080 S 
ATOM     15  O   UNL     1       9.546  -0.057  21.255  0.00  0.00    -0.147 OA
ATOM     16  O   UNL     1       7.867   1.829  21.376  0.00  0.00    -0.147 OA
BRANCH  14  17
ATOM     17  O   UNL     1      10.278   2.275  21.505  0.00  0.00    -0.254 OA
ATOM     18  H   UNL     1       9.957   3.161  21.781  0.00  0.00    +0.244 HD
ENDBRANCH  14  17
ENDBRANCH  13  14
ENDBRANCH  12  13
ENDBRANCH  11  12
ENDBRANCH   1  11
TORSDOF 6
ENDMDL
MODEL 9
REMARK VINA RESULT:      -5.3      4.762      6.950
REMARK  Name = 
REMARK  6 active torsions:
REMARK  status: ('A' for Active; 'I' for Inactive)
REMARK    1  A    between atoms: O_1  and  S_2
REMARK    2  A    between atoms: S_2  and  C_5
REMARK    3  A    between atoms: C_5  and  C_6
REMARK    4  A    between atoms: C_6  and  C_7
REMARK    5  A    between atoms: C_7  and  S_8
REMARK    6  A    between atoms: S_8  and  C_9
REMARK                            x       y       z     vdW  Elec       q    Type
REMARK                         _______ _______ _______ _____ _____    ______ ____
ROOT
ATOM      1  S   UNL     1       9.250  -0.921  25.084  0.00  0.00    -0.099 S 
ENDROOT
BRANCH   1   2
ATOM      2  C   UNL     1       8.393  -2.086  24.101  0.00  0.00    +0.136 A 
ATOM      3  S   UNL     1       7.211  -1.605  22.963  0.00  0.00    -0.061 S 
ATOM      4  C   UNL     1       6.955  -3.254  22.540  0.00  0.00    +0.040 A 
ATOM      5  C   UNL     1       6.059  -3.799  21.607  0.00  0.00    +0.017 A 
ATOM      6  C   UNL     1       6.047  -5.187  21.435  0.00  0.00    +0.001 A 
ATOM      7  C   UNL     1       6.904  -6.003  22.165  0.00  0.00    +0.002 A 
ATOM      8  C   UNL     1       7.792  -5.448  23.094  0.00  0.00    +0.029 A 
ATOM      9  C   UNL     1       7.817  -4.053  23.295  0.00  0.00    +0.079 A 
ATOM     10  N   UNL     1       8.628  -3.374  24.191  0.00  0.00    -0.233 NA
ENDBRANCH   1   2
BRANCH   1  11
ATOM     11  C   UNL     1      10.437  -0.263  23.874  0.00  0.00    +0.078 C 
BRANCH  11  12
ATOM     12  C   UNL     1      10.279   1.253  23.810  0.00  0.00    +0.036 C 
BRANCH  12  13
ATOM     13  C   UNL     1       8.823   1.675  23.964  0.00  0.00    +0.198 C 
BRANCH  13  14
ATOM     14  S   UNL     1       8.281   2.570  22.509  0.00  0.00    +0.080 S 
ATOM     15  O   UNL     1       7.193   1.869  21.871  0.00  0.00    -0.147 OA
ATOM     16  O   UNL     1       8.226   3.986  22.789  0.00  0.00    -0.147 OA
BRANCH  14  17
ATOM     17  O   UNL     1       9.590   2.331  21.593  0.00  0.00    -0.254 OA
ATOM     18  H   UNL     1       9.902   1.412  21.742  0.00  0.00    +0.244 HD
ENDBRANCH  14  17
ENDBRANCH  13  14
ENDBRANCH  12  13
ENDBRANCH  11  12
ENDBRANCH   1  11
TORSDOF 6
ENDMDL
