MODEL 1
REMARK VINA RESULT:      -6.8      0.000      0.000
REMARK  Name = 
REMARK  8 active torsions:
REMARK  status: ('A' for Active; 'I' for Inactive)
REMARK    1  A    between atoms: C_1  and  C_2
REMARK    2  A    between atoms: C_2  and  C_3
REMARK    3  A    between atoms: C_2  and  N_4
REMARK    4  A    between atoms: N_4  and  C_15
REMARK    5  A    between atoms: C_5  and  C_7
REMARK    6  A    between atoms: C_16  and  C_26
REMARK    7  A    between atoms: C_18  and  C_20
REMARK    8  A    between atoms: C_26  and  O_27
REMARK                            x       y       z     vdW  Elec       q    Type
REMARK                         _______ _______ _______ _____ _____    ______ ____
ROOT
ATOM      1  C   UNL     1       7.441  -3.869  23.706  0.00  0.00    +0.059 A 
ATOM      2  C   UNL     1       7.739  -2.666  22.974  0.00  0.00    +0.040 A 
ATOM      3  C   UNL     1       8.820  -1.970  23.485  0.00  0.00    +0.022 A 
ATOM      4  S   UNL     1       9.637  -2.944  24.632  0.00  0.00    -0.080 S 
ATOM      5  C   UNL     1       8.458  -4.194  24.588  0.00  0.00    +0.118 A 
ENDROOT
BRANCH   3   6
ATOM      6  C   UNL     1       9.317  -0.615  23.156  0.00  0.00    -0.011 A 
ATOM      7  C   UNL     1       9.076  -0.022  21.902  0.00  0.00    +0.009 A 
ATOM      8  C   UNL     1       9.511   1.275  21.612  0.00  0.00    +0.001 A 
ATOM      9  C   UNL     1      10.216   1.999  22.567  0.00  0.00    +0.000 A 
ATOM     10  C   UNL     1      10.501   1.420  23.801  0.00  0.00    +0.001 A 
ATOM     11  C   UNL     1      10.060   0.123  24.090  0.00  0.00    +0.009 A 
ENDBRANCH   3   6
BRANCH   1  12
ATOM     12  N   UNL     1       6.279  -4.642  23.477  0.00  0.00    -0.264 N 
ATOM     13  C   UNL     1       5.063  -4.375  24.177  0.00  0.00    +0.253 C 
ATOM     14  O   UNL     1       4.025  -4.983  23.914  0.00  0.00    -0.270 OA
BRANCH  13  15
ATOM     15  C   UNL     1       5.012  -3.363  25.296  0.00  0.00    +0.056 A 
ATOM     16  C   UNL     1       4.987  -1.991  24.994  0.00  0.00    +0.016 A 
ATOM     17  C   UNL     1       5.086  -1.020  25.995  0.00  0.00    +0.021 A 
ATOM     18  C   UNL     1       5.070  -1.403  27.327  0.00  0.00    +0.042 A 
ATOM     19 CL   UNL     1       5.186  -0.209  28.557  0.00  0.00    -0.083 Cl
ATOM     20  C   UNL     1       4.940  -2.749  27.659  0.00  0.00    +0.040 A 
ATOM     21  C   UNL     1       4.916  -3.729  26.651  0.00  0.00    +0.054 A 
ATOM     22 CL   UNL     1       4.769  -5.367  27.178  0.00  0.00    -0.083 Cl
ENDBRANCH  13  15
BRANCH  12  24
ATOM     23  C   UNL     1       5.961  -4.742  20.949  0.00  0.00    +0.028 C 
ATOM     24  C   UNL     1       6.266  -5.502  22.246  0.00  0.00    +0.076 C 
ATOM     25  C   UNL     1       7.529  -6.351  22.080  0.00  0.00    +0.028 C 
ENDBRANCH  12  24
ENDBRANCH   1  12
BRANCH   5  26
ATOM     26  C   UNL     1       8.701  -5.347  25.441  0.00  0.00    +0.345 C 
ATOM     27  O   UNL     1       7.967  -5.761  26.324  0.00  0.00    -0.244 OA
BRANCH  26  28
ATOM     28  O   UNL     1       9.883  -5.964  25.182  0.00  0.00    -0.477 OA
ATOM     29  H   UNL     1      10.645  -5.523  25.591  0.00  0.00    +0.295 HD
ENDBRANCH  26  28
ENDBRANCH   5  26
TORSDOF 6
ENDMDL
MODEL 2
REMARK VINA RESULT:      -6.2      2.415      4.263
REMARK  Name = 
REMARK  8 active torsions:
REMARK  status: ('A' for Active; 'I' for Inactive)
REMARK    1  A    between atoms: C_1  and  C_2
REMARK    2  A    between atoms: C_2  and  C_3
REMARK    3  A    between atoms: C_2  and  N_4
REMARK    4  A    between atoms: N_4  and  C_15
REMARK    5  A    between atoms: C_5  and  C_7
REMARK    6  A    between atoms: C_16  and  C_26
REMARK    7  A    between atoms: C_18  and  C_20
REMARK    8  A    between atoms: C_26  and  O_27
REMARK                            x       y       z     vdW  Elec       q    Type
REMARK                         _______ _______ _______ _____ _____    ______ ____
ROOT
ATOM      1  C   UNL     1       6.206  -2.635  26.331  0.00  0.00    +0.059 A 
ATOM      2  C   UNL     1       6.647  -1.471  25.608  0.00  0.00    +0.040 A 
ATOM      3  C   UNL     1       8.022  -1.316  25.610  0.00  0.00    +0.022 A 
ATOM      4  S   UNL     1       8.757  -2.741  26.210  0.00  0.00    -0.080 S 
ATOM      5  C   UNL     1       7.264  -3.474  26.639  0.00  0.00    +0.118 A 
ENDROOT
BRANCH   3   6
ATOM      6  C   UNL     1       8.847  -0.171  25.163  0.00  0.00    -0.011 A 
ATOM      7  C   UNL     1      10.189  -0.334  24.769  0.00  0.00    +0.009 A 
ATOM      8  C   UNL     1      10.950   0.745  24.307  0.00  0.00    +0.001 A 
ATOM      9  C   UNL     1      10.388   2.015  24.249  0.00  0.00    +0.000 A 
ATOM     10  C   UNL     1       9.075   2.209  24.670  0.00  0.00    +0.001 A 
ATOM     11  C   UNL     1       8.314   1.127  25.127  0.00  0.00    +0.009 A 
ENDBRANCH   3   6
BRANCH   1  12
ATOM     12  N   UNL     1       4.846  -2.897  26.612  0.00  0.00    -0.264 N 
ATOM     13  C   UNL     1       4.084  -3.798  25.806  0.00  0.00    +0.253 C 
ATOM     14  O   UNL     1       2.928  -4.101  26.102  0.00  0.00    -0.270 OA
BRANCH  13  15
ATOM     15  C   UNL     1       4.655  -4.386  24.538  0.00  0.00    +0.056 A 
ATOM     16  C   UNL     1       4.944  -3.545  23.451  0.00  0.00    +0.016 A 
ATOM     17  C   UNL     1       5.335  -4.061  22.212  0.00  0.00    +0.021 A 
ATOM     18  C   UNL     1       5.578  -5.420  22.079  0.00  0.00    +0.042 A 
ATOM     19 CL   UNL     1       6.064  -6.053  20.558  0.00  0.00    -0.083 Cl
ATOM     20  C   UNL     1       5.447  -6.257  23.184  0.00  0.00    +0.040 A 
ATOM     21  C   UNL     1       4.982  -5.747  24.409  0.00  0.00    +0.054 A 
ATOM     22 CL   UNL     1       4.842  -6.879  25.706  0.00  0.00    -0.083 Cl
ENDBRANCH  13  15
BRANCH  12  24
ATOM     23  C   UNL     1       3.255  -1.392  27.918  0.00  0.00    +0.028 C 
ATOM     24  C   UNL     1       4.337  -2.479  27.961  0.00  0.00    +0.076 C 
ATOM     25  C   UNL     1       3.877  -3.652  28.832  0.00  0.00    +0.028 C 
ENDBRANCH  12  24
ENDBRANCH   1  12
BRANCH   5  26
ATOM     26  C   UNL     1       7.338  -4.803  27.227  0.00  0.00    +0.345 C 
ATOM     27  O   UNL     1       6.773  -5.176  28.243  0.00  0.00    -0.244 OA
BRANCH  26  28
ATOM     28  O   UNL     1       8.139  -5.652  26.532  0.00  0.00    -0.477 OA
ATOM     29  H   UNL     1       8.316  -5.357  25.624  0.00  0.00    +0.295 HD
ENDBRANCH  26  28
ENDBRANCH   5  26
TORSDOF 6
ENDMDL
MODEL 3
REMARK VINA RESULT:      -6.1      3.533      5.608
REMARK  Name = 
REMARK  8 active torsions:
REMARK  status: ('A' for Active; 'I' for Inactive)
REMARK    1  A    between atoms: C_1  and  C_2
REMARK    2  A    between atoms: C_2  and  C_3
REMARK    3  A    between atoms: C_2  and  N_4
REMARK    4  A    between atoms: N_4  and  C_15
REMARK    5  A    between atoms: C_5  and  C_7
REMARK    6  A    between atoms: C_16  and  C_26
REMARK    7  A    between atoms: C_18  and  C_20
REMARK    8  A    between atoms: C_26  and  O_27
REMARK                            x       y       z     vdW  Elec       q    Type
REMARK                         _______ _______ _______ _____ _____    ______ ____
ROOT
ATOM      1  C   UNL     1       8.155   0.056  24.314  0.00  0.00    +0.059 A 
ATOM      2  C   UNL     1       7.328   1.100  23.766  0.00  0.00    +0.040 A 
ATOM      3  C   UNL     1       6.217   1.380  24.541  0.00  0.00    +0.022 A 
ATOM      4  S   UNL     1       6.368   0.603  26.059  0.00  0.00    -0.080 S 
ATOM      5  C   UNL     1       7.795  -0.246  25.617  0.00  0.00    +0.118 A 
ENDROOT
BRANCH   3   6
ATOM      6  C   UNL     1       5.039   2.224  24.238  0.00  0.00    -0.011 A 
ATOM      7  C   UNL     1       4.030   2.457  25.192  0.00  0.00    +0.009 A 
ATOM      8  C   UNL     1       2.942   3.290  24.914  0.00  0.00    +0.001 A 
ATOM      9  C   UNL     1       2.830   3.891  23.665  0.00  0.00    +0.000 A 
ATOM     10  C   UNL     1       3.794   3.644  22.692  0.00  0.00    +0.001 A 
ATOM     11  C   UNL     1       4.885   2.814  22.974  0.00  0.00    +0.009 A 
ENDBRANCH   3   6
BRANCH   1  12
ATOM     12  N   UNL     1       9.239  -0.517  23.611  0.00  0.00    -0.264 N 
ATOM     13  C   UNL     1       9.112  -1.783  22.962  0.00  0.00    +0.253 C 
ATOM     14  O   UNL     1      10.023  -2.242  22.271  0.00  0.00    -0.270 OA
BRANCH  13  15
ATOM     15  C   UNL     1       7.872  -2.627  23.129  0.00  0.00    +0.056 A 
ATOM     16  C   UNL     1       6.700  -2.287  22.433  0.00  0.00    +0.016 A 
ATOM     17  C   UNL     1       5.492  -2.951  22.667  0.00  0.00    +0.021 A 
ATOM     18  C   UNL     1       5.468  -4.058  23.501  0.00  0.00    +0.042 A 
ATOM     19 CL   UNL     1       3.984  -4.877  23.785  0.00  0.00    -0.083 Cl
ATOM     20  C   UNL     1       6.648  -4.511  24.085  0.00  0.00    +0.040 A 
ATOM     21  C   UNL     1       7.846  -3.798  23.907  0.00  0.00    +0.054 A 
ATOM     22 CL   UNL     1       9.244  -4.441  24.691  0.00  0.00    -0.083 Cl
ENDBRANCH  13  15
BRANCH  12  24
ATOM     23  C   UNL     1      10.078   1.432  22.197  0.00  0.00    +0.028 C 
ATOM     24  C   UNL     1      10.389   0.389  23.279  0.00  0.00    +0.076 C 
ATOM     25  C   UNL     1      11.011   1.064  24.504  0.00  0.00    +0.028 C 
ENDBRANCH  12  24
ENDBRANCH   1  12
BRANCH   5  26
ATOM     26  C   UNL     1       8.379  -1.107  26.634  0.00  0.00    +0.345 C 
ATOM     27  O   UNL     1       8.110  -2.283  26.828  0.00  0.00    -0.244 OA
BRANCH  26  28
ATOM     28  O   UNL     1       9.294  -0.473  27.412  0.00  0.00    -0.477 OA
ATOM     29  H   UNL     1       9.076  -0.495  28.357  0.00  0.00    +0.295 HD
ENDBRANCH  26  28
ENDBRANCH   5  26
TORSDOF 6
ENDMDL
MODEL 4
REMARK VINA RESULT:      -5.9      3.237      5.951
REMARK  Name = 
REMARK  8 active torsions:
REMARK  status: ('A' for Active; 'I' for Inactive)
REMARK    1  A    between atoms: C_1  and  C_2
REMARK    2  A    between atoms: C_2  and  C_3
REMARK    3  A    between atoms: C_2  and  N_4
REMARK    4  A    between atoms: N_4  and  C_15
REMARK    5  A    between atoms: C_5  and  C_7
REMARK    6  A    between atoms: C_16  and  C_26
REMARK    7  A    between atoms: C_18  and  C_20
REMARK    8  A    between atoms: C_26  and  O_27
REMARK                            x       y       z     vdW  Elec       q    Type
REMARK                         _______ _______ _______ _____ _____    ______ ____
ROOT
ATOM      1  C   UNL     1       7.536  -2.195  25.078  0.00  0.00    +0.059 A 
ATOM      2  C   UNL     1       7.638  -1.583  26.377  0.00  0.00    +0.040 A 
ATOM      3  C   UNL     1       6.528  -0.827  26.712  0.00  0.00    +0.022 A 
ATOM      4  S   UNL     1       5.269  -1.133  25.593  0.00  0.00    -0.080 S 
ATOM      5  C   UNL     1       6.250  -2.105  24.572  0.00  0.00    +0.118 A 
ENDROOT
BRANCH   3   6
ATOM      6  C   UNL     1       6.323   0.104  27.844  0.00  0.00    -0.011 A 
ATOM      7  C   UNL     1       5.073   0.234  28.480  0.00  0.00    +0.009 A 
ATOM      8  C   UNL     1       4.897   1.084  29.576  0.00  0.00    +0.001 A 
ATOM      9  C   UNL     1       5.966   1.839  30.047  0.00  0.00    +0.000 A 
ATOM     10  C   UNL     1       7.201   1.758  29.410  0.00  0.00    +0.001 A 
ATOM     11  C   UNL     1       7.376   0.903  28.316  0.00  0.00    +0.009 A 
ENDBRANCH   3   6
BRANCH   1  12
ATOM     12  N   UNL     1       8.616  -2.861  24.455  0.00  0.00    -0.264 N 
ATOM     13  C   UNL     1       9.684  -2.132  23.848  0.00  0.00    +0.253 C 
ATOM     14  O   UNL     1      10.671  -2.707  23.387  0.00  0.00    -0.270 OA
BRANCH  13  15
ATOM     15  C   UNL     1       9.627  -0.630  23.713  0.00  0.00    +0.056 A 
ATOM     16  C   UNL     1       9.926   0.180  24.821  0.00  0.00    +0.016 A 
ATOM     17  C   UNL     1       9.746   1.566  24.784  0.00  0.00    +0.021 A 
ATOM     18  C   UNL     1       9.397   2.181  23.591  0.00  0.00    +0.042 A 
ATOM     19 CL   UNL     1       9.182   3.885  23.543  0.00  0.00    -0.083 Cl
ATOM     20  C   UNL     1       9.245   1.417  22.437  0.00  0.00    +0.040 A 
ATOM     21  C   UNL     1       9.353   0.016  22.495  0.00  0.00    +0.054 A 
ATOM     22 CL   UNL     1       9.129  -0.831  21.007  0.00  0.00    -0.083 Cl
ENDBRANCH  13  15
BRANCH  12  24
ATOM     23  C   UNL     1       8.451  -4.710  26.202  0.00  0.00    +0.028 C 
ATOM     24  C   UNL     1       8.777  -4.324  24.754  0.00  0.00    +0.076 C 
ATOM     25  C   UNL     1       8.024  -5.234  23.780  0.00  0.00    +0.028 C 
ENDBRANCH  12  24
ENDBRANCH   1  12
BRANCH   5  26
ATOM     26  C   UNL     1       5.607  -2.662  23.392  0.00  0.00    +0.345 C 
ATOM     27  O   UNL     1       4.810  -3.587  23.371  0.00  0.00    -0.244 OA
BRANCH  26  28
ATOM     28  O   UNL     1       5.986  -2.054  22.238  0.00  0.00    -0.477 OA
ATOM     29  H   UNL     1       5.384  -1.346  21.961  0.00  0.00    +0.295 HD
ENDBRANCH  26  28
ENDBRANCH   5  26
TORSDOF 6
ENDMDL
MODEL 5
REMARK VINA RESULT:      -5.8      2.899      3.666
REMARK  Name = 
REMARK  8 active torsions:
REMARK  status: ('A' for Active; 'I' for Inactive)
REMARK    1  A    between atoms: C_1  and  C_2
REMARK    2  A    between atoms: C_2  and  C_3
REMARK    3  A    between atoms: C_2  and  N_4
REMARK    4  A    between atoms: N_4  and  C_15
REMARK    5  A    between atoms: C_5  and  C_7
REMARK    6  A    between atoms: C_16  and  C_26
REMARK    7  A    between atoms: C_18  and  C_20
REMARK    8  A    between atoms: C_26  and  O_27
REMARK                            x       y       z     vdW  Elec       q    Type
REMARK                         _______ _______ _______ _____ _____    ______ ____
ROOT
ATOM      1  C   UNL     1       6.392  -4.100  24.595  0.00  0.00    +0.059 A 
ATOM      2  C   UNL     1       5.841  -2.771  24.644  0.00  0.00    +0.040 A 
ATOM      3  C   UNL     1       6.481  -1.949  25.555  0.00  0.00    +0.022 A 
ATOM      4  S   UNL     1       7.921  -2.703  26.093  0.00  0.00    -0.080 S 
ATOM      5  C   UNL     1       7.596  -4.178  25.274  0.00  0.00    +0.118 A 
ENDROOT
BRANCH   3   6
ATOM      6  C   UNL     1       6.105  -0.603  26.044  0.00  0.00    -0.011 A 
ATOM      7  C   UNL     1       5.628   0.395  25.173  0.00  0.00    +0.009 A 
ATOM      8  C   UNL     1       5.234   1.650  25.648  0.00  0.00    +0.001 A 
ATOM      9  C   UNL     1       5.330   1.939  27.004  0.00  0.00    +0.000 A 
ATOM     10  C   UNL     1       5.837   0.983  27.880  0.00  0.00    +0.001 A 
ATOM     11  C   UNL     1       6.225  -0.275  27.403  0.00  0.00    +0.009 A 
ENDBRANCH   3   6
BRANCH   1  12
ATOM     12  N   UNL     1       5.790  -5.156  23.873  0.00  0.00    -0.264 N 
ATOM     13  C   UNL     1       4.769  -5.965  24.460  0.00  0.00    +0.253 C 
ATOM     14  O   UNL     1       4.178  -6.825  23.805  0.00  0.00    -0.270 OA
BRANCH  13  15
ATOM     15  C   UNL     1       4.401  -5.825  25.917  0.00  0.00    +0.056 A 
ATOM     16  C   UNL     1       5.113  -6.550  26.887  0.00  0.00    +0.016 A 
ATOM     17  C   UNL     1       4.716  -6.564  28.227  0.00  0.00    +0.021 A 
ATOM     18  C   UNL     1       3.681  -5.741  28.645  0.00  0.00    +0.042 A 
ATOM     19 CL   UNL     1       3.196  -5.753  30.293  0.00  0.00    -0.083 Cl
ATOM     20  C   UNL     1       3.057  -4.895  27.731  0.00  0.00    +0.040 A 
ATOM     21  C   UNL     1       3.409  -4.938  26.371  0.00  0.00    +0.054 A 
ATOM     22 CL   UNL     1       2.559  -3.858  25.325  0.00  0.00    -0.083 Cl
ENDBRANCH  13  15
BRANCH  12  24
ATOM     23  C   UNL     1       5.999  -3.785  21.734  0.00  0.00    +0.028 C 
ATOM     24  C   UNL     1       6.004  -5.173  22.387  0.00  0.00    +0.076 C 
ATOM     25  C   UNL     1       7.247  -5.958  21.957  0.00  0.00    +0.028 C 
ENDBRANCH  12  24
ENDBRANCH   1  12
BRANCH   5  26
ATOM     26  C   UNL     1       8.593  -5.229  25.409  0.00  0.00    +0.345 C 
ATOM     27  O   UNL     1       9.453  -5.520  24.592  0.00  0.00    -0.244 OA
BRANCH  26  28
ATOM     28  O   UNL     1       8.489  -5.919  26.575  0.00  0.00    -0.477 OA
ATOM     29  H   UNL     1       7.652  -5.763  27.040  0.00  0.00    +0.295 HD
ENDBRANCH  26  28
ENDBRANCH   5  26
TORSDOF 6
ENDMDL
MODEL 6
REMARK VINA RESULT:      -5.8      2.658      4.077
REMARK  Name = 
REMARK  8 active torsions:
REMARK  status: ('A' for Active; 'I' for Inactive)
REMARK    1  A    between atoms: C_1  and  C_2
REMARK    2  A    between atoms: C_2  and  C_3
REMARK    3  A    between atoms: C_2  and  N_4
REMARK    4  A    between atoms: N_4  and  C_15
REMARK    5  A    between atoms: C_5  and  C_7
REMARK    6  A    between atoms: C_16  and  C_26
REMARK    7  A    between atoms: C_18  and  C_20
REMARK    8  A    between atoms: C_26  and  O_27
REMARK                            x       y       z     vdW  Elec       q    Type
REMARK                         _______ _______ _______ _____ _____    ______ ____
ROOT
ATOM      1  C   UNL     1       6.707  -3.833  24.278  0.00  0.00    +0.059 A 
ATOM      2  C   UNL     1       6.513  -2.448  24.619  0.00  0.00    +0.040 A 
ATOM      3  C   UNL     1       6.594  -1.601  23.527  0.00  0.00    +0.022 A 
ATOM      4  S   UNL     1       6.587  -2.525  22.085  0.00  0.00    -0.080 S 
ATOM      5  C   UNL     1       6.669  -4.031  22.908  0.00  0.00    +0.118 A 
ENDROOT
BRANCH   3   6
ATOM      6  C   UNL     1       6.651  -0.123  23.477  0.00  0.00    -0.011 A 
ATOM      7  C   UNL     1       7.443   0.557  22.532  0.00  0.00    +0.009 A 
ATOM      8  C   UNL     1       7.458   1.953  22.463  0.00  0.00    +0.001 A 
ATOM      9  C   UNL     1       6.695   2.700  23.353  0.00  0.00    +0.000 A 
ATOM     10  C   UNL     1       5.934   2.052  24.322  0.00  0.00    +0.001 A 
ATOM     11  C   UNL     1       5.916   0.654  24.387  0.00  0.00    +0.009 A 
ENDBRANCH   3   6
BRANCH   1  12
ATOM     12  N   UNL     1       6.842  -4.852  25.248  0.00  0.00    -0.264 N 
ATOM     13  C   UNL     1       5.765  -5.745  25.538  0.00  0.00    +0.253 C 
ATOM     14  O   UNL     1       5.909  -6.691  26.314  0.00  0.00    -0.270 OA
BRANCH  13  15
ATOM     15  C   UNL     1       4.396  -5.540  24.936  0.00  0.00    +0.056 A 
ATOM     16  C   UNL     1       3.961  -6.378  23.896  0.00  0.00    +0.016 A 
ATOM     17  C   UNL     1       2.766  -6.136  23.213  0.00  0.00    +0.021 A 
ATOM     18  C   UNL     1       1.917  -5.131  23.650  0.00  0.00    +0.042 A 
ATOM     19 CL   UNL     1       0.445  -4.836  22.814  0.00  0.00    -0.083 Cl
ATOM     20  C   UNL     1       2.252  -4.383  24.776  0.00  0.00    +0.040 A 
ATOM     21  C   UNL     1       3.488  -4.580  25.416  0.00  0.00    +0.054 A 
ATOM     22 CL   UNL     1       3.806  -3.585  26.791  0.00  0.00    -0.083 Cl
ENDBRANCH  13  15
BRANCH  12  24
ATOM     23  C   UNL     1       9.322  -4.879  24.659  0.00  0.00    +0.028 C 
ATOM     24  C   UNL     1       8.236  -5.182  25.699  0.00  0.00    +0.076 C 
ATOM     25  C   UNL     1       8.606  -4.562  27.049  0.00  0.00    +0.028 C 
ENDBRANCH  12  24
ENDBRANCH   1  12
BRANCH   5  26
ATOM     26  C   UNL     1       6.681  -5.225  22.077  0.00  0.00    +0.345 C 
ATOM     27  O   UNL     1       7.414  -6.192  22.211  0.00  0.00    -0.244 OA
BRANCH  26  28
ATOM     28  O   UNL     1       5.772  -5.184  21.068  0.00  0.00    -0.477 OA
ATOM     29  H   UNL     1       4.854  -5.247  21.376  0.00  0.00    +0.295 HD
ENDBRANCH  26  28
ENDBRANCH   5  26
TORSDOF 6
ENDMDL
MODEL 7
REMARK VINA RESULT:      -5.8      3.067      3.705
REMARK  Name = 
REMARK  8 active torsions:
REMARK  status: ('A' for Active; 'I' for Inactive)
REMARK    1  A    between atoms: C_1  and  C_2
REMARK    2  A    between atoms: C_2  and  C_3
REMARK    3  A    between atoms: C_2  and  N_4
REMARK    4  A    between atoms: N_4  and  C_15
REMARK    5  A    between atoms: C_5  and  C_7
REMARK    6  A    between atoms: C_16  and  C_26
REMARK    7  A    between atoms: C_18  and  C_20
REMARK    8  A    between atoms: C_26  and  O_27
REMARK                            x       y       z     vdW  Elec       q    Type
REMARK                         _______ _______ _______ _____ _____    ______ ____
ROOT
ATOM      1  C   UNL     1       7.366  -1.378  23.598  0.00  0.00    +0.059 A 
ATOM      2  C   UNL     1       6.516  -0.241  23.361  0.00  0.00    +0.040 A 
ATOM      3  C   UNL     1       7.212   0.888  22.965  0.00  0.00    +0.022 A 
ATOM      4  S   UNL     1       8.826   0.461  22.586  0.00  0.00    -0.080 S 
ATOM      5  C   UNL     1       8.650  -1.161  23.125  0.00  0.00    +0.118 A 
ENDROOT
BRANCH   3   6
ATOM      6  C   UNL     1       6.747   2.286  22.819  0.00  0.00    -0.011 A 
ATOM      7  C   UNL     1       5.430   2.665  23.139  0.00  0.00    +0.009 A 
ATOM      8  C   UNL     1       5.009   3.995  23.039  0.00  0.00    +0.001 A 
ATOM      9  C   UNL     1       5.895   4.971  22.596  0.00  0.00    +0.000 A 
ATOM     10  C   UNL     1       7.191   4.614  22.235  0.00  0.00    +0.001 A 
ATOM     11  C   UNL     1       7.611   3.283  22.341  0.00  0.00    +0.009 A 
ENDBRANCH   3   6
BRANCH   1  12
ATOM     12  N   UNL     1       6.900  -2.580  24.177  0.00  0.00    -0.264 N 
ATOM     13  C   UNL     1       6.503  -2.635  25.548  0.00  0.00    +0.253 C 
ATOM     14  O   UNL     1       6.009  -3.655  26.031  0.00  0.00    -0.270 OA
BRANCH  13  15
ATOM     15  C   UNL     1       6.709  -1.457  26.469  0.00  0.00    +0.056 A 
ATOM     16  C   UNL     1       8.011  -1.007  26.743  0.00  0.00    +0.016 A 
ATOM     17  C   UNL     1       8.257  -0.018  27.699  0.00  0.00    +0.021 A 
ATOM     18  C   UNL     1       7.192   0.637  28.299  0.00  0.00    +0.042 A 
ATOM     19 CL   UNL     1       7.495   1.857  29.470  0.00  0.00    -0.083 Cl
ATOM     20  C   UNL     1       5.888   0.317  27.932  0.00  0.00    +0.040 A 
ATOM     21  C   UNL     1       5.643  -0.729  27.026  0.00  0.00    +0.054 A 
ATOM     22 CL   UNL     1       3.986  -1.051  26.657  0.00  0.00    -0.083 Cl
ENDBRANCH  13  15
BRANCH  12  24
ATOM     23  C   UNL     1       6.080  -3.200  21.844  0.00  0.00    +0.028 C 
ATOM     24  C   UNL     1       6.511  -3.683  23.235  0.00  0.00    +0.076 C 
ATOM     25  C   UNL     1       7.568  -4.783  23.111  0.00  0.00    +0.028 C 
ENDBRANCH  12  24
ENDBRANCH   1  12
BRANCH   5  26
ATOM     26  C   UNL     1       9.820  -2.017  23.003  0.00  0.00    +0.345 C 
ATOM     27  O   UNL     1      10.194  -2.850  23.813  0.00  0.00    -0.244 OA
BRANCH  26  28
ATOM     28  O   UNL     1      10.522  -1.805  21.859  0.00  0.00    -0.477 OA
ATOM     29  H   UNL     1      10.036  -2.061  21.058  0.00  0.00    +0.295 HD
ENDBRANCH  26  28
ENDBRANCH   5  26
TORSDOF 6
ENDMDL
MODEL 8
REMARK VINA RESULT:      -5.7      3.469      6.079
REMARK  Name = 
REMARK  8 active torsions:
REMARK  status: ('A' for Active; 'I' for Inactive)
REMARK    1  A    between atoms: C_1  and  C_2
REMARK    2  A    between atoms: C_2  and  C_3
REMARK    3  A    between atoms: C_2  and  N_4
REMARK    4  A    between atoms: N_4  and  C_15
REMARK    5  A    between atoms: C_5  and  C_7
REMARK    6  A    between atoms: C_16  and  C_26
REMARK    7  A    between atoms: C_18  and  C_20
REMARK    8  A    between atoms: C_26  and  O_27
REMARK                            x       y       z     vdW  Elec       q    Type
REMARK                         _______ _______ _______ _____ _____    ______ ____
ROOT
ATOM      1  C   UNL     1       7.832  -0.140  23.474  0.00  0.00    +0.059 A 
ATOM      2  C   UNL     1       6.760  -1.023  23.095  0.00  0.00    +0.040 A 
ATOM      3  C   UNL     1       6.899  -2.301  23.605  0.00  0.00    +0.022 A 
ATOM      4  S   UNL     1       8.144  -2.316  24.780  0.00  0.00    -0.080 S 
ATOM      5  C   UNL     1       8.617  -0.693  24.473  0.00  0.00    +0.118 A 
ENDROOT
BRANCH   3   6
ATOM      6  C   UNL     1       6.138  -3.533  23.296  0.00  0.00    -0.011 A 
ATOM      7  C   UNL     1       4.796  -3.694  23.690  0.00  0.00    +0.009 A 
ATOM      8  C   UNL     1       4.071  -4.842  23.358  0.00  0.00    +0.001 A 
ATOM      9  C   UNL     1       4.681  -5.864  22.639  0.00  0.00    +0.000 A 
ATOM     10  C   UNL     1       6.019  -5.746  22.272  0.00  0.00    +0.001 A 
ATOM     11  C   UNL     1       6.742  -4.593  22.602  0.00  0.00    +0.009 A 
ENDBRANCH   3   6
BRANCH   1  12
ATOM     12  N   UNL     1       7.994   1.154  22.929  0.00  0.00    -0.264 N 
ATOM     13  C   UNL     1       7.472   2.306  23.592  0.00  0.00    +0.253 C 
ATOM     14  O   UNL     1       7.690   3.442  23.170  0.00  0.00    -0.270 OA
BRANCH  13  15
ATOM     15  C   UNL     1       6.598   2.175  24.816  0.00  0.00    +0.056 A 
ATOM     16  C   UNL     1       7.190   2.027  26.081  0.00  0.00    +0.016 A 
ATOM     17  C   UNL     1       6.425   1.757  27.220  0.00  0.00    +0.021 A 
ATOM     18  C   UNL     1       5.041   1.769  27.136  0.00  0.00    +0.042 A 
ATOM     19 CL   UNL     1       4.100   1.444  28.536  0.00  0.00    -0.083 Cl
ATOM     20  C   UNL     1       4.424   2.066  25.923  0.00  0.00    +0.040 A 
ATOM     21  C   UNL     1       5.195   2.263  24.765  0.00  0.00    +0.054 A 
ATOM     22 CL   UNL     1       4.324   2.608  23.314  0.00  0.00    -0.083 Cl
ENDBRANCH  13  15
BRANCH  12  24
ATOM     23  C   UNL     1      10.244   2.133  22.239  0.00  0.00    +0.028 C 
ATOM     24  C   UNL     1       9.013   1.310  21.837  0.00  0.00    +0.076 C 
ATOM     25  C   UNL     1       9.443  -0.017  21.207  0.00  0.00    +0.028 C 
ENDBRANCH  12  24
ENDBRANCH   1  12
BRANCH   5  26
ATOM     26  C   UNL     1       9.714  -0.173  25.275  0.00  0.00    +0.345 C 
ATOM     27  O   UNL     1      10.746   0.324  24.852  0.00  0.00    -0.244 OA
BRANCH  26  28
ATOM     28  O   UNL     1       9.505  -0.297  26.612  0.00  0.00    -0.477 OA
ATOM     29  H   UNL     1       9.883   0.433  27.128  0.00  0.00    +0.295 HD
ENDBRANCH  26  28
ENDBRANCH   5  26
TORSDOF 6
ENDMDL
MODEL 9
REMARK VINA RESULT:      -5.7      1.840      2.203
REMARK  Name = 
REMARK  8 active torsions:
REMARK  status: ('A' for Active; 'I' for Inactive)
REMARK    1  A    between atoms: C_1  and  C_2
REMARK    2  A    between atoms: C_2  and  C_3
REMARK    3  A    between atoms: C_2  and  N_4
REMARK    4  A    between atoms: N_4  and  C_15
REMARK    5  A    between atoms: C_5  and  C_7
REMARK    6  A    between atoms: C_16  and  C_26
REMARK    7  A    between atoms: C_18  and  C_20
REMARK    8  A    between atoms: C_26  and  O_27
REMARK                            x       y       z     vdW  Elec       q    Type
REMARK                         _______ _______ _______ _____ _____    ______ ____
ROOT
ATOM      1  C   UNL     1       6.134  -3.965  24.925  0.00  0.00    +0.059 A 
ATOM      2  C   UNL     1       6.353  -3.054  23.832  0.00  0.00    +0.040 A 
ATOM      3  C   UNL     1       7.551  -2.367  23.926  0.00  0.00    +0.022 A 
ATOM      4  S   UNL     1       8.517  -3.067  25.154  0.00  0.00    -0.080 S 
ATOM      5  C   UNL     1       7.282  -4.141  25.679  0.00  0.00    +0.118 A 
ENDROOT
BRANCH   3   6
ATOM      6  C   UNL     1       8.051  -1.222  23.133  0.00  0.00    -0.011 A 
ATOM      7  C   UNL     1       9.211  -1.318  22.342  0.00  0.00    +0.009 A 
ATOM      8  C   UNL     1       9.654  -0.245  21.562  0.00  0.00    +0.001 A 
ATOM      9  C   UNL     1       8.953   0.956  21.574  0.00  0.00    +0.000 A 
ATOM     10  C   UNL     1       7.825   1.089  22.379  0.00  0.00    +0.001 A 
ATOM     11  C   UNL     1       7.381   0.012  23.155  0.00  0.00    +0.009 A 
ENDBRANCH   3   6
BRANCH   1  12
ATOM     12  N   UNL     1       4.908  -4.638  25.133  0.00  0.00    -0.264 N 
ATOM     13  C   UNL     1       3.878  -4.065  25.939  0.00  0.00    +0.253 C 
ATOM     14  O   UNL     1       2.775  -4.603  26.047  0.00  0.00    -0.270 OA
BRANCH  13  15
ATOM     15  C   UNL     1       4.113  -2.797  26.723  0.00  0.00    +0.056 A 
ATOM     16  C   UNL     1       4.136  -1.561  26.057  0.00  0.00    +0.016 A 
ATOM     17  C   UNL     1       4.493  -0.381  26.716  0.00  0.00    +0.021 A 
ATOM     18  C   UNL     1       4.698  -0.396  28.088  0.00  0.00    +0.042 A 
ATOM     19 CL   UNL     1       5.131   1.055  28.899  0.00  0.00    -0.083 Cl
ATOM     20  C   UNL     1       4.529  -1.580  28.800  0.00  0.00    +0.040 A 
ATOM     21  C   UNL     1       4.244  -2.780  28.123  0.00  0.00    +0.054 A 
ATOM     22 CL   UNL     1       4.074  -4.191  29.105  0.00  0.00    -0.083 Cl
ENDBRANCH  13  15
BRANCH  12  24
ATOM     23  C   UNL     1       4.301  -7.106  24.933  0.00  0.00    +0.028 C 
ATOM     24  C   UNL     1       4.597  -5.783  24.213  0.00  0.00    +0.076 C 
ATOM     25  C   UNL     1       3.492  -5.472  23.200  0.00  0.00    +0.028 C 
ENDBRANCH  12  24
ENDBRANCH   1  12
BRANCH   5  26
ATOM     26  C   UNL     1       7.621  -5.030  26.780  0.00  0.00    +0.345 C 
ATOM     27  O   UNL     1       7.086  -5.058  27.878  0.00  0.00    -0.244 OA
BRANCH  26  28
ATOM     28  O   UNL     1       8.645  -5.874  26.492  0.00  0.00    -0.477 OA
ATOM     29  H   UNL     1       8.426  -6.524  25.805  0.00  0.00    +0.295 HD
ENDBRANCH  26  28
ENDBRANCH   5  26
TORSDOF 6
ENDMDL
