MODEL 1
REMARK VINA RESULT:      -5.4      0.000      0.000
REMARK  Name = 
REMARK  18 active torsions:
REMARK  status: ('A' for Active; 'I' for Inactive)
REMARK    1  A    between atoms: C_5  and  C_7
REMARK    2  A    between atoms: N_9  and  C_10
REMARK    3  A    between atoms: C_10  and  C_11
REMARK    4  A    between atoms: C_10  and  C_16
REMARK    5  A    between atoms: C_11  and  C_12
REMARK    6  A    between atoms: C_16  and  C_18
REMARK    7  A    between atoms: C_23  and  C_24
REMARK    8  A    between atoms: C_23  and  C_25
REMARK    9  A    between atoms: C_26  and  C_28
REMARK   10  A    between atoms: C_28  and  N_30
REMARK   11  A    between atoms: C_28  and  C_38
REMARK   12  A    between atoms: N_33  and  C_34
REMARK   13  A    between atoms: C_34  and  C_35
REMARK   14  A    between atoms: C_34  and  C_36
REMARK   15  A    between atoms: C_34  and  C_37
REMARK   16  A    between atoms: C_38  and  C_39
REMARK   17  A    between atoms: C_38  and  C_40
REMARK   18  A    between atoms: C_38  and  C_41
REMARK                            x       y       z     vdW  Elec       q    Type
REMARK                         _______ _______ _______ _____ _____    ______ ____
ROOT
ATOM      1  C   UNL     1       5.425   3.785  22.669  0.00  0.00    +0.018 C 
ATOM      2  C   UNL     1       5.686   4.929  23.635  0.00  0.00    -0.025 C 
ATOM      3  C   UNL     1       4.495   5.813  23.932  0.00  0.00    +0.011 C 
ATOM      4  C   UNL     1       6.987   5.689  23.627  0.00  0.00    +0.011 C 
ATOM      5  C   UNL     1       5.642   3.485  24.122  0.00  0.00    +0.030 C 
ATOM      6  C   UNL     1       6.862   2.541  24.236  0.00  0.00    +0.166 C 
ATOM      7  N   UNL     1       6.935   2.010  22.861  0.00  0.00    -0.288 N 
ATOM      8  C   UNL     1       7.889   1.148  22.325  0.00  0.00    +0.237 C 
ATOM      9  O   UNL     1       8.397   1.403  21.227  0.00  0.00    -0.274 OA
ATOM     10  C   UNL     1       6.428   2.993  21.909  0.00  0.00    +0.113 C 
ENDROOT
BRANCH   6  11
ATOM     11  C   UNL     1       6.787   1.673  25.539  0.00  0.00    +0.234 C 
ATOM     12  N   UNL     1       5.514   1.401  25.988  0.00  0.00    -0.304 N 
ATOM     13  H   UNL     1       4.702   1.665  25.435  0.00  0.00    +0.149 HD
ATOM     14  O   UNL     1       7.742   1.364  26.247  0.00  0.00    -0.274 OA
BRANCH  12  15
ATOM     15  C   UNL     1       5.249   0.692  27.238  0.00  0.00    +0.149 C 
BRANCH  15  16
ATOM     16  C   UNL     1       4.587  -0.630  26.860  0.00  0.00    +0.237 C 
ATOM     17  O   UNL     1       3.453  -0.723  26.390  0.00  0.00    -0.285 OA
BRANCH  16  18
ATOM     18  C   UNL     1       5.396  -1.902  27.087  0.00  0.00    +0.279 C 
ATOM     19  O   UNL     1       4.874  -2.952  27.419  0.00  0.00    -0.267 OA
ATOM     20  N   UNL     1       6.740  -1.755  26.875  0.00  0.00    -0.323 N 
ATOM     21  H   UNL     1       7.358  -2.543  27.001  0.00  0.00    +0.145 HD
ATOM     22  H   UNL     1       7.115  -0.845  26.638  0.00  0.00    +0.145 HD
ENDBRANCH  16  18
ENDBRANCH  15  16
BRANCH  15  23
ATOM     23  C   UNL     1       4.424   1.563  28.195  0.00  0.00    +0.034 C 
BRANCH  23  24
ATOM     24  C   UNL     1       5.265   2.170  29.314  0.00  0.00    -0.009 C 
ATOM     25  C   UNL     1       6.038   3.470  28.948  0.00  0.00    +0.003 C 
ATOM     26  C   UNL     1       7.082   3.031  29.999  0.00  0.00    +0.001 C 
ATOM     27  C   UNL     1       6.663   1.583  29.670  0.00  0.00    +0.003 C 
ENDBRANCH  23  24
ENDBRANCH  15  23
ENDBRANCH  12  15
ENDBRANCH   6  11
BRANCH   8  28
ATOM     28  C   UNL     1       8.283  -0.137  23.119  0.00  0.00    +0.166 C 
BRANCH  28  29
ATOM     29  N   UNL     1       7.938  -1.352  22.355  0.00  0.00    -0.288 N 
ATOM     30  H   UNL     1       8.297  -1.405  21.416  0.00  0.00    +0.151 HD
ATOM     31  C   UNL     1       7.289  -2.419  22.906  0.00  0.00    +0.301 C 
ATOM     32  N   UNL     1       6.984  -3.396  21.987  0.00  0.00    -0.295 N 
ATOM     33  H   UNL     1       7.018  -3.135  21.012  0.00  0.00    +0.151 HD
ATOM     34  O   UNL     1       7.026  -2.510  24.094  0.00  0.00    -0.253 OA
BRANCH  32  35
ATOM     35  C   UNL     1       6.294  -4.648  22.358  0.00  0.00    +0.028 C 
ATOM     36  C   UNL     1       7.105  -5.412  23.423  0.00  0.00    +0.031 C 
ATOM     37  C   UNL     1       6.176  -5.548  21.115  0.00  0.00    +0.031 C 
ATOM     38  C   UNL     1       4.868  -4.377  22.879  0.00  0.00    +0.031 C 
ENDBRANCH  32  35
ENDBRANCH  28  29
BRANCH  28  39
ATOM     39  C   UNL     1       9.731  -0.201  23.715  0.00  0.00    -0.011 C 
ATOM     40  C   UNL     1      10.369   1.190  23.867  0.00  0.00    +0.013 C 
ATOM     41  C   UNL     1      10.636  -1.041  22.778  0.00  0.00    +0.013 C 
ATOM     42  C   UNL     1       9.745  -0.923  25.082  0.00  0.00    +0.013 C 
ENDBRANCH  28  39
ENDBRANCH   8  28
TORSDOF 10
ENDMDL
MODEL 2
REMARK VINA RESULT:      -5.4      2.498      7.206
REMARK  Name = 
REMARK  18 active torsions:
REMARK  status: ('A' for Active; 'I' for Inactive)
REMARK    1  A    between atoms: C_5  and  C_7
REMARK    2  A    between atoms: N_9  and  C_10
REMARK    3  A    between atoms: C_10  and  C_11
REMARK    4  A    between atoms: C_10  and  C_16
REMARK    5  A    between atoms: C_11  and  C_12
REMARK    6  A    between atoms: C_16  and  C_18
REMARK    7  A    between atoms: C_23  and  C_24
REMARK    8  A    between atoms: C_23  and  C_25
REMARK    9  A    between atoms: C_26  and  C_28
REMARK   10  A    between atoms: C_28  and  N_30
REMARK   11  A    between atoms: C_28  and  C_38
REMARK   12  A    between atoms: N_33  and  C_34
REMARK   13  A    between atoms: C_34  and  C_35
REMARK   14  A    between atoms: C_34  and  C_36
REMARK   15  A    between atoms: C_34  and  C_37
REMARK   16  A    between atoms: C_38  and  C_39
REMARK   17  A    between atoms: C_38  and  C_40
REMARK   18  A    between atoms: C_38  and  C_41
REMARK                            x       y       z     vdW  Elec       q    Type
REMARK                         _______ _______ _______ _____ _____    ______ ____
ROOT
ATOM      1  C   UNL     1       3.210  -0.702  28.455  0.00  0.00    +0.018 C 
ATOM      2  C   UNL     1       3.007  -2.053  29.122  0.00  0.00    -0.025 C 
ATOM      3  C   UNL     1       1.582  -2.379  29.509  0.00  0.00    +0.011 C 
ATOM      4  C   UNL     1       4.016  -2.617  30.088  0.00  0.00    +0.011 C 
ATOM      5  C   UNL     1       3.338  -1.952  27.637  0.00  0.00    +0.030 C 
ATOM      6  C   UNL     1       4.761  -1.982  27.032  0.00  0.00    +0.166 C 
ATOM      7  N   UNL     1       5.145  -0.561  27.151  0.00  0.00    -0.288 N 
ATOM      8  C   UNL     1       6.368   0.025  26.828  0.00  0.00    +0.237 C 
ATOM      9  O   UNL     1       6.899   0.808  27.623  0.00  0.00    -0.274 OA
ATOM     10  C   UNL     1       4.483   0.050  28.298  0.00  0.00    +0.113 C 
ENDROOT
BRANCH   6  11
ATOM     11  C   UNL     1       4.797  -2.823  25.710  0.00  0.00    +0.234 C 
ATOM     12  N   UNL     1       5.207  -4.128  25.857  0.00  0.00    -0.304 N 
ATOM     13  H   UNL     1       5.365  -4.520  26.784  0.00  0.00    +0.149 HD
ATOM     14  O   UNL     1       4.642  -2.376  24.575  0.00  0.00    -0.274 OA
BRANCH  12  15
ATOM     15  C   UNL     1       5.396  -5.033  24.726  0.00  0.00    +0.149 C 
BRANCH  15  16
ATOM     16  C   UNL     1       4.855  -6.393  25.157  0.00  0.00    +0.237 C 
ATOM     17  O   UNL     1       4.391  -7.227  24.381  0.00  0.00    -0.285 OA
BRANCH  16  18
ATOM     18  C   UNL     1       4.898  -6.718  26.646  0.00  0.00    +0.279 C 
ATOM     19  O   UNL     1       5.901  -6.547  27.318  0.00  0.00    -0.267 OA
ATOM     20  N   UNL     1       3.720  -7.199  27.147  0.00  0.00    -0.323 N 
ATOM     21  H   UNL     1       3.651  -7.443  28.124  0.00  0.00    +0.145 HD
ATOM     22  H   UNL     1       2.935  -7.354  26.526  0.00  0.00    +0.145 HD
ENDBRANCH  16  18
ENDBRANCH  15  16
BRANCH  15  23
ATOM     23  C   UNL     1       6.864  -5.048  24.280  0.00  0.00    +0.034 C 
BRANCH  23  24
ATOM     24  C   UNL     1       7.020  -5.096  22.762  0.00  0.00    -0.009 C 
ATOM     25  C   UNL     1       5.830  -4.520  21.943  0.00  0.00    +0.003 C 
ATOM     26  C   UNL     1       6.230  -5.523  20.838  0.00  0.00    +0.001 C 
ATOM     27  C   UNL     1       6.766  -6.416  21.976  0.00  0.00    +0.003 C 
ENDBRANCH  23  24
ENDBRANCH  15  23
ENDBRANCH  12  15
ENDBRANCH   6  11
BRANCH   8  28
ATOM     28  C   UNL     1       7.030  -0.309  25.455  0.00  0.00    +0.166 C 
BRANCH  28  29
ATOM     29  N   UNL     1       7.163   0.907  24.628  0.00  0.00    -0.288 N 
ATOM     30  H   UNL     1       8.058   1.055  24.193  0.00  0.00    +0.151 HD
ATOM     31  C   UNL     1       6.112   1.730  24.340  0.00  0.00    +0.301 C 
ATOM     32  N   UNL     1       6.485   2.854  23.639  0.00  0.00    -0.295 N 
ATOM     33  H   UNL     1       7.468   3.089  23.640  0.00  0.00    +0.151 HD
ATOM     34  O   UNL     1       4.958   1.486  24.650  0.00  0.00    -0.253 OA
BRANCH  32  35
ATOM     35  C   UNL     1       5.514   3.878  23.206  0.00  0.00    +0.028 C 
ATOM     36  C   UNL     1       6.216   4.961  22.363  0.00  0.00    +0.031 C 
ATOM     37  C   UNL     1       4.912   4.560  24.448  0.00  0.00    +0.031 C 
ATOM     38  C   UNL     1       4.354   3.257  22.403  0.00  0.00    +0.031 C 
ENDBRANCH  32  35
ENDBRANCH  28  29
BRANCH  28  39
ATOM     39  C   UNL     1       8.347  -1.159  25.477  0.00  0.00    -0.011 C 
ATOM     40  C   UNL     1       9.606  -0.291  25.633  0.00  0.00    +0.013 C 
ATOM     41  C   UNL     1       8.472  -1.947  24.148  0.00  0.00    +0.013 C 
ATOM     42  C   UNL     1       8.313  -2.220  26.600  0.00  0.00    +0.013 C 
ENDBRANCH  28  39
ENDBRANCH   8  28
TORSDOF 10
ENDMDL
MODEL 3
REMARK VINA RESULT:      -5.4      2.162      3.343
REMARK  Name = 
REMARK  18 active torsions:
REMARK  status: ('A' for Active; 'I' for Inactive)
REMARK    1  A    between atoms: C_5  and  C_7
REMARK    2  A    between atoms: N_9  and  C_10
REMARK    3  A    between atoms: C_10  and  C_11
REMARK    4  A    between atoms: C_10  and  C_16
REMARK    5  A    between atoms: C_11  and  C_12
REMARK    6  A    between atoms: C_16  and  C_18
REMARK    7  A    between atoms: C_23  and  C_24
REMARK    8  A    between atoms: C_23  and  C_25
REMARK    9  A    between atoms: C_26  and  C_28
REMARK   10  A    between atoms: C_28  and  N_30
REMARK   11  A    between atoms: C_28  and  C_38
REMARK   12  A    between atoms: N_33  and  C_34
REMARK   13  A    between atoms: C_34  and  C_35
REMARK   14  A    between atoms: C_34  and  C_36
REMARK   15  A    between atoms: C_34  and  C_37
REMARK   16  A    between atoms: C_38  and  C_39
REMARK   17  A    between atoms: C_38  and  C_40
REMARK   18  A    between atoms: C_38  and  C_41
REMARK                            x       y       z     vdW  Elec       q    Type
REMARK                         _______ _______ _______ _____ _____    ______ ____
ROOT
ATOM      1  C   UNL     1       8.009   1.838  23.025  0.00  0.00    +0.018 C 
ATOM      2  C   UNL     1       9.130   2.545  23.767  0.00  0.00    -0.025 C 
ATOM      3  C   UNL     1       8.976   4.043  23.902  0.00  0.00    +0.011 C 
ATOM      4  C   UNL     1      10.569   2.119  23.618  0.00  0.00    +0.011 C 
ATOM      5  C   UNL     1       8.139   1.656  24.508  0.00  0.00    +0.030 C 
ATOM      6  C   UNL     1       8.325   0.146  24.787  0.00  0.00    +0.166 C 
ATOM      7  N   UNL     1       7.814  -0.437  23.531  0.00  0.00    -0.288 N 
ATOM      8  C   UNL     1       7.790  -1.779  23.157  0.00  0.00    +0.237 C 
ATOM      9  O   UNL     1       8.176  -2.108  22.030  0.00  0.00    -0.274 OA
ATOM     10  C   UNL     1       8.037   0.480  22.419  0.00  0.00    +0.113 C 
ENDROOT
BRANCH   6  11
ATOM     11  C   UNL     1       7.829  -0.229  26.227  0.00  0.00    +0.234 C 
ATOM     12  N   UNL     1       6.504   0.045  26.479  0.00  0.00    -0.304 N 
ATOM     13  H   UNL     1       5.890   0.366  25.733  0.00  0.00    +0.149 HD
ATOM     14  O   UNL     1       8.546  -0.589  27.158  0.00  0.00    -0.274 OA
BRANCH  12  15
ATOM     15  C   UNL     1       5.890  -0.145  27.792  0.00  0.00    +0.149 C 
BRANCH  15  16
ATOM     16  C   UNL     1       4.566  -0.864  27.557  0.00  0.00    +0.237 C 
ATOM     17  O   UNL     1       3.869  -0.716  26.553  0.00  0.00    -0.285 OA
BRANCH  16  18
ATOM     18  C   UNL     1       4.093  -1.822  28.645  0.00  0.00    +0.279 C 
ATOM     19  O   UNL     1       3.763  -1.433  29.752  0.00  0.00    -0.267 OA
ATOM     20  N   UNL     1       4.066  -3.135  28.260  0.00  0.00    -0.323 N 
ATOM     21  H   UNL     1       3.766  -3.844  28.913  0.00  0.00    +0.145 HD
ATOM     22  H   UNL     1       4.390  -3.396  27.338  0.00  0.00    +0.145 HD
ENDBRANCH  16  18
ENDBRANCH  15  16
BRANCH  15  23
ATOM     23  C   UNL     1       5.762   1.193  28.532  0.00  0.00    +0.034 C 
BRANCH  23  24
ATOM     24  C   UNL     1       5.774   2.394  27.589  0.00  0.00    -0.009 C 
ATOM     25  C   UNL     1       7.022   3.316  27.687  0.00  0.00    +0.003 C 
ATOM     26  C   UNL     1       6.090   4.465  27.242  0.00  0.00    +0.001 C 
ATOM     27  C   UNL     1       4.951   3.674  27.919  0.00  0.00    +0.003 C 
ENDBRANCH  23  24
ENDBRANCH  15  23
ENDBRANCH  12  15
ENDBRANCH   6  11
BRANCH   8  28
ATOM     28  C   UNL     1       7.253  -2.839  24.171  0.00  0.00    +0.166 C 
BRANCH  28  29
ATOM     29  N   UNL     1       6.059  -3.520  23.633  0.00  0.00    -0.288 N 
ATOM     30  H   UNL     1       6.111  -3.823  22.675  0.00  0.00    +0.151 HD
ATOM     31  C   UNL     1       4.984  -3.857  24.405  0.00  0.00    +0.301 C 
ATOM     32  N   UNL     1       3.947  -4.393  23.677  0.00  0.00    -0.295 N 
ATOM     33  H   UNL     1       3.964  -4.245  22.678  0.00  0.00    +0.151 HD
ATOM     34  O   UNL     1       4.952  -3.719  25.617  0.00  0.00    -0.253 OA
BRANCH  32  35
ATOM     35  C   UNL     1       2.687  -4.842  24.303  0.00  0.00    +0.028 C 
ATOM     36  C   UNL     1       2.954  -6.020  25.260  0.00  0.00    +0.031 C 
ATOM     37  C   UNL     1       1.723  -5.331  23.206  0.00  0.00    +0.031 C 
ATOM     38  C   UNL     1       1.990  -3.695  25.063  0.00  0.00    +0.031 C 
ENDBRANCH  32  35
ENDBRANCH  28  29
BRANCH  28  39
ATOM     39  C   UNL     1       8.290  -3.847  24.776  0.00  0.00    -0.011 C 
ATOM     40  C   UNL     1       8.128  -4.018  26.295  0.00  0.00    +0.013 C 
ATOM     41  C   UNL     1       9.727  -3.331  24.504  0.00  0.00    +0.013 C 
ATOM     42  C   UNL     1       8.197  -5.229  24.091  0.00  0.00    +0.013 C 
ENDBRANCH  28  39
ENDBRANCH   8  28
TORSDOF 10
ENDMDL
MODEL 4
REMARK VINA RESULT:      -5.3      3.030      7.861
REMARK  Name = 
REMARK  18 active torsions:
REMARK  status: ('A' for Active; 'I' for Inactive)
REMARK    1  A    between atoms: C_5  and  C_7
REMARK    2  A    between atoms: N_9  and  C_10
REMARK    3  A    between atoms: C_10  and  C_11
REMARK    4  A    between atoms: C_10  and  C_16
REMARK    5  A    between atoms: C_11  and  C_12
REMARK    6  A    between atoms: C_16  and  C_18
REMARK    7  A    between atoms: C_23  and  C_24
REMARK    8  A    between atoms: C_23  and  C_25
REMARK    9  A    between atoms: C_26  and  C_28
REMARK   10  A    between atoms: C_28  and  N_30
REMARK   11  A    between atoms: C_28  and  C_38
REMARK   12  A    between atoms: N_33  and  C_34
REMARK   13  A    between atoms: C_34  and  C_35
REMARK   14  A    between atoms: C_34  and  C_36
REMARK   15  A    between atoms: C_34  and  C_37
REMARK   16  A    between atoms: C_38  and  C_39
REMARK   17  A    between atoms: C_38  and  C_40
REMARK   18  A    between atoms: C_38  and  C_41
REMARK                            x       y       z     vdW  Elec       q    Type
REMARK                         _______ _______ _______ _____ _____    ______ ____
ROOT
ATOM      1  C   UNL     1       4.517  -4.203  23.282  0.00  0.00    +0.018 C 
ATOM      2  C   UNL     1       5.836  -4.596  22.639  0.00  0.00    -0.025 C 
ATOM      3  C   UNL     1       6.177  -3.870  21.357  0.00  0.00    +0.011 C 
ATOM      4  C   UNL     1       6.327  -6.021  22.647  0.00  0.00    +0.011 C 
ATOM      5  C   UNL     1       5.803  -3.787  23.930  0.00  0.00    +0.030 C 
ATOM      6  C   UNL     1       5.829  -4.379  25.359  0.00  0.00    +0.166 C 
ATOM      7  N   UNL     1       4.396  -4.661  25.572  0.00  0.00    -0.288 N 
ATOM      8  C   UNL     1       3.798  -5.275  26.670  0.00  0.00    +0.237 C 
ATOM      9  O   UNL     1       2.963  -6.169  26.492  0.00  0.00    -0.274 OA
ATOM     10  C   UNL     1       3.743  -4.960  24.301  0.00  0.00    +0.113 C 
ENDROOT
BRANCH   6  11
ATOM     11  C   UNL     1       6.735  -3.523  26.310  0.00  0.00    +0.234 C 
ATOM     12  N   UNL     1       6.808  -2.184  26.000  0.00  0.00    -0.304 N 
ATOM     13  H   UNL     1       6.221  -1.789  25.268  0.00  0.00    +0.149 HD
ATOM     14  O   UNL     1       7.477  -3.970  27.182  0.00  0.00    -0.274 OA
BRANCH  12  15
ATOM     15  C   UNL     1       7.678  -1.251  26.713  0.00  0.00    +0.149 C 
BRANCH  15  16
ATOM     16  C   UNL     1       6.861   0.015  26.950  0.00  0.00    +0.237 C 
ATOM     17  O   UNL     1       6.810   0.611  28.026  0.00  0.00    -0.285 OA
BRANCH  16  18
ATOM     18  C   UNL     1       6.064   0.560  25.769  0.00  0.00    +0.279 C 
ATOM     19  O   UNL     1       5.006   0.067  25.420  0.00  0.00    -0.267 OA
ATOM     20  N   UNL     1       6.638   1.642  25.160  0.00  0.00    -0.323 N 
ATOM     21  H   UNL     1       6.184   2.072  24.368  0.00  0.00    +0.145 HD
ATOM     22  H   UNL     1       7.539   1.979  25.476  0.00  0.00    +0.145 HD
ENDBRANCH  16  18
ENDBRANCH  15  16
BRANCH  15  23
ATOM     23  C   UNL     1       8.985  -1.027  25.942  0.00  0.00    +0.034 C 
BRANCH  23  24
ATOM     24  C   UNL     1       8.851  -1.328  24.451  0.00  0.00    -0.009 C 
ATOM     25  C   UNL     1       9.787  -2.442  23.901  0.00  0.00    +0.003 C 
ATOM     26  C   UNL     1       9.736  -1.687  22.554  0.00  0.00    +0.001 C 
ATOM     27  C   UNL     1       9.522  -0.407  23.389  0.00  0.00    +0.003 C 
ENDBRANCH  23  24
ENDBRANCH  15  23
ENDBRANCH  12  15
ENDBRANCH   6  11
BRANCH   8  28
ATOM     28  C   UNL     1       4.184  -4.803  28.107  0.00  0.00    +0.166 C 
BRANCH  28  29
ATOM     29  N   UNL     1       3.180  -3.860  28.637  0.00  0.00    -0.288 N 
ATOM     30  H   UNL     1       2.462  -4.255  29.222  0.00  0.00    +0.151 HD
ATOM     31  C   UNL     1       3.269  -2.508  28.473  0.00  0.00    +0.301 C 
ATOM     32  N   UNL     1       2.173  -1.834  28.961  0.00  0.00    -0.295 N 
ATOM     33  H   UNL     1       1.340  -2.378  29.135  0.00  0.00    +0.151 HD
ATOM     34  O   UNL     1       4.229  -1.950  27.967  0.00  0.00    -0.253 OA
BRANCH  32  35
ATOM     35  C   UNL     1       2.057  -0.363  28.905  0.00  0.00    +0.028 C 
ATOM     36  C   UNL     1       3.216   0.297  29.676  0.00  0.00    +0.031 C 
ATOM     37  C   UNL     1       0.738   0.066  29.573  0.00  0.00    +0.031 C 
ATOM     38  C   UNL     1       2.035   0.150  27.451  0.00  0.00    +0.031 C 
ENDBRANCH  32  35
ENDBRANCH  28  29
BRANCH  28  39
ATOM     39  C   UNL     1       4.570  -5.909  29.150  0.00  0.00    -0.011 C 
ATOM     40  C   UNL     1       3.371  -6.781  29.555  0.00  0.00    +0.013 C 
ATOM     41  C   UNL     1       5.126  -5.235  30.431  0.00  0.00    +0.013 C 
ATOM     42  C   UNL     1       5.705  -6.813  28.617  0.00  0.00    +0.013 C 
ENDBRANCH  28  39
ENDBRANCH   8  28
TORSDOF 10
ENDMDL
MODEL 5
REMARK VINA RESULT:      -5.3      2.312      6.295
REMARK  Name = 
REMARK  18 active torsions:
REMARK  status: ('A' for Active; 'I' for Inactive)
REMARK    1  A    between atoms: C_5  and  C_7
REMARK    2  A    between atoms: N_9  and  C_10
REMARK    3  A    between atoms: C_10  and  C_11
REMARK    4  A    between atoms: C_10  and  C_16
REMARK    5  A    between atoms: C_11  and  C_12
REMARK    6  A    between atoms: C_16  and  C_18
REMARK    7  A    between atoms: C_23  and  C_24
REMARK    8  A    between atoms: C_23  and  C_25
REMARK    9  A    between atoms: C_26  and  C_28
REMARK   10  A    between atoms: C_28  and  N_30
REMARK   11  A    between atoms: C_28  and  C_38
REMARK   12  A    between atoms: N_33  and  C_34
REMARK   13  A    between atoms: C_34  and  C_35
REMARK   14  A    between atoms: C_34  and  C_36
REMARK   15  A    between atoms: C_34  and  C_37
REMARK   16  A    between atoms: C_38  and  C_39
REMARK   17  A    between atoms: C_38  and  C_40
REMARK   18  A    between atoms: C_38  and  C_41
REMARK                            x       y       z     vdW  Elec       q    Type
REMARK                         _______ _______ _______ _____ _____    ______ ____
ROOT
ATOM      1  C   UNL     1       4.942   2.178  28.467  0.00  0.00    +0.018 C 
ATOM      2  C   UNL     1       5.725   1.268  29.398  0.00  0.00    -0.025 C 
ATOM      3  C   UNL     1       4.915   0.598  30.485  0.00  0.00    +0.011 C 
ATOM      4  C   UNL     1       7.126   1.606  29.841  0.00  0.00    +0.011 C 
ATOM      5  C   UNL     1       5.453   0.864  27.953  0.00  0.00    +0.030 C 
ATOM      6  C   UNL     1       6.384   1.153  26.752  0.00  0.00    +0.166 C 
ATOM      7  N   UNL     1       5.957   2.517  26.387  0.00  0.00    -0.288 N 
ATOM      8  C   UNL     1       6.490   3.348  25.403  0.00  0.00    +0.237 C 
ATOM      9  O   UNL     1       6.737   4.530  25.668  0.00  0.00    -0.274 OA
ATOM     10  C   UNL     1       5.479   3.232  27.566  0.00  0.00    +0.113 C 
ENDROOT
BRANCH   6  11
ATOM     11  C   UNL     1       6.441  -0.071  25.774  0.00  0.00    +0.234 C 
ATOM     12  N   UNL     1       7.355  -1.045  26.108  0.00  0.00    -0.304 N 
ATOM     13  H   UNL     1       7.864  -0.998  26.988  0.00  0.00    +0.149 HD
ATOM     14  O   UNL     1       5.865  -0.147  24.692  0.00  0.00    -0.274 OA
BRANCH  12  15
ATOM     15  C   UNL     1       7.618  -2.209  25.264  0.00  0.00    +0.149 C 
BRANCH  15  16
ATOM     16  C   UNL     1       7.062  -3.421  26.004  0.00  0.00    +0.237 C 
ATOM     17  O   UNL     1       6.307  -3.350  26.973  0.00  0.00    -0.285 OA
BRANCH  16  18
ATOM     18  C   UNL     1       7.480  -4.797  25.496  0.00  0.00    +0.279 C 
ATOM     19  O   UNL     1       7.248  -5.166  24.358  0.00  0.00    -0.267 OA
ATOM     20  N   UNL     1       8.139  -5.558  26.424  0.00  0.00    -0.323 N 
ATOM     21  H   UNL     1       8.455  -6.485  26.180  0.00  0.00    +0.145 HD
ATOM     22  H   UNL     1       8.265  -5.207  27.365  0.00  0.00    +0.145 HD
ENDBRANCH  16  18
ENDBRANCH  15  16
BRANCH  15  23
ATOM     23  C   UNL     1       9.110  -2.306  24.920  0.00  0.00    +0.034 C 
BRANCH  23  24
ATOM     24  C   UNL     1       9.370  -2.325  23.416  0.00  0.00    -0.009 C 
ATOM     25  C   UNL     1      10.255  -1.168  22.870  0.00  0.00    +0.003 C 
ATOM     26  C   UNL     1       9.470  -1.321  21.548  0.00  0.00    +0.001 C 
ATOM     27  C   UNL     1       8.293  -1.813  22.415  0.00  0.00    +0.003 C 
ENDBRANCH  23  24
ENDBRANCH  15  23
ENDBRANCH  12  15
ENDBRANCH   6  11
BRANCH   8  28
ATOM     28  C   UNL     1       6.745   2.766  23.977  0.00  0.00    +0.166 C 
BRANCH  28  29
ATOM     29  N   UNL     1       5.896   3.441  22.976  0.00  0.00    -0.288 N 
ATOM     30  H   UNL     1       6.377   3.913  22.228  0.00  0.00    +0.151 HD
ATOM     31  C   UNL     1       4.535   3.336  22.962  0.00  0.00    +0.301 C 
ATOM     32  N   UNL     1       3.945   4.128  22.004  0.00  0.00    -0.295 N 
ATOM     33  H   UNL     1       4.508   4.868  21.610  0.00  0.00    +0.151 HD
ATOM     34  O   UNL     1       3.906   2.601  23.705  0.00  0.00    -0.253 OA
BRANCH  32  35
ATOM     35  C   UNL     1       2.483   4.166  21.796  0.00  0.00    +0.028 C 
ATOM     36  C   UNL     1       1.757   4.409  23.133  0.00  0.00    +0.031 C 
ATOM     37  C   UNL     1       2.016   2.808  21.241  0.00  0.00    +0.031 C 
ATOM     38  C   UNL     1       2.083   5.252  20.777  0.00  0.00    +0.031 C 
ENDBRANCH  32  35
ENDBRANCH  28  29
BRANCH  28  39
ATOM     39  C   UNL     1       8.236   2.642  23.506  0.00  0.00    -0.011 C 
ATOM     40  C   UNL     1       9.096   1.821  24.479  0.00  0.00    +0.013 C 
ATOM     41  C   UNL     1       8.859   4.057  23.394  0.00  0.00    +0.013 C 
ATOM     42  C   UNL     1       8.328   2.023  22.092  0.00  0.00    +0.013 C 
ENDBRANCH  28  39
ENDBRANCH   8  28
TORSDOF 10
ENDMDL
MODEL 6
REMARK VINA RESULT:      -5.2      2.622      6.246
REMARK  Name = 
REMARK  18 active torsions:
REMARK  status: ('A' for Active; 'I' for Inactive)
REMARK    1  A    between atoms: C_5  and  C_7
REMARK    2  A    between atoms: N_9  and  C_10
REMARK    3  A    between atoms: C_10  and  C_11
REMARK    4  A    between atoms: C_10  and  C_16
REMARK    5  A    between atoms: C_11  and  C_12
REMARK    6  A    between atoms: C_16  and  C_18
REMARK    7  A    between atoms: C_23  and  C_24
REMARK    8  A    between atoms: C_23  and  C_25
REMARK    9  A    between atoms: C_26  and  C_28
REMARK   10  A    between atoms: C_28  and  N_30
REMARK   11  A    between atoms: C_28  and  C_38
REMARK   12  A    between atoms: N_33  and  C_34
REMARK   13  A    between atoms: C_34  and  C_35
REMARK   14  A    between atoms: C_34  and  C_36
REMARK   15  A    between atoms: C_34  and  C_37
REMARK   16  A    between atoms: C_38  and  C_39
REMARK   17  A    between atoms: C_38  and  C_40
REMARK   18  A    between atoms: C_38  and  C_41
REMARK                            x       y       z     vdW  Elec       q    Type
REMARK                         _______ _______ _______ _____ _____    ______ ____
ROOT
ATOM      1  C   UNL     1       4.174   3.126  27.980  0.00  0.00    +0.018 C 
ATOM      2  C   UNL     1       5.119   2.477  28.979  0.00  0.00    -0.025 C 
ATOM      3  C   UNL     1       4.454   1.787  30.149  0.00  0.00    +0.011 C 
ATOM      4  C   UNL     1       6.435   3.111  29.348  0.00  0.00    +0.011 C 
ATOM      5  C   UNL     1       4.915   1.882  27.590  0.00  0.00    +0.030 C 
ATOM      6  C   UNL     1       5.768   2.208  26.342  0.00  0.00    +0.166 C 
ATOM      7  N   UNL     1       5.093   3.426  25.851  0.00  0.00    -0.288 N 
ATOM      8  C   UNL     1       5.456   4.232  24.775  0.00  0.00    +0.237 C 
ATOM      9  O   UNL     1       5.482   5.461  24.911  0.00  0.00    -0.274 OA
ATOM     10  C   UNL     1       4.500   4.160  26.963  0.00  0.00    +0.113 C 
ENDROOT
BRANCH   6  11
ATOM     11  C   UNL     1       6.044   0.920  25.491  0.00  0.00    +0.234 C 
ATOM     12  N   UNL     1       7.208   0.253  25.800  0.00  0.00    -0.304 N 
ATOM     13  H   UNL     1       7.773   0.538  26.598  0.00  0.00    +0.149 HD
ATOM     14  O   UNL     1       5.402   0.565  24.505  0.00  0.00    -0.274 OA
BRANCH  12  15
ATOM     15  C   UNL     1       7.680  -0.909  25.050  0.00  0.00    +0.149 C 
BRANCH  15  16
ATOM     16  C   UNL     1       7.021  -2.132  25.679  0.00  0.00    +0.237 C 
ATOM     17  O   UNL     1       7.111  -2.428  26.870  0.00  0.00    -0.285 OA
BRANCH  16  18
ATOM     18  C   UNL     1       6.206  -3.033  24.757  0.00  0.00    +0.279 C 
ATOM     19  O   UNL     1       6.058  -4.223  24.978  0.00  0.00    -0.267 OA
ATOM     20  N   UNL     1       5.657  -2.385  23.685  0.00  0.00    -0.323 N 
ATOM     21  H   UNL     1       5.100  -2.898  23.017  0.00  0.00    +0.145 HD
ATOM     22  H   UNL     1       5.850  -1.402  23.538  0.00  0.00    +0.145 HD
ENDBRANCH  16  18
ENDBRANCH  15  16
BRANCH  15  23
ATOM     23  C   UNL     1       9.213  -0.956  25.025  0.00  0.00    +0.034 C 
BRANCH  23  24
ATOM     24  C   UNL     1       9.781  -0.985  23.609  0.00  0.00    -0.009 C 
ATOM     25  C   UNL     1      10.295   0.377  23.060  0.00  0.00    +0.003 C 
ATOM     26  C   UNL     1       9.920  -0.156  21.659  0.00  0.00    +0.001 C 
ATOM     27  C   UNL     1       8.835  -0.990  22.371  0.00  0.00    +0.003 C 
ENDBRANCH  23  24
ENDBRANCH  15  23
ENDBRANCH  12  15
ENDBRANCH   6  11
BRANCH   8  28
ATOM     28  C   UNL     1       5.805   3.562  23.409  0.00  0.00    +0.166 C 
BRANCH  28  29
ATOM     29  N   UNL     1       4.851   3.978  22.362  0.00  0.00    -0.288 N 
ATOM     30  H   UNL     1       5.232   4.509  21.596  0.00  0.00    +0.151 HD
ATOM     31  C   UNL     1       3.549   3.567  22.335  0.00  0.00    +0.301 C 
ATOM     32  N   UNL     1       2.820   4.158  21.328  0.00  0.00    -0.295 N 
ATOM     33  H   UNL     1       3.212   4.987  20.904  0.00  0.00    +0.151 HD
ATOM     34  O   UNL     1       3.084   2.746  23.107  0.00  0.00    -0.253 OA
BRANCH  32  35
ATOM     35  C   UNL     1       1.393   3.854  21.099  0.00  0.00    +0.028 C 
ATOM     36  C   UNL     1       1.209   2.361  20.766  0.00  0.00    +0.031 C 
ATOM     37  C   UNL     1       0.888   4.674  19.898  0.00  0.00    +0.031 C 
ATOM     38  C   UNL     1       0.530   4.230  22.320  0.00  0.00    +0.031 C 
ENDBRANCH  32  35
ENDBRANCH  28  29
BRANCH  28  39
ATOM     39  C   UNL     1       7.294   3.646  22.923  0.00  0.00    -0.011 C 
ATOM     40  C   UNL     1       8.299   3.496  24.076  0.00  0.00    +0.013 C 
ATOM     41  C   UNL     1       7.538   5.021  22.251  0.00  0.00    +0.013 C 
ATOM     42  C   UNL     1       7.592   2.584  21.841  0.00  0.00    +0.013 C 
ENDBRANCH  28  39
ENDBRANCH   8  28
TORSDOF 10
ENDMDL
MODEL 7
REMARK VINA RESULT:      -5.2      2.355      6.978
REMARK  Name = 
REMARK  18 active torsions:
REMARK  status: ('A' for Active; 'I' for Inactive)
REMARK    1  A    between atoms: C_5  and  C_7
REMARK    2  A    between atoms: N_9  and  C_10
REMARK    3  A    between atoms: C_10  and  C_11
REMARK    4  A    between atoms: C_10  and  C_16
REMARK    5  A    between atoms: C_11  and  C_12
REMARK    6  A    between atoms: C_16  and  C_18
REMARK    7  A    between atoms: C_23  and  C_24
REMARK    8  A    between atoms: C_23  and  C_25
REMARK    9  A    between atoms: C_26  and  C_28
REMARK   10  A    between atoms: C_28  and  N_30
REMARK   11  A    between atoms: C_28  and  C_38
REMARK   12  A    between atoms: N_33  and  C_34
REMARK   13  A    between atoms: C_34  and  C_35
REMARK   14  A    between atoms: C_34  and  C_36
REMARK   15  A    between atoms: C_34  and  C_37
REMARK   16  A    between atoms: C_38  and  C_39
REMARK   17  A    between atoms: C_38  and  C_40
REMARK   18  A    between atoms: C_38  and  C_41
REMARK                            x       y       z     vdW  Elec       q    Type
REMARK                         _______ _______ _______ _____ _____    ______ ____
ROOT
ATOM      1  C   UNL     1      10.268   0.054  24.441  0.00  0.00    +0.018 C 
ATOM      2  C   UNL     1       9.795  -0.972  23.425  0.00  0.00    -0.025 C 
ATOM      3  C   UNL     1      10.111  -2.412  23.760  0.00  0.00    +0.011 C 
ATOM      4  C   UNL     1       9.838  -0.696  21.944  0.00  0.00    +0.011 C 
ATOM      5  C   UNL     1       8.802  -0.234  24.315  0.00  0.00    +0.030 C 
ATOM      6  C   UNL     1       8.087   1.090  23.954  0.00  0.00    +0.166 C 
ATOM      7  N   UNL     1       9.101   2.079  24.370  0.00  0.00    -0.288 N 
ATOM      8  C   UNL     1       9.055   3.464  24.227  0.00  0.00    +0.237 C 
ATOM      9  O   UNL     1      10.039   4.067  23.785  0.00  0.00    -0.274 OA
ATOM     10  C   UNL     1      10.441   1.517  24.240  0.00  0.00    +0.113 C 
ENDROOT
BRANCH   6  11
ATOM     11  C   UNL     1       6.592   1.072  24.426  0.00  0.00    +0.234 C 
ATOM     12  N   UNL     1       6.323   0.238  25.487  0.00  0.00    -0.304 N 
ATOM     13  H   UNL     1       7.078  -0.236  25.978  0.00  0.00    +0.149 HD
ATOM     14  O   UNL     1       5.653   1.607  23.841  0.00  0.00    -0.274 OA
BRANCH  12  15
ATOM     15  C   UNL     1       4.972   0.017  26.000  0.00  0.00    +0.149 C 
BRANCH  15  16
ATOM     16  C   UNL     1       4.785   0.976  27.171  0.00  0.00    +0.237 C 
ATOM     17  O   UNL     1       3.889   1.817  27.237  0.00  0.00    -0.285 OA
BRANCH  16  18
ATOM     18  C   UNL     1       5.782   0.872  28.320  0.00  0.00    +0.279 C 
ATOM     19  O   UNL     1       6.986   0.911  28.139  0.00  0.00    -0.267 OA
ATOM     20  N   UNL     1       5.201   0.745  29.553  0.00  0.00    -0.323 N 
ATOM     21  H   UNL     1       5.780   0.668  30.376  0.00  0.00    +0.145 HD
ATOM     22  H   UNL     1       4.194   0.680  29.630  0.00  0.00    +0.145 HD
ENDBRANCH  16  18
ENDBRANCH  15  16
BRANCH  15  23
ATOM     23  C   UNL     1       4.757  -1.461  26.351  0.00  0.00    +0.034 C 
BRANCH  23  24
ATOM     24  C   UNL     1       5.997  -2.315  26.096  0.00  0.00    -0.009 C 
ATOM     25  C   UNL     1       5.906  -3.295  24.892  0.00  0.00    +0.003 C 
ATOM     26  C   UNL     1       6.887  -4.196  25.674  0.00  0.00    +0.001 C 
ATOM     27  C   UNL     1       6.280  -3.585  26.953  0.00  0.00    +0.003 C 
ENDBRANCH  23  24
ENDBRANCH  15  23
ENDBRANCH  12  15
ENDBRANCH   6  11
BRANCH   8  28
ATOM     28  C   UNL     1       7.760   4.227  24.649  0.00  0.00    +0.166 C 
BRANCH  28  29
ATOM     29  N   UNL     1       7.995   5.023  25.870  0.00  0.00    -0.288 N 
ATOM     30  H   UNL     1       8.694   5.744  25.806  0.00  0.00    +0.151 HD
ATOM     31  C   UNL     1       7.231   4.903  26.996  0.00  0.00    +0.301 C 
ATOM     32  N   UNL     1       7.692   5.668  28.042  0.00  0.00    -0.295 N 
ATOM     33  H   UNL     1       8.640   6.011  27.977  0.00  0.00    +0.151 HD
ATOM     34  O   UNL     1       6.231   4.208  27.062  0.00  0.00    -0.253 OA
BRANCH  32  35
ATOM     35  C   UNL     1       7.016   5.707  29.355  0.00  0.00    +0.028 C 
ATOM     36  C   UNL     1       5.626   6.360  29.223  0.00  0.00    +0.031 C 
ATOM     37  C   UNL     1       7.850   6.559  30.328  0.00  0.00    +0.031 C 
ATOM     38  C   UNL     1       6.878   4.297  29.964  0.00  0.00    +0.031 C 
ENDBRANCH  32  35
ENDBRANCH  28  29
BRANCH  28  39
ATOM     39  C   UNL     1       7.012   5.047  23.541  0.00  0.00    -0.011 C 
ATOM     40  C   UNL     1       5.506   5.175  23.818  0.00  0.00    +0.013 C 
ATOM     41  C   UNL     1       7.189   4.340  22.173  0.00  0.00    +0.013 C 
ATOM     42  C   UNL     1       7.625   6.456  23.375  0.00  0.00    +0.013 C 
ENDBRANCH  28  39
ENDBRANCH   8  28
TORSDOF 10
ENDMDL
MODEL 8
REMARK VINA RESULT:      -5.1      3.470      7.826
REMARK  Name = 
REMARK  18 active torsions:
REMARK  status: ('A' for Active; 'I' for Inactive)
REMARK    1  A    between atoms: C_5  and  C_7
REMARK    2  A    between atoms: N_9  and  C_10
REMARK    3  A    between atoms: C_10  and  C_11
REMARK    4  A    between atoms: C_10  and  C_16
REMARK    5  A    between atoms: C_11  and  C_12
REMARK    6  A    between atoms: C_16  and  C_18
REMARK    7  A    between atoms: C_23  and  C_24
REMARK    8  A    between atoms: C_23  and  C_25
REMARK    9  A    between atoms: C_26  and  C_28
REMARK   10  A    between atoms: C_28  and  N_30
REMARK   11  A    between atoms: C_28  and  C_38
REMARK   12  A    between atoms: N_33  and  C_34
REMARK   13  A    between atoms: C_34  and  C_35
REMARK   14  A    between atoms: C_34  and  C_36
REMARK   15  A    between atoms: C_34  and  C_37
REMARK   16  A    between atoms: C_38  and  C_39
REMARK   17  A    between atoms: C_38  and  C_40
REMARK   18  A    between atoms: C_38  and  C_41
REMARK                            x       y       z     vdW  Elec       q    Type
REMARK                         _______ _______ _______ _____ _____    ______ ____
ROOT
ATOM      1  C   UNL     1       6.684  -4.888  28.076  0.00  0.00    +0.018 C 
ATOM      2  C   UNL     1       5.496  -5.692  28.577  0.00  0.00    -0.025 C 
ATOM      3  C   UNL     1       5.127  -5.473  30.027  0.00  0.00    +0.011 C 
ATOM      4  C   UNL     1       5.251  -7.108  28.122  0.00  0.00    +0.011 C 
ATOM      5  C   UNL     1       5.305  -4.530  27.608  0.00  0.00    +0.030 C 
ATOM      6  C   UNL     1       5.281  -4.644  26.066  0.00  0.00    +0.166 C 
ATOM      7  N   UNL     1       6.724  -4.583  25.758  0.00  0.00    -0.288 N 
ATOM      8  C   UNL     1       7.340  -4.708  24.515  0.00  0.00    +0.237 C 
ATOM      9  O   UNL     1       8.323  -5.447  24.390  0.00  0.00    -0.274 OA
ATOM     10  C   UNL     1       7.502  -5.139  26.860  0.00  0.00    +0.113 C 
ENDROOT
BRANCH   6  11
ATOM     11  C   UNL     1       4.183  -3.713  25.446  0.00  0.00    +0.234 C 
ATOM     12  N   UNL     1       2.884  -4.098  25.691  0.00  0.00    -0.304 N 
ATOM     13  H   UNL     1       2.682  -4.873  26.320  0.00  0.00    +0.149 HD
ATOM     14  O   UNL     1       4.388  -2.792  24.660  0.00  0.00    -0.274 OA
BRANCH  12  15
ATOM     15  C   UNL     1       1.731  -3.411  25.113  0.00  0.00    +0.149 C 
BRANCH  15  16
ATOM     16  C   UNL     1       1.170  -2.503  26.203  0.00  0.00    +0.237 C 
ATOM     17  O   UNL     1       0.533  -1.474  25.982  0.00  0.00    -0.285 OA
BRANCH  16  18
ATOM     18  C   UNL     1       1.428  -2.913  27.649  0.00  0.00    +0.279 C 
ATOM     19  O   UNL     1       2.424  -2.558  28.255  0.00  0.00    -0.267 OA
ATOM     20  N   UNL     1       0.445  -3.694  28.192  0.00  0.00    -0.323 N 
ATOM     21  H   UNL     1       0.527  -4.016  29.145  0.00  0.00    +0.145 HD
ATOM     22  H   UNL     1      -0.339  -3.986  27.621  0.00  0.00    +0.145 HD
ENDBRANCH  16  18
ENDBRANCH  15  16
BRANCH  15  23
ATOM     23  C   UNL     1       0.722  -4.420  24.547  0.00  0.00    +0.034 C 
BRANCH  23  24
ATOM     24  C   UNL     1       1.393  -5.647  23.936  0.00  0.00    -0.009 C 
ATOM     25  C   UNL     1       0.873  -6.071  22.532  0.00  0.00    +0.003 C 
ATOM     26  C   UNL     1       1.262  -7.513  22.929  0.00  0.00    +0.001 C 
ATOM     27  C   UNL     1       0.990  -7.083  24.386  0.00  0.00    +0.003 C 
ENDBRANCH  23  24
ENDBRANCH  15  23
ENDBRANCH  12  15
ENDBRANCH   6  11
BRANCH   8  28
ATOM     28  C   UNL     1       6.783  -3.891  23.307  0.00  0.00    +0.166 C 
BRANCH  28  29
ATOM     29  N   UNL     1       7.761  -2.877  22.864  0.00  0.00    -0.288 N 
ATOM     30  H   UNL     1       8.505  -3.204  22.270  0.00  0.00    +0.151 HD
ATOM     31  C   UNL     1       7.615  -1.543  23.116  0.00  0.00    +0.301 C 
ATOM     32  N   UNL     1       8.693  -0.797  22.699  0.00  0.00    -0.295 N 
ATOM     33  H   UNL     1       9.550  -1.296  22.508  0.00  0.00    +0.151 HD
ATOM     34  O   UNL     1       6.624  -1.058  23.636  0.00  0.00    -0.253 OA
BRANCH  32  35
ATOM     35  C   UNL     1       8.751   0.670  22.856  0.00  0.00    +0.028 C 
ATOM     36  C   UNL     1       7.457   1.318  22.326  0.00  0.00    +0.031 C 
ATOM     37  C   UNL     1       9.929   1.221  22.032  0.00  0.00    +0.031 C 
ATOM     38  C   UNL     1       8.977   1.076  24.326  0.00  0.00    +0.031 C 
ENDBRANCH  32  35
ENDBRANCH  28  29
BRANCH  28  39
ATOM     39  C   UNL     1       6.181  -4.700  22.106  0.00  0.00    -0.011 C 
ATOM     40  C   UNL     1       5.651  -3.788  20.988  0.00  0.00    +0.013 C 
ATOM     41  C   UNL     1       5.003  -5.571  22.612  0.00  0.00    +0.013 C 
ATOM     42  C   UNL     1       7.216  -5.685  21.517  0.00  0.00    +0.013 C 
ENDBRANCH  28  39
ENDBRANCH   8  28
TORSDOF 10
ENDMDL
MODEL 9
REMARK VINA RESULT:      -5.1      2.053      5.978
REMARK  Name = 
REMARK  18 active torsions:
REMARK  status: ('A' for Active; 'I' for Inactive)
REMARK    1  A    between atoms: C_5  and  C_7
REMARK    2  A    between atoms: N_9  and  C_10
REMARK    3  A    between atoms: C_10  and  C_11
REMARK    4  A    between atoms: C_10  and  C_16
REMARK    5  A    between atoms: C_11  and  C_12
REMARK    6  A    between atoms: C_16  and  C_18
REMARK    7  A    between atoms: C_23  and  C_24
REMARK    8  A    between atoms: C_23  and  C_25
REMARK    9  A    between atoms: C_26  and  C_28
REMARK   10  A    between atoms: C_28  and  N_30
REMARK   11  A    between atoms: C_28  and  C_38
REMARK   12  A    between atoms: N_33  and  C_34
REMARK   13  A    between atoms: C_34  and  C_35
REMARK   14  A    between atoms: C_34  and  C_36
REMARK   15  A    between atoms: C_34  and  C_37
REMARK   16  A    between atoms: C_38  and  C_39
REMARK   17  A    between atoms: C_38  and  C_40
REMARK   18  A    between atoms: C_38  and  C_41
REMARK                            x       y       z     vdW  Elec       q    Type
REMARK                         _______ _______ _______ _____ _____    ______ ____
ROOT
ATOM      1  C   UNL     1       8.393  -2.792  22.733  0.00  0.00    +0.018 C 
ATOM      2  C   UNL     1       7.107  -3.602  22.695  0.00  0.00    -0.025 C 
ATOM      3  C   UNL     1       7.209  -5.010  23.236  0.00  0.00    +0.011 C 
ATOM      4  C   UNL     1       6.136  -3.488  21.547  0.00  0.00    +0.011 C 
ATOM      5  C   UNL     1       7.278  -2.446  23.674  0.00  0.00    +0.030 C 
ATOM      6  C   UNL     1       6.869  -0.978  23.408  0.00  0.00    +0.166 C 
ATOM      7  N   UNL     1       8.066  -0.477  22.704  0.00  0.00    -0.288 N 
ATOM      8  C   UNL     1       8.266   0.783  22.144  0.00  0.00    +0.237 C 
ATOM      9  O   UNL     1       8.735   0.879  21.004  0.00  0.00    -0.274 OA
ATOM     10  C   UNL     1       8.712  -1.558  21.968  0.00  0.00    +0.113 C 
ENDROOT
BRANCH   6  11
ATOM     11  C   UNL     1       6.229  -0.328  24.683  0.00  0.00    +0.234 C 
ATOM     12  N   UNL     1       6.851  -0.637  25.872  0.00  0.00    -0.304 N 
ATOM     13  H   UNL     1       7.723  -1.162  25.880  0.00  0.00    +0.149 HD
ATOM     14  O   UNL     1       5.165   0.285  24.714  0.00  0.00    -0.274 OA
BRANCH  12  15
ATOM     15  C   UNL     1       6.339  -0.204  27.170  0.00  0.00    +0.149 C 
BRANCH  15  16
ATOM     16  C   UNL     1       7.551   0.184  28.011  0.00  0.00    +0.237 C 
ATOM     17  O   UNL     1       8.684  -0.264  27.836  0.00  0.00    -0.285 OA
BRANCH  16  18
ATOM     18  C   UNL     1       7.324   1.191  29.135  0.00  0.00    +0.279 C 
ATOM     19  O   UNL     1       6.321   1.880  29.194  0.00  0.00    -0.267 OA
ATOM     20  N   UNL     1       8.333   1.233  30.058  0.00  0.00    -0.323 N 
ATOM     21  H   UNL     1       8.272   1.870  30.840  0.00  0.00    +0.145 HD
ATOM     22  H   UNL     1       9.158   0.661  29.929  0.00  0.00    +0.145 HD
ENDBRANCH  16  18
ENDBRANCH  15  16
BRANCH  15  23
ATOM     23  C   UNL     1       5.455  -1.289  27.797  0.00  0.00    +0.034 C 
BRANCH  23  24
ATOM     24  C   UNL     1       5.589  -2.639  27.096  0.00  0.00    -0.009 C 
ATOM     25  C   UNL     1       4.376  -3.069  26.222  0.00  0.00    +0.003 C 
ATOM     26  C   UNL     1       4.778  -4.524  26.552  0.00  0.00    +0.001 C 
ATOM     27  C   UNL     1       5.347  -3.967  27.872  0.00  0.00    +0.003 C 
ENDBRANCH  23  24
ENDBRANCH  15  23
ENDBRANCH  12  15
ENDBRANCH   6  11
BRANCH   8  28
ATOM     28  C   UNL     1       7.909   2.050  22.982  0.00  0.00    +0.166 C 
BRANCH  28  29
ATOM     29  N   UNL     1       6.471   2.071  23.316  0.00  0.00    -0.288 N 
ATOM     30  H   UNL     1       6.158   1.387  23.984  0.00  0.00    +0.151 HD
ATOM     31  C   UNL     1       5.616   3.035  22.865  0.00  0.00    +0.301 C 
ATOM     32  N   UNL     1       4.307   2.800  23.216  0.00  0.00    -0.295 N 
ATOM     33  H   UNL     1       4.074   1.864  23.517  0.00  0.00    +0.151 HD
ATOM     34  O   UNL     1       5.976   4.016  22.235  0.00  0.00    -0.253 OA
BRANCH  32  35
ATOM     35  C   UNL     1       3.209   3.717  22.850  0.00  0.00    +0.028 C 
ATOM     36  C   UNL     1       2.002   3.510  23.784  0.00  0.00    +0.031 C 
ATOM     37  C   UNL     1       2.755   3.411  21.411  0.00  0.00    +0.031 C 
ATOM     38  C   UNL     1       3.662   5.191  22.895  0.00  0.00    +0.031 C 
ENDBRANCH  32  35
ENDBRANCH  28  29
BRANCH  28  39
ATOM     39  C   UNL     1       8.811   2.371  24.224  0.00  0.00    -0.011 C 
ATOM     40  C   UNL     1       7.992   2.783  25.458  0.00  0.00    +0.013 C 
ATOM     41  C   UNL     1       9.769   3.540  23.875  0.00  0.00    +0.013 C 
ATOM     42  C   UNL     1       9.717   1.172  24.586  0.00  0.00    +0.013 C 
ENDBRANCH  28  39
ENDBRANCH   8  28
TORSDOF 10
ENDMDL
