MODEL 1
REMARK VINA RESULT:      -4.5      0.000      0.000
REMARK  Name = 
REMARK  4 active torsions:
REMARK  status: ('A' for Active; 'I' for Inactive)
REMARK    1  A    between atoms: C_1  and  C_2
REMARK    2  A    between atoms: C_5  and  N_7
REMARK    3  A    between atoms: CA_9  and  C_11
REMARK    4  A    between atoms: C_11  and  O_12
REMARK                            x       y       z     vdW  Elec       q    Type
REMARK                         _______ _______ _______ _____ _____    ______ ____
ROOT
ATOM      1  C   UNL     1       6.379  -5.122  23.691  0.00  0.00    +0.010 C 
ATOM      2  C   UNL     1       7.011  -4.788  25.033  0.00  0.00    +0.017 C 
ATOM      3  CA  UNL     1       8.311  -5.549  25.296  0.00  0.00    +0.167 C 
ATOM      4  N   UNL     1       8.376  -5.769  26.780  0.00  0.00    -0.289 NA
ATOM      5  H   UNL     1       8.365  -6.774  26.964  0.00  0.00    +0.124 HD
ATOM      6  C   UNL     1       7.152  -5.234  27.343  0.00  0.00    +0.120 C 
ATOM      7  C   UNL     1       6.142  -5.190  26.212  0.00  0.00    +0.039 C 
ENDROOT
BRANCH   6   8
ATOM      8  N   UNL     1       6.798  -6.130  28.404  0.00  0.00    -0.315 NA
ATOM      9  H   UNL     1       5.865  -6.503  28.226  0.00  0.00    +0.120 HD
ATOM     10  H   UNL     1       7.411  -6.943  28.406  0.00  0.00    +0.120 HD
ENDBRANCH   6   8
BRANCH   3  11
ATOM     11  C   UNL     1       9.536  -4.733  24.869  0.00  0.00    +0.322 C 
ATOM     12  OXT UNL     1       9.495  -3.667  24.277  0.00  0.00    -0.249 OA
BRANCH  11  13
ATOM     13  O   UNL     1      10.695  -5.340  25.238  0.00  0.00    -0.480 OA
ATOM     14  H   UNL     1      11.340  -5.151  24.509  0.00  0.00    +0.295 HD
ENDBRANCH  11  13
ENDBRANCH   3  11
TORSDOF 3
ENDMDL
MODEL 2
REMARK VINA RESULT:      -4.3      6.771      7.707
REMARK  Name = 
REMARK  4 active torsions:
REMARK  status: ('A' for Active; 'I' for Inactive)
REMARK    1  A    between atoms: C_1  and  C_2
REMARK    2  A    between atoms: C_5  and  N_7
REMARK    3  A    between atoms: CA_9  and  C_11
REMARK    4  A    between atoms: C_11  and  O_12
REMARK                            x       y       z     vdW  Elec       q    Type
REMARK                         _______ _______ _______ _____ _____    ______ ____
ROOT
ATOM      1  C   UNL     1      11.077   0.743  24.475  0.00  0.00    +0.010 C 
ATOM      2  C   UNL     1       9.752   0.977  23.766  0.00  0.00    +0.017 C 
ATOM      3  CA  UNL     1       9.804   0.673  22.269  0.00  0.00    +0.167 C 
ATOM      4  N   UNL     1       8.845   1.624  21.612  0.00  0.00    -0.289 NA
ATOM      5  H   UNL     1       9.367   2.227  20.974  0.00  0.00    +0.124 HD
ATOM      6  C   UNL     1       8.319   2.484  22.654  0.00  0.00    +0.120 C 
ATOM      7  C   UNL     1       9.315   2.432  23.798  0.00  0.00    +0.039 C 
ENDROOT
BRANCH   6   8
ATOM      8  N   UNL     1       8.192   3.778  22.052  0.00  0.00    -0.315 NA
ATOM      9  H   UNL     1       7.630   3.695  21.205  0.00  0.00    +0.120 HD
ATOM     10  H   UNL     1       7.666   4.405  22.658  0.00  0.00    +0.120 HD
ENDBRANCH   6   8
BRANCH   3  11
ATOM     11  C   UNL     1       9.351  -0.761  21.971  0.00  0.00    +0.322 C 
ATOM     12  OXT UNL     1       8.223  -1.190  22.156  0.00  0.00    -0.249 OA
BRANCH  11  13
ATOM     13  O   UNL     1      10.363  -1.510  21.462  0.00  0.00    -0.480 OA
ATOM     14  H   UNL     1      10.685  -2.072  22.213  0.00  0.00    +0.295 HD
ENDBRANCH  11  13
ENDBRANCH   3  11
TORSDOF 3
ENDMDL
MODEL 3
REMARK VINA RESULT:      -4.3      2.704      3.570
REMARK  Name = 
REMARK  4 active torsions:
REMARK  status: ('A' for Active; 'I' for Inactive)
REMARK    1  A    between atoms: C_1  and  C_2
REMARK    2  A    between atoms: C_5  and  N_7
REMARK    3  A    between atoms: CA_9  and  C_11
REMARK    4  A    between atoms: C_11  and  O_12
REMARK                            x       y       z     vdW  Elec       q    Type
REMARK                         _______ _______ _______ _____ _____    ______ ____
ROOT
ATOM      1  C   UNL     1       5.777  -3.749  24.987  0.00  0.00    +0.010 C 
ATOM      2  C   UNL     1       6.780  -4.843  25.319  0.00  0.00    +0.017 C 
ATOM      3  CA  UNL     1       7.334  -4.746  26.740  0.00  0.00    +0.167 C 
ATOM      4  N   UNL     1       8.742  -5.264  26.680  0.00  0.00    -0.289 NA
ATOM      5  H   UNL     1       9.380  -4.511  26.942  0.00  0.00    +0.124 HD
ATOM      6  C   UNL     1       9.020  -5.576  25.292  0.00  0.00    +0.120 C 
ATOM      7  C   UNL     1       8.034  -4.772  24.464  0.00  0.00    +0.039 C 
ENDROOT
BRANCH   6   8
ATOM      8  N   UNL     1      10.389  -5.205  25.086  0.00  0.00    -0.315 NA
ATOM      9  H   UNL     1      10.650  -4.502  25.777  0.00  0.00    +0.120 HD
ATOM     10  H   UNL     1      11.005  -5.995  25.267  0.00  0.00    +0.120 HD
ENDBRANCH   6   8
BRANCH   3  11
ATOM     11  C   UNL     1       6.535  -5.618  27.716  0.00  0.00    +0.322 C 
ATOM     12  OXT UNL     1       6.480  -5.447  28.923  0.00  0.00    -0.249 OA
BRANCH  11  13
ATOM     13  O   UNL     1       5.876  -6.616  27.071  0.00  0.00    -0.480 OA
ATOM     14  H   UNL     1       6.496  -7.390  27.070  0.00  0.00    +0.295 HD
ENDBRANCH  11  13
ENDBRANCH   3  11
TORSDOF 3
ENDMDL
MODEL 4
REMARK VINA RESULT:      -4.3      5.703      6.521
REMARK  Name = 
REMARK  4 active torsions:
REMARK  status: ('A' for Active; 'I' for Inactive)
REMARK    1  A    between atoms: C_1  and  C_2
REMARK    2  A    between atoms: C_5  and  N_7
REMARK    3  A    between atoms: CA_9  and  C_11
REMARK    4  A    between atoms: C_11  and  O_12
REMARK                            x       y       z     vdW  Elec       q    Type
REMARK                         _______ _______ _______ _____ _____    ______ ____
ROOT
ATOM      1  C   UNL     1       6.946  -1.023  24.072  0.00  0.00    +0.010 C 
ATOM      2  C   UNL     1       7.848  -0.567  22.936  0.00  0.00    +0.017 C 
ATOM      3  CA  UNL     1       9.326  -0.510  23.323  0.00  0.00    +0.167 C 
ATOM      4  N   UNL     1       9.927   0.612  22.526  0.00  0.00    -0.289 NA
ATOM      5  H   UNL     1      10.271   1.325  23.172  0.00  0.00    +0.124 HD
ATOM      6  C   UNL     1       8.848   1.224  21.775  0.00  0.00    +0.120 C 
ATOM      7  C   UNL     1       7.562   0.858  22.492  0.00  0.00    +0.039 C 
ENDROOT
BRANCH   6   8
ATOM      8  N   UNL     1       9.134   2.628  21.774  0.00  0.00    -0.315 NA
ATOM      9  H   UNL     1       9.842   2.823  21.067  0.00  0.00    +0.120 HD
ATOM     10  H   UNL     1       8.316   3.160  21.482  0.00  0.00    +0.120 HD
ENDBRANCH   6   8
BRANCH   3  11
ATOM     11  C   UNL     1      10.052  -1.810  22.958  0.00  0.00    +0.322 C 
ATOM     12  OXT UNL     1      10.179  -2.771  23.700  0.00  0.00    -0.249 OA
BRANCH  11  13
ATOM     13  O   UNL     1      10.540  -1.773  21.691  0.00  0.00    -0.480 OA
ATOM     14  H   UNL     1      10.458  -2.699  21.344  0.00  0.00    +0.295 HD
ENDBRANCH  11  13
ENDBRANCH   3  11
TORSDOF 3
ENDMDL
MODEL 5
REMARK VINA RESULT:      -4.3      5.206      5.979
REMARK  Name = 
REMARK  4 active torsions:
REMARK  status: ('A' for Active; 'I' for Inactive)
REMARK    1  A    between atoms: C_1  and  C_2
REMARK    2  A    between atoms: C_5  and  N_7
REMARK    3  A    between atoms: CA_9  and  C_11
REMARK    4  A    between atoms: C_11  and  O_12
REMARK                            x       y       z     vdW  Elec       q    Type
REMARK                         _______ _______ _______ _____ _____    ______ ____
ROOT
ATOM      1  C   UNL     1       9.754   1.636  21.937  0.00  0.00    +0.010 C 
ATOM      2  C   UNL     1       9.968   0.497  22.921  0.00  0.00    +0.017 C 
ATOM      3  CA  UNL     1       8.776  -0.456  23.013  0.00  0.00    +0.167 C 
ATOM      4  N   UNL     1       8.747  -0.959  24.427  0.00  0.00    -0.289 NA
ATOM      5  H   UNL     1       7.873  -0.662  24.863  0.00  0.00    +0.124 HD
ATOM      6  C   UNL     1       9.814  -0.284  25.140  0.00  0.00    +0.120 C 
ATOM      7  C   UNL     1      10.126   0.976  24.354  0.00  0.00    +0.039 C 
ENDROOT
BRANCH   6   8
ATOM      8  N   UNL     1       9.297  -0.036  26.453  0.00  0.00    -0.315 NA
ATOM      9  H   UNL     1       8.400   0.442  26.372  0.00  0.00    +0.120 HD
ATOM     10  H   UNL     1       9.087  -0.913  26.926  0.00  0.00    +0.120 HD
ENDBRANCH   6   8
BRANCH   3  11
ATOM     11  C   UNL     1       8.941  -1.655  22.072  0.00  0.00    +0.322 C 
ATOM     12  OXT UNL     1       8.103  -2.524  21.894  0.00  0.00    -0.249 OA
BRANCH  11  13
ATOM     13  O   UNL     1      10.144  -1.635  21.441  0.00  0.00    -0.480 OA
ATOM     14  H   UNL     1       9.958  -1.330  20.516  0.00  0.00    +0.295 HD
ENDBRANCH  11  13
ENDBRANCH   3  11
TORSDOF 3
ENDMDL
MODEL 6
REMARK VINA RESULT:      -4.2      5.686      6.662
REMARK  Name = 
REMARK  4 active torsions:
REMARK  status: ('A' for Active; 'I' for Inactive)
REMARK    1  A    between atoms: C_1  and  C_2
REMARK    2  A    between atoms: C_5  and  N_7
REMARK    3  A    between atoms: CA_9  and  C_11
REMARK    4  A    between atoms: C_11  and  O_12
REMARK                            x       y       z     vdW  Elec       q    Type
REMARK                         _______ _______ _______ _____ _____    ______ ____
ROOT
ATOM      1  C   UNL     1       8.389  -2.303  22.643  0.00  0.00    +0.010 C 
ATOM      2  C   UNL     1       9.312  -1.116  22.868  0.00  0.00    +0.017 C 
ATOM      3  CA  UNL     1       8.801  -0.144  23.931  0.00  0.00    +0.167 C 
ATOM      4  N   UNL     1       9.269   1.221  23.515  0.00  0.00    -0.289 NA
ATOM      5  H   UNL     1       8.452   1.808  23.337  0.00  0.00    +0.124 HD
ATOM      6  C   UNL     1       9.949   1.067  22.244  0.00  0.00    +0.120 C 
ATOM      7  C   UNL     1       9.443  -0.230  21.640  0.00  0.00    +0.039 C 
ENDROOT
BRANCH   6   8
ATOM      8  N   UNL     1       9.607   2.233  21.485  0.00  0.00    -0.315 NA
ATOM      9  H   UNL     1       8.882   1.990  20.810  0.00  0.00    +0.120 HD
ATOM     10  H   UNL     1       9.183   2.939  22.084  0.00  0.00    +0.120 HD
ENDBRANCH   6   8
BRANCH   3  11
ATOM     11  C   UNL     1       9.389  -0.461  25.311  0.00  0.00    +0.322 C 
ATOM     12  OXT UNL     1       8.987  -1.339  26.057  0.00  0.00    -0.249 OA
BRANCH  11  13
ATOM     13  O   UNL     1      10.431   0.357  25.611  0.00  0.00    -0.480 OA
ATOM     14  H   UNL     1      11.244  -0.209  25.547  0.00  0.00    +0.295 HD
ENDBRANCH  11  13
ENDBRANCH   3  11
TORSDOF 3
ENDMDL
MODEL 7
REMARK VINA RESULT:      -4.2      6.002      7.069
REMARK  Name = 
REMARK  4 active torsions:
REMARK  status: ('A' for Active; 'I' for Inactive)
REMARK    1  A    between atoms: C_1  and  C_2
REMARK    2  A    between atoms: C_5  and  N_7
REMARK    3  A    between atoms: CA_9  and  C_11
REMARK    4  A    between atoms: C_11  and  O_12
REMARK                            x       y       z     vdW  Elec       q    Type
REMARK                         _______ _______ _______ _____ _____    ______ ____
ROOT
ATOM      1  C   UNL     1      10.976   0.730  24.528  0.00  0.00    +0.010 C 
ATOM      2  C   UNL     1      10.335   0.220  23.247  0.00  0.00    +0.017 C 
ATOM      3  CA  UNL     1       8.928   0.768  23.013  0.00  0.00    +0.167 C 
ATOM      4  N   UNL     1       8.169  -0.309  22.294  0.00  0.00    -0.289 NA
ATOM      5  H   UNL     1       7.388  -0.608  22.879  0.00  0.00    +0.124 HD
ATOM      6  C   UNL     1       9.058  -1.449  22.179  0.00  0.00    +0.120 C 
ATOM      7  C   UNL     1      10.112  -1.283  23.258  0.00  0.00    +0.039 C 
ENDROOT
BRANCH   6   8
ATOM      8  N   UNL     1       8.224  -2.601  22.354  0.00  0.00    -0.315 NA
ATOM      9  H   UNL     1       7.942  -2.949  21.437  0.00  0.00    +0.120 HD
ATOM     10  H   UNL     1       8.749  -3.364  22.776  0.00  0.00    +0.120 HD
ENDBRANCH   6   8
BRANCH   3  11
ATOM     11  C   UNL     1       8.952   2.021  22.130  0.00  0.00    +0.322 C 
ATOM     12  OXT UNL     1       8.022   2.799  21.995  0.00  0.00    -0.249 OA
BRANCH  11  13
ATOM     13  O   UNL     1      10.151   2.173  21.510  0.00  0.00    -0.480 OA
ATOM     14  H   UNL     1      10.039   2.941  20.892  0.00  0.00    +0.295 HD
ENDBRANCH  11  13
ENDBRANCH   3  11
TORSDOF 3
ENDMDL
MODEL 8
REMARK VINA RESULT:      -4.1      4.216      5.229
REMARK  Name = 
REMARK  4 active torsions:
REMARK  status: ('A' for Active; 'I' for Inactive)
REMARK    1  A    between atoms: C_1  and  C_2
REMARK    2  A    between atoms: C_5  and  N_7
REMARK    3  A    between atoms: CA_9  and  C_11
REMARK    4  A    between atoms: C_11  and  O_12
REMARK                            x       y       z     vdW  Elec       q    Type
REMARK                         _______ _______ _______ _____ _____    ______ ____
ROOT
ATOM      1  C   UNL     1       7.981  -4.866  24.562  0.00  0.00    +0.010 C 
ATOM      2  C   UNL     1       8.089  -3.451  24.016  0.00  0.00    +0.017 C 
ATOM      3  CA  UNL     1       7.564  -3.311  22.587  0.00  0.00    +0.167 C 
ATOM      4  N   UNL     1       8.392  -2.241  21.936  0.00  0.00    -0.289 NA
ATOM      5  H   UNL     1       8.899  -2.652  21.151  0.00  0.00    +0.124 HD
ATOM      6  C   UNL     1       9.393  -1.832  22.903  0.00  0.00    +0.120 C 
ATOM      7  C   UNL     1       9.527  -2.975  23.893  0.00  0.00    +0.039 C 
ENDROOT
BRANCH   6   8
ATOM      8  N   UNL     1      10.579  -1.582  22.140  0.00  0.00    -0.315 NA
ATOM      9  H   UNL     1      10.541  -0.633  21.768  0.00  0.00    +0.120 HD
ATOM     10  H   UNL     1      11.401  -1.597  22.740  0.00  0.00    +0.120 HD
ENDBRANCH   6   8
BRANCH   3  11
ATOM     11  C   UNL     1       6.096  -2.869  22.570  0.00  0.00    +0.322 C 
ATOM     12  OXT UNL     1       5.166  -3.548  22.164  0.00  0.00    -0.249 OA
BRANCH  11  13
ATOM     13  O   UNL     1       5.943  -1.616  23.072  0.00  0.00    -0.480 OA
ATOM     14  H   UNL     1       5.033  -1.593  23.464  0.00  0.00    +0.295 HD
ENDBRANCH  11  13
ENDBRANCH   3  11
TORSDOF 3
ENDMDL
MODEL 9
REMARK VINA RESULT:      -4.1      2.615      3.374
REMARK  Name = 
REMARK  4 active torsions:
REMARK  status: ('A' for Active; 'I' for Inactive)
REMARK    1  A    between atoms: C_1  and  C_2
REMARK    2  A    between atoms: C_5  and  N_7
REMARK    3  A    between atoms: CA_9  and  C_11
REMARK    4  A    between atoms: C_11  and  O_12
REMARK                            x       y       z     vdW  Elec       q    Type
REMARK                         _______ _______ _______ _____ _____    ______ ____
ROOT
ATOM      1  C   UNL     1       5.351  -5.567  25.749  0.00  0.00    +0.010 C 
ATOM      2  C   UNL     1       6.610  -4.863  25.267  0.00  0.00    +0.017 C 
ATOM      3  CA  UNL     1       6.999  -5.232  23.836  0.00  0.00    +0.167 C 
ATOM      4  N   UNL     1       8.499  -5.170  23.778  0.00  0.00    -0.289 NA
ATOM      5  H   UNL     1       8.857  -6.101  23.557  0.00  0.00    +0.124 HD
ATOM      6  C   UNL     1       8.962  -4.857  25.116  0.00  0.00    +0.120 C 
ATOM      7  C   UNL     1       7.845  -5.253  26.062  0.00  0.00    +0.039 C 
ENDROOT
BRANCH   6   8
ATOM      8  N   UNL     1      10.166  -5.615  25.288  0.00  0.00    -0.315 NA
ATOM      9  H   UNL     1      10.042  -6.535  24.867  0.00  0.00    +0.120 HD
ATOM     10  H   UNL     1      10.934  -5.190  24.772  0.00  0.00    +0.120 HD
ENDBRANCH   6   8
BRANCH   3  11
ATOM     11  C   UNL     1       6.430  -4.232  22.823  0.00  0.00    +0.322 C 
ATOM     12  OXT UNL     1       6.836  -3.092  22.663  0.00  0.00    -0.249 OA
BRANCH  11  13
ATOM     13  O   UNL     1       5.410  -4.770  22.107  0.00  0.00    -0.480 OA
ATOM     14  H   UNL     1       5.432  -4.316  21.225  0.00  0.00    +0.295 HD
ENDBRANCH  11  13
ENDBRANCH   3  11
TORSDOF 3
ENDMDL
