MODEL 1
REMARK VINA RESULT:      -3.8      0.000      0.000
REMARK  Name = 
REMARK  5 active torsions:
REMARK  status: ('A' for Active; 'I' for Inactive)
REMARK    1  A    between atoms: N_1  and  C_2
REMARK    2  A    between atoms: C_3  and  O_4
REMARK    3  A    between atoms: O_4  and  P_5
REMARK    4  A    between atoms: P_5  and  O_6
REMARK    5  A    between atoms: P_5  and  O_7
REMARK                            x       y       z     vdW  Elec       q    Type
REMARK                         _______ _______ _______ _____ _____    ______ ____
ROOT
ATOM      1  O   UNL     1       8.656  -5.284  23.802  0.00  0.00    -0.411 OA
ENDROOT
BRANCH   1   3
ATOM      2  C   UNL     1       7.063  -5.982  22.211  0.00  0.00    +0.103 C 
ATOM      3  C   UNL     1       7.369  -5.369  23.356  0.00  0.00    +0.213 C 
BRANCH   2   4
ATOM      4  N   UNL     1       5.818  -6.185  21.682  0.00  0.00    -0.361 N 
ATOM      5  H   UNL     1       5.540  -7.162  21.618  0.00  0.00    +0.142 HD
ATOM      6  H   UNL     1       5.094  -5.590  22.077  0.00  0.00    +0.142 HD
ENDBRANCH   2   4
ENDBRANCH   1   3
BRANCH   1   7
ATOM      7  P   UNL     1       9.049  -4.901  25.310  0.00  0.00    +0.527 P 
ATOM      8  O   UNL     1       8.931  -3.469  25.703  0.00  0.00    -0.216 OA
BRANCH   7   9
ATOM      9  O   UNL     1      10.536  -5.464  25.476  0.00  0.00    -0.293 OA
ATOM     10  H   UNL     1      10.819  -5.400  26.409  0.00  0.00    +0.223 HD
ENDBRANCH   7   9
BRANCH   7  11
ATOM     11  O   UNL     1       8.232  -5.936  26.211  0.00  0.00    -0.293 OA
ATOM     12  H   UNL     1       8.632  -6.013  27.096  0.00  0.00    +0.223 HD
ENDBRANCH   7  11
ENDBRANCH   1   7
TORSDOF 5
ENDMDL
MODEL 2
REMARK VINA RESULT:      -3.8      3.279      3.551
REMARK  Name = 
REMARK  5 active torsions:
REMARK  status: ('A' for Active; 'I' for Inactive)
REMARK    1  A    between atoms: N_1  and  C_2
REMARK    2  A    between atoms: C_3  and  O_4
REMARK    3  A    between atoms: O_4  and  P_5
REMARK    4  A    between atoms: P_5  and  O_6
REMARK    5  A    between atoms: P_5  and  O_7
REMARK                            x       y       z     vdW  Elec       q    Type
REMARK                         _______ _______ _______ _____ _____    ______ ____
ROOT
ATOM      1  O   UNL     1      10.103  -3.295  24.199  0.00  0.00    -0.411 OA
ENDROOT
BRANCH   1   3
ATOM      2  C   UNL     1      10.266  -1.663  22.507  0.00  0.00    +0.103 C 
ATOM      3  C   UNL     1       9.530  -2.425  23.318  0.00  0.00    +0.213 C 
BRANCH   2   4
ATOM      4  N   UNL     1       9.819  -0.798  21.545  0.00  0.00    -0.361 N 
ATOM      5  H   UNL     1      10.510  -0.117  21.236  0.00  0.00    +0.142 HD
ATOM      6  H   UNL     1       9.328  -1.245  20.776  0.00  0.00    +0.142 HD
ENDBRANCH   2   4
ENDBRANCH   1   3
BRANCH   1   7
ATOM      7  P   UNL     1       9.285  -4.428  24.988  0.00  0.00    +0.527 P 
ATOM      8  O   UNL     1       8.464  -3.990  26.151  0.00  0.00    -0.216 OA
BRANCH   7   9
ATOM      9  O   UNL     1      10.400  -5.500  25.390  0.00  0.00    -0.293 OA
ATOM     10  H   UNL     1      10.506  -6.159  24.678  0.00  0.00    +0.223 HD
ENDBRANCH   7   9
BRANCH   7  11
ATOM     11  O   UNL     1       8.500  -5.222  23.846  0.00  0.00    -0.293 OA
ATOM     12  H   UNL     1       7.973  -5.945  24.229  0.00  0.00    +0.223 HD
ENDBRANCH   7  11
ENDBRANCH   1   7
TORSDOF 5
ENDMDL
MODEL 3
REMARK VINA RESULT:      -3.6      1.118      1.198
REMARK  Name = 
REMARK  5 active torsions:
REMARK  status: ('A' for Active; 'I' for Inactive)
REMARK    1  A    between atoms: N_1  and  C_2
REMARK    2  A    between atoms: C_3  and  O_4
REMARK    3  A    between atoms: O_4  and  P_5
REMARK    4  A    between atoms: P_5  and  O_6
REMARK    5  A    between atoms: P_5  and  O_7
REMARK                            x       y       z     vdW  Elec       q    Type
REMARK                         _______ _______ _______ _____ _____    ______ ____
ROOT
ATOM      1  O   UNL     1       8.567  -5.446  23.889  0.00  0.00    -0.411 OA
ENDROOT
BRANCH   1   3
ATOM      2  C   UNL     1       7.323  -3.996  22.507  0.00  0.00    +0.103 C 
ATOM      3  C   UNL     1       7.391  -5.057  23.315  0.00  0.00    +0.213 C 
BRANCH   2   4
ATOM      4  N   UNL     1       6.228  -3.537  21.828  0.00  0.00    -0.361 N 
ATOM      5  H   UNL     1       5.986  -4.079  21.001  0.00  0.00    +0.142 HD
ATOM      6  H   UNL     1       5.427  -3.330  22.418  0.00  0.00    +0.142 HD
ENDBRANCH   2   4
ENDBRANCH   1   3
BRANCH   1   7
ATOM      7  P   UNL     1       9.060  -4.942  25.331  0.00  0.00    +0.527 P 
ATOM      8  O   UNL     1       8.973  -3.481  25.609  0.00  0.00    -0.216 OA
BRANCH   7   9
ATOM      9  O   UNL     1      10.553  -5.502  25.446  0.00  0.00    -0.293 OA
ATOM     10  H   UNL     1      10.891  -5.744  24.562  0.00  0.00    +0.223 HD
ENDBRANCH   7   9
BRANCH   7  11
ATOM     11  O   UNL     1       8.301  -5.891  26.367  0.00  0.00    -0.293 OA
ATOM     12  H   UNL     1       7.369  -6.006  26.110  0.00  0.00    +0.223 HD
ENDBRANCH   7  11
ENDBRANCH   1   7
TORSDOF 5
ENDMDL
MODEL 4
REMARK VINA RESULT:      -3.6      5.588      6.060
REMARK  Name = 
REMARK  5 active torsions:
REMARK  status: ('A' for Active; 'I' for Inactive)
REMARK    1  A    between atoms: N_1  and  C_2
REMARK    2  A    between atoms: C_3  and  O_4
REMARK    3  A    between atoms: O_4  and  P_5
REMARK    4  A    between atoms: P_5  and  O_6
REMARK    5  A    between atoms: P_5  and  O_7
REMARK                            x       y       z     vdW  Elec       q    Type
REMARK                         _______ _______ _______ _____ _____    ______ ____
ROOT
ATOM      1  O   UNL     1       9.867  -0.528  23.914  0.00  0.00    -0.411 OA
ENDROOT
BRANCH   1   3
ATOM      2  C   UNL     1       9.766   1.269  22.392  0.00  0.00    +0.103 C 
ATOM      3  C   UNL     1      10.431   0.553  23.302  0.00  0.00    +0.213 C 
BRANCH   2   4
ATOM      4  N   UNL     1      10.192   2.399  21.750  0.00  0.00    -0.361 N 
ATOM      5  H   UNL     1       9.600   2.693  20.975  0.00  0.00    +0.142 HD
ATOM      6  H   UNL     1      10.444   3.163  22.371  0.00  0.00    +0.142 HD
ENDBRANCH   2   4
ENDBRANCH   1   3
BRANCH   1   7
ATOM      7  P   UNL     1       9.710  -1.964  23.215  0.00  0.00    +0.527 P 
ATOM      8  O   UNL     1      10.115  -3.157  24.009  0.00  0.00    -0.216 OA
BRANCH   7   9
ATOM      9  O   UNL     1      10.534  -1.822  21.853  0.00  0.00    -0.293 OA
ATOM     10  H   UNL     1      10.478  -2.650  21.337  0.00  0.00    +0.223 HD
ENDBRANCH   7   9
BRANCH   7  11
ATOM     11  O   UNL     1       8.212  -1.977  22.661  0.00  0.00    -0.293 OA
ATOM     12  H   UNL     1       8.189  -2.277  21.735  0.00  0.00    +0.223 HD
ENDBRANCH   7  11
ENDBRANCH   1   7
TORSDOF 5
ENDMDL
MODEL 5
REMARK VINA RESULT:      -3.6      3.623      4.335
REMARK  Name = 
REMARK  5 active torsions:
REMARK  status: ('A' for Active; 'I' for Inactive)
REMARK    1  A    between atoms: N_1  and  C_2
REMARK    2  A    between atoms: C_3  and  O_4
REMARK    3  A    between atoms: O_4  and  P_5
REMARK    4  A    between atoms: P_5  and  O_6
REMARK    5  A    between atoms: P_5  and  O_7
REMARK                            x       y       z     vdW  Elec       q    Type
REMARK                         _______ _______ _______ _____ _____    ______ ____
ROOT
ATOM      1  O   UNL     1      10.074  -3.304  24.002  0.00  0.00    -0.411 OA
ENDROOT
BRANCH   1   3
ATOM      2  C   UNL     1       9.527  -5.045  25.493  0.00  0.00    +0.103 C 
ATOM      3  C   UNL     1       9.172  -3.983  24.768  0.00  0.00    +0.213 C 
BRANCH   2   4
ATOM      4  N   UNL     1       8.739  -5.775  26.341  0.00  0.00    -0.361 N 
ATOM      5  H   UNL     1       9.246  -6.440  26.921  0.00  0.00    +0.142 HD
ATOM      6  H   UNL     1       8.064  -5.223  26.863  0.00  0.00    +0.142 HD
ENDBRANCH   2   4
ENDBRANCH   1   3
BRANCH   1   7
ATOM      7  P   UNL     1       9.829  -1.817  23.449  0.00  0.00    +0.527 P 
ATOM      8  O   UNL     1      10.182  -0.687  24.353  0.00  0.00    -0.216 OA
BRANCH   7   9
ATOM      9  O   UNL     1       8.288  -1.810  23.028  0.00  0.00    -0.293 OA
ATOM     10  H   UNL     1       7.929  -0.903  23.076  0.00  0.00    +0.223 HD
ENDBRANCH   7   9
BRANCH   7  11
ATOM     11  O   UNL     1      10.534  -1.803  22.016  0.00  0.00    -0.293 OA
ATOM     12  H   UNL     1      11.340  -1.257  22.033  0.00  0.00    +0.223 HD
ENDBRANCH   7  11
ENDBRANCH   1   7
TORSDOF 5
ENDMDL
MODEL 6
REMARK VINA RESULT:      -3.6      3.059      3.495
REMARK  Name = 
REMARK  5 active torsions:
REMARK  status: ('A' for Active; 'I' for Inactive)
REMARK    1  A    between atoms: N_1  and  C_2
REMARK    2  A    between atoms: C_3  and  O_4
REMARK    3  A    between atoms: O_4  and  P_5
REMARK    4  A    between atoms: P_5  and  O_6
REMARK    5  A    between atoms: P_5  and  O_7
REMARK                            x       y       z     vdW  Elec       q    Type
REMARK                         _______ _______ _______ _____ _____    ______ ____
ROOT
ATOM      1  O   UNL     1       9.362  -3.301  25.051  0.00  0.00    -0.411 OA
ENDROOT
BRANCH   1   3
ATOM      2  C   UNL     1      10.066  -1.983  23.229  0.00  0.00    +0.103 C 
ATOM      3  C   UNL     1       9.207  -2.846  23.774  0.00  0.00    +0.213 C 
BRANCH   2   4
ATOM      4  N   UNL     1      10.058  -1.496  21.950  0.00  0.00    -0.361 N 
ATOM      5  H   UNL     1       9.134  -1.256  21.596  0.00  0.00    +0.142 HD
ATOM      6  H   UNL     1      10.752  -0.775  21.772  0.00  0.00    +0.142 HD
ENDBRANCH   2   4
ENDBRANCH   1   3
BRANCH   1   7
ATOM      7  P   UNL     1       8.938  -4.774  25.526  0.00  0.00    +0.527 P 
ATOM      8  O   UNL     1       7.596  -5.266  25.109  0.00  0.00    -0.216 OA
BRANCH   7   9
ATOM      9  O   UNL     1       9.111  -4.733  27.114  0.00  0.00    -0.293 OA
ATOM     10  H   UNL     1       8.319  -4.340  27.530  0.00  0.00    +0.223 HD
ENDBRANCH   7   9
BRANCH   7  11
ATOM     11  O   UNL     1      10.174  -5.699  25.112  0.00  0.00    -0.293 OA
ATOM     12  H   UNL     1      10.039  -6.078  24.226  0.00  0.00    +0.223 HD
ENDBRANCH   7  11
ENDBRANCH   1   7
TORSDOF 5
ENDMDL
MODEL 7
REMARK VINA RESULT:      -3.5      5.054      5.327
REMARK  Name = 
REMARK  5 active torsions:
REMARK  status: ('A' for Active; 'I' for Inactive)
REMARK    1  A    between atoms: N_1  and  C_2
REMARK    2  A    between atoms: C_3  and  O_4
REMARK    3  A    between atoms: O_4  and  P_5
REMARK    4  A    between atoms: P_5  and  O_6
REMARK    5  A    between atoms: P_5  and  O_7
REMARK                            x       y       z     vdW  Elec       q    Type
REMARK                         _______ _______ _______ _____ _____    ______ ____
ROOT
ATOM      1  O   UNL     1       9.365  -1.617  21.913  0.00  0.00    -0.411 OA
ENDROOT
BRANCH   1   3
ATOM      2  C   UNL     1       9.226   0.707  21.545  0.00  0.00    +0.103 C 
ATOM      3  C   UNL     1       9.940  -0.381  21.839  0.00  0.00    +0.213 C 
BRANCH   2   4
ATOM      4  N   UNL     1       9.666   2.002  21.495  0.00  0.00    -0.361 N 
ATOM      5  H   UNL     1      10.360   2.239  22.201  0.00  0.00    +0.142 HD
ATOM      6  H   UNL     1       9.918   2.322  20.564  0.00  0.00    +0.142 HD
ENDBRANCH   2   4
ENDBRANCH   1   3
BRANCH   1   7
ATOM      7  P   UNL     1       8.860  -2.281  23.283  0.00  0.00    +0.527 P 
ATOM      8  O   UNL     1       8.237  -1.377  24.290  0.00  0.00    -0.216 OA
BRANCH   7   9
ATOM      9  O   UNL     1      10.152  -3.034  23.847  0.00  0.00    -0.293 OA
ATOM     10  H   UNL     1      10.928  -2.441  23.817  0.00  0.00    +0.223 HD
ENDBRANCH   7   9
BRANCH   7  11
ATOM     11  O   UNL     1       7.966  -3.522  22.820  0.00  0.00    -0.293 OA
ATOM     12  H   UNL     1       8.252  -3.846  21.948  0.00  0.00    +0.223 HD
ENDBRANCH   7  11
ENDBRANCH   1   7
TORSDOF 5
ENDMDL
MODEL 8
REMARK VINA RESULT:      -3.4      3.502      4.405
REMARK  Name = 
REMARK  5 active torsions:
REMARK  status: ('A' for Active; 'I' for Inactive)
REMARK    1  A    between atoms: N_1  and  C_2
REMARK    2  A    between atoms: C_3  and  O_4
REMARK    3  A    between atoms: O_4  and  P_5
REMARK    4  A    between atoms: P_5  and  O_6
REMARK    5  A    between atoms: P_5  and  O_7
REMARK                            x       y       z     vdW  Elec       q    Type
REMARK                         _______ _______ _______ _____ _____    ______ ____
ROOT
ATOM      1  O   UNL     1       6.947  -4.909  23.830  0.00  0.00    -0.411 OA
ENDROOT
BRANCH   1   3
ATOM      2  C   UNL     1       8.770  -5.361  25.255  0.00  0.00    +0.103 C 
ATOM      3  C   UNL     1       8.288  -4.956  24.078  0.00  0.00    +0.213 C 
BRANCH   2   4
ATOM      4  N   UNL     1      10.083  -5.507  25.610  0.00  0.00    -0.361 N 
ATOM      5  H   UNL     1      10.703  -5.756  24.842  0.00  0.00    +0.142 HD
ATOM      6  H   UNL     1      10.446  -4.753  26.187  0.00  0.00    +0.142 HD
ENDBRANCH   2   4
ENDBRANCH   1   3
BRANCH   1   7
ATOM      7  P   UNL     1       6.269  -5.484  22.494  0.00  0.00    +0.527 P 
ATOM      8  O   UNL     1       7.176  -5.836  21.366  0.00  0.00    -0.216 OA
BRANCH   7   9
ATOM      9  O   UNL     1       5.194  -4.370  22.096  0.00  0.00    -0.293 OA
ATOM     10  H   UNL     1       4.880  -4.516  21.182  0.00  0.00    +0.223 HD
ENDBRANCH   7   9
BRANCH   7  11
ATOM     11  O   UNL     1       5.312  -6.657  23.004  0.00  0.00    -0.293 OA
ATOM     12  H   UNL     1       5.088  -6.535  23.944  0.00  0.00    +0.223 HD
ENDBRANCH   7  11
ENDBRANCH   1   7
TORSDOF 5
ENDMDL
MODEL 9
REMARK VINA RESULT:      -3.4      2.933      3.286
REMARK  Name = 
REMARK  5 active torsions:
REMARK  status: ('A' for Active; 'I' for Inactive)
REMARK    1  A    between atoms: N_1  and  C_2
REMARK    2  A    between atoms: C_3  and  O_4
REMARK    3  A    between atoms: O_4  and  P_5
REMARK    4  A    between atoms: P_5  and  O_6
REMARK    5  A    between atoms: P_5  and  O_7
REMARK                            x       y       z     vdW  Elec       q    Type
REMARK                         _______ _______ _______ _____ _____    ______ ____
ROOT
ATOM      1  O   UNL     1       8.272  -4.251  26.032  0.00  0.00    -0.411 OA
ENDROOT
BRANCH   1   3
ATOM      2  C   UNL     1       6.456  -5.616  26.658  0.00  0.00    +0.103 C 
ATOM      3  C   UNL     1       7.723  -5.227  26.812  0.00  0.00    +0.213 C 
BRANCH   2   4
ATOM      4  N   UNL     1       5.805  -6.614  27.331  0.00  0.00    -0.361 N 
ATOM      5  H   UNL     1       4.877  -6.830  26.972  0.00  0.00    +0.142 HD
ATOM      6  H   UNL     1       6.370  -7.442  27.500  0.00  0.00    +0.142 HD
ENDBRANCH   2   4
ENDBRANCH   1   3
BRANCH   1   7
ATOM      7  P   UNL     1       9.311  -4.544  24.844  0.00  0.00    +0.527 P 
ATOM      8  O   UNL     1      10.010  -3.372  24.246  0.00  0.00    -0.216 OA
BRANCH   7   9
ATOM      9  O   UNL     1       8.453  -5.361  23.772  0.00  0.00    -0.293 OA
ATOM     10  H   UNL     1       8.461  -6.313  23.988  0.00  0.00    +0.223 HD
ENDBRANCH   7   9
BRANCH   7  11
ATOM     11  O   UNL     1      10.257  -5.697  25.415  0.00  0.00    -0.293 OA
ATOM     12  H   UNL     1      10.303  -6.445  24.794  0.00  0.00    +0.223 HD
ENDBRANCH   7  11
ENDBRANCH   1   7
TORSDOF 5
ENDMDL
