MODEL 1
REMARK VINA RESULT:      -5.2      0.000      0.000
REMARK  Name = 
REMARK  2 active torsions:
REMARK  status: ('A' for Active; 'I' for Inactive)
REMARK    1  A    between atoms: C_1  and  N_2
REMARK    2  A    between atoms: N_2  and  C_3
REMARK                            x       y       z     vdW  Elec       q    Type
REMARK                         _______ _______ _______ _____ _____    ______ ____
ROOT
ATOM      1  C   UNL     1       9.312  -5.461  25.310  0.00  0.00    +0.132 C 
ATOM      2  N   UNL     1       8.628  -4.503  26.176  0.00  0.00    -0.307 N 
ATOM      3  C   UNL     1       8.561  -3.228  25.711  0.00  0.00    +0.196 A 
ATOM      4  N   UNL     1       8.033  -2.216  26.466  0.00  0.00    -0.325 N 
ATOM      5  H   UNL     1       7.660  -2.321  27.395  0.00  0.00    +0.169 HD
ATOM      6  C   UNL     1       8.168  -1.033  25.781  0.00  0.00    +0.084 A 
ATOM      7  C   UNL     1       8.766  -1.399  24.583  0.00  0.00    +0.107 A 
ATOM      8  C   UNL     1       9.035  -0.410  23.617  0.00  0.00    +0.060 A 
ATOM      9  C   UNL     1       8.717   0.935  23.910  0.00  0.00    +0.049 A 
ATOM     10  C   UNL     1       8.131   1.280  25.152  0.00  0.00    +0.049 A 
ATOM     11 BR   UNL     1       7.730   3.109  25.572  0.00  0.00    -0.048 Br
ATOM     12 BR   UNL     1       9.095   2.292  22.605  0.00  0.00    -0.048 Br
ATOM     13 BR   UNL     1       9.817  -0.974  21.974  0.00  0.00    -0.047 Br
ATOM     14  C   UNL     1       7.838   0.284  26.107  0.00  0.00    +0.058 A 
ATOM     15 BR   UNL     1       7.043   0.616  27.799  0.00  0.00    -0.047 Br
ATOM     16  N   UNL     1       9.010  -2.755  24.571  0.00  0.00    -0.213 NA
ATOM     17  C   UNL     1       7.552  -5.032  27.003  0.00  0.00    +0.132 C 
ENDROOT
TORSDOF 0
ENDMDL
MODEL 2
REMARK VINA RESULT:      -5.0      0.217      3.138
REMARK  Name = 
REMARK  2 active torsions:
REMARK  status: ('A' for Active; 'I' for Inactive)
REMARK    1  A    between atoms: C_1  and  N_2
REMARK    2  A    between atoms: N_2  and  C_3
REMARK                            x       y       z     vdW  Elec       q    Type
REMARK                         _______ _______ _______ _____ _____    ______ ____
ROOT
ATOM      1  C   UNL     1       7.663  -4.958  27.008  0.00  0.00    +0.132 C 
ATOM      2  N   UNL     1       8.303  -4.522  25.769  0.00  0.00    -0.307 N 
ATOM      3  C   UNL     1       8.336  -3.180  25.562  0.00  0.00    +0.196 A 
ATOM      4  N   UNL     1       8.821  -2.646  24.398  0.00  0.00    -0.325 N 
ATOM      5  H   UNL     1       9.183  -3.177  23.624  0.00  0.00    +0.169 HD
ATOM      6  C   UNL     1       8.659  -1.282  24.433  0.00  0.00    +0.084 A 
ATOM      7  C   UNL     1       8.091  -1.038  25.675  0.00  0.00    +0.107 A 
ATOM      8  C   UNL     1       7.806   0.288  26.055  0.00  0.00    +0.060 A 
ATOM      9  C   UNL     1       8.076   1.332  25.141  0.00  0.00    +0.049 A 
ATOM     10  C   UNL     1       8.633   1.049  23.871  0.00  0.00    +0.049 A 
ATOM     11 BR   UNL     1       8.969   2.457  22.612  0.00  0.00    -0.048 Br
ATOM     12 BR   UNL     1       7.675   3.142  25.643  0.00  0.00    -0.048 Br
ATOM     13 BR   UNL     1       7.067   0.570  27.787  0.00  0.00    -0.047 Br
ATOM     14  C   UNL     1       8.942  -0.279  23.505  0.00  0.00    +0.058 A 
ATOM     15 BR   UNL     1       9.701  -0.787  21.839  0.00  0.00    -0.047 Br
ATOM     16  N   UNL     1       7.890  -2.225  26.345  0.00  0.00    -0.213 NA
ATOM     17  C   UNL     1       9.383  -5.362  25.268  0.00  0.00    +0.132 C 
ENDROOT
TORSDOF 0
ENDMDL
MODEL 3
REMARK VINA RESULT:      -5.0      4.063      6.146
REMARK  Name = 
REMARK  2 active torsions:
REMARK  status: ('A' for Active; 'I' for Inactive)
REMARK    1  A    between atoms: C_1  and  N_2
REMARK    2  A    between atoms: N_2  and  C_3
REMARK                            x       y       z     vdW  Elec       q    Type
REMARK                         _______ _______ _______ _____ _____    ______ ____
ROOT
ATOM      1  C   UNL     1       9.953  -0.519  24.525  0.00  0.00    +0.132 C 
ATOM      2  N   UNL     1       9.590  -1.552  23.556  0.00  0.00    -0.307 N 
ATOM      3  C   UNL     1       8.345  -2.078  23.691  0.00  0.00    +0.196 A 
ATOM      4  N   UNL     1       7.917  -3.118  22.910  0.00  0.00    -0.325 N 
ATOM      5  H   UNL     1       8.464  -3.567  22.194  0.00  0.00    +0.169 HD
ATOM      6  C   UNL     1       6.660  -3.492  23.317  0.00  0.00    +0.084 A 
ATOM      7  C   UNL     1       6.357  -2.609  24.343  0.00  0.00    +0.107 A 
ATOM      8  C   UNL     1       5.107  -2.700  24.985  0.00  0.00    +0.060 A 
ATOM      9  C   UNL     1       4.206  -3.714  24.585  0.00  0.00    +0.049 A 
ATOM     10  C   UNL     1       4.555  -4.616  23.551  0.00  0.00    +0.049 A 
ATOM     11 BR   UNL     1       3.353  -6.017  23.027  0.00  0.00    -0.048 Br
ATOM     12 BR   UNL     1       2.505  -3.856  25.465  0.00  0.00    -0.048 Br
ATOM     13 BR   UNL     1       4.726  -1.436  26.358  0.00  0.00    -0.047 Br
ATOM     14  C   UNL     1       5.798  -4.504  22.892  0.00  0.00    +0.058 A 
ATOM     15 BR   UNL     1       6.376  -5.642  21.485  0.00  0.00    -0.047 Br
ATOM     16  N   UNL     1       7.417  -1.757  24.563  0.00  0.00    -0.213 NA
ATOM     17  C   UNL     1      10.193  -1.440  22.235  0.00  0.00    +0.132 C 
ENDROOT
TORSDOF 0
ENDMDL
MODEL 4
REMARK VINA RESULT:      -4.9      4.762      6.637
REMARK  Name = 
REMARK  2 active torsions:
REMARK  status: ('A' for Active; 'I' for Inactive)
REMARK    1  A    between atoms: C_1  and  N_2
REMARK    2  A    between atoms: N_2  and  C_3
REMARK                            x       y       z     vdW  Elec       q    Type
REMARK                         _______ _______ _______ _____ _____    ______ ____
ROOT
ATOM      1  C   UNL     1      13.148   5.011  22.998  0.00  0.00    +0.132 C 
ATOM      2  N   UNL     1      11.926   5.511  23.627  0.00  0.00    -0.307 N 
ATOM      3  C   UNL     1      10.907   4.618  23.729  0.00  0.00    +0.196 A 
ATOM      4  N   UNL     1       9.678   4.985  24.209  0.00  0.00    -0.325 N 
ATOM      5  H   UNL     1       9.430   5.910  24.518  0.00  0.00    +0.169 HD
ATOM      6  C   UNL     1       8.829   3.909  24.125  0.00  0.00    +0.084 A 
ATOM      7  C   UNL     1       9.618   2.891  23.608  0.00  0.00    +0.107 A 
ATOM      8  C   UNL     1       9.055   1.616  23.409  0.00  0.00    +0.060 A 
ATOM      9  C   UNL     1       7.688   1.418  23.712  0.00  0.00    +0.049 A 
ATOM     10  C   UNL     1       6.903   2.483  24.214  0.00  0.00    +0.049 A 
ATOM     11 BR   UNL     1       5.038   2.233  24.593  0.00  0.00    -0.048 Br
ATOM     12 BR   UNL     1       6.907  -0.313  23.428  0.00  0.00    -0.048 Br
ATOM     13 BR   UNL     1      10.193   0.245  22.737  0.00  0.00    -0.047 Br
ATOM     14  C   UNL     1       7.477   3.753  24.438  0.00  0.00    +0.058 A 
ATOM     15 BR   UNL     1       6.536   5.255  25.119  0.00  0.00    -0.047 Br
ATOM     16  N   UNL     1      10.890   3.358  23.360  0.00  0.00    -0.213 NA
ATOM     17  C   UNL     1      12.095   6.541  24.642  0.00  0.00    +0.132 C 
ENDROOT
TORSDOF 0
ENDMDL
MODEL 5
REMARK VINA RESULT:      -4.9      4.039      5.367
REMARK  Name = 
REMARK  2 active torsions:
REMARK  status: ('A' for Active; 'I' for Inactive)
REMARK    1  A    between atoms: C_1  and  N_2
REMARK    2  A    between atoms: N_2  and  C_3
REMARK                            x       y       z     vdW  Elec       q    Type
REMARK                         _______ _______ _______ _____ _____    ______ ____
ROOT
ATOM      1  C   UNL     1      10.176  -1.378  22.215  0.00  0.00    +0.132 C 
ATOM      2  N   UNL     1       9.317  -1.008  23.338  0.00  0.00    -0.307 N 
ATOM      3  C   UNL     1       8.213  -1.778  23.516  0.00  0.00    +0.196 A 
ATOM      4  N   UNL     1       7.277  -1.481  24.470  0.00  0.00    -0.325 N 
ATOM      5  H   UNL     1       7.322  -0.698  25.101  0.00  0.00    +0.169 HD
ATOM      6  C   UNL     1       6.239  -2.376  24.370  0.00  0.00    +0.084 A 
ATOM      7  C   UNL     1       6.621  -3.226  23.342  0.00  0.00    +0.107 A 
ATOM      8  C   UNL     1       5.777  -4.295  22.983  0.00  0.00    +0.060 A 
ATOM      9  C   UNL     1       4.547  -4.451  23.661  0.00  0.00    +0.049 A 
ATOM     10  C   UNL     1       4.174  -3.552  24.688  0.00  0.00    +0.049 A 
ATOM     11 BR   UNL     1       2.489  -3.735  25.588  0.00  0.00    -0.048 Br
ATOM     12 BR   UNL     1       3.383  -5.897  23.167  0.00  0.00    -0.048 Br
ATOM     13 BR   UNL     1       6.369  -5.457  21.595  0.00  0.00    -0.047 Br
ATOM     14  C   UNL     1       5.034  -2.498  25.064  0.00  0.00    +0.058 A 
ATOM     15 BR   UNL     1       4.656  -1.235  26.431  0.00  0.00    -0.047 Br
ATOM     16  N   UNL     1       7.834  -2.828  22.824  0.00  0.00    -0.213 NA
ATOM     17  C   UNL     1       9.979  -0.409  24.490  0.00  0.00    +0.132 C 
ENDROOT
TORSDOF 0
ENDMDL
MODEL 6
REMARK VINA RESULT:      -4.9      5.429      6.995
REMARK  Name = 
REMARK  2 active torsions:
REMARK  status: ('A' for Active; 'I' for Inactive)
REMARK    1  A    between atoms: C_1  and  N_2
REMARK    2  A    between atoms: N_2  and  C_3
REMARK                            x       y       z     vdW  Elec       q    Type
REMARK                         _______ _______ _______ _____ _____    ______ ____
ROOT
ATOM      1  C   UNL     1       1.367  -8.932  24.020  0.00  0.00    +0.132 C 
ATOM      2  N   UNL     1       1.955  -8.501  25.287  0.00  0.00    -0.307 N 
ATOM      3  C   UNL     1       3.042  -7.693  25.189  0.00  0.00    +0.196 A 
ATOM      4  N   UNL     1       3.743  -7.297  26.296  0.00  0.00    -0.325 N 
ATOM      5  H   UNL     1       3.524  -7.557  27.244  0.00  0.00    +0.169 HD
ATOM      6  C   UNL     1       4.830  -6.558  25.895  0.00  0.00    +0.084 A 
ATOM      7  C   UNL     1       4.717  -6.511  24.513  0.00  0.00    +0.107 A 
ATOM      8  C   UNL     1       5.677  -5.799  23.767  0.00  0.00    +0.060 A 
ATOM      9  C   UNL     1       6.749  -5.180  24.449  0.00  0.00    +0.049 A 
ATOM     10  C   UNL     1       6.850  -5.268  25.858  0.00  0.00    +0.049 A 
ATOM     11 BR   UNL     1       8.322  -4.461  26.788  0.00  0.00    -0.048 Br
ATOM     12 BR   UNL     1       8.072  -4.221  23.439  0.00  0.00    -0.048 Br
ATOM     13 BR   UNL     1       5.452  -5.730  21.877  0.00  0.00    -0.047 Br
ATOM     14  C   UNL     1       5.872  -5.959  26.605  0.00  0.00    +0.058 A 
ATOM     15 BR   UNL     1       5.887  -6.136  28.496  0.00  0.00    -0.047 Br
ATOM     16  N   UNL     1       3.616  -7.229  24.103  0.00  0.00    -0.213 NA
ATOM     17  C   UNL     1       1.037  -8.353  26.408  0.00  0.00    +0.132 C 
ENDROOT
TORSDOF 0
ENDMDL
MODEL 7
REMARK VINA RESULT:      -4.8      2.713      4.078
REMARK  Name = 
REMARK  2 active torsions:
REMARK  status: ('A' for Active; 'I' for Inactive)
REMARK    1  A    between atoms: C_1  and  N_2
REMARK    2  A    between atoms: N_2  and  C_3
REMARK                            x       y       z     vdW  Elec       q    Type
REMARK                         _______ _______ _______ _____ _____    ______ ____
ROOT
ATOM      1  C   UNL     1       4.910  -5.637  22.750  0.00  0.00    +0.132 C 
ATOM      2  N   UNL     1       6.195  -5.072  22.343  0.00  0.00    -0.307 N 
ATOM      3  C   UNL     1       6.586  -3.954  23.007  0.00  0.00    +0.196 A 
ATOM      4  N   UNL     1       7.720  -3.272  22.658  0.00  0.00    -0.325 N 
ATOM      5  H   UNL     1       8.343  -3.529  21.910  0.00  0.00    +0.169 HD
ATOM      6  C   UNL     1       7.823  -2.148  23.441  0.00  0.00    +0.084 A 
ATOM      7  C   UNL     1       6.722  -2.217  24.282  0.00  0.00    +0.107 A 
ATOM      8  C   UNL     1       6.527  -1.210  25.247  0.00  0.00    +0.060 A 
ATOM      9  C   UNL     1       7.445  -0.137  25.309  0.00  0.00    +0.049 A 
ATOM     10  C   UNL     1       8.545  -0.082  24.419  0.00  0.00    +0.049 A 
ATOM     11 BR   UNL     1       9.775   1.391  24.472  0.00  0.00    -0.048 Br
ATOM     12 BR   UNL     1       7.179   1.249  26.611  0.00  0.00    -0.048 Br
ATOM     13 BR   UNL     1       5.024  -1.377  26.404  0.00  0.00    -0.047 Br
ATOM     14  C   UNL     1       8.752  -1.106  23.471  0.00  0.00    +0.058 A 
ATOM     15 BR   UNL     1      10.193  -1.154  22.235  0.00  0.00    -0.047 Br
ATOM     16  N   UNL     1       5.968  -3.332  23.985  0.00  0.00    -0.213 NA
ATOM     17  C   UNL     1       7.193  -6.017  21.860  0.00  0.00    +0.132 C 
ENDROOT
TORSDOF 0
ENDMDL
MODEL 8
REMARK VINA RESULT:      -4.8      2.704      2.790
REMARK  Name = 
REMARK  2 active torsions:
REMARK  status: ('A' for Active; 'I' for Inactive)
REMARK    1  A    between atoms: C_1  and  N_2
REMARK    2  A    between atoms: N_2  and  C_3
REMARK                            x       y       z     vdW  Elec       q    Type
REMARK                         _______ _______ _______ _____ _____    ______ ____
ROOT
ATOM      1  C   UNL     1       7.070  -5.680  21.563  0.00  0.00    +0.132 C 
ATOM      2  N   UNL     1       6.263  -5.093  22.631  0.00  0.00    -0.307 N 
ATOM      3  C   UNL     1       6.629  -3.848  23.033  0.00  0.00    +0.196 A 
ATOM      4  N   UNL     1       6.018  -3.227  24.088  0.00  0.00    -0.325 N 
ATOM      5  H   UNL     1       5.271  -3.619  24.638  0.00  0.00    +0.169 HD
ATOM      6  C   UNL     1       6.640  -2.024  24.318  0.00  0.00    +0.084 A 
ATOM      7  C   UNL     1       7.617  -1.953  23.335  0.00  0.00    +0.107 A 
ATOM      8  C   UNL     1       8.444  -0.815  23.265  0.00  0.00    +0.060 A 
ATOM      9  C   UNL     1       8.275   0.211  24.223  0.00  0.00    +0.049 A 
ATOM     10  C   UNL     1       7.286   0.097  25.230  0.00  0.00    +0.049 A 
ATOM     11 BR   UNL     1       7.075   1.468  26.556  0.00  0.00    -0.048 Br
ATOM     12 BR   UNL     1       9.409   1.759  24.147  0.00  0.00    -0.048 Br
ATOM     13 BR   UNL     1       9.739  -0.750  21.871  0.00  0.00    -0.047 Br
ATOM     14  C   UNL     1       6.441  -1.032  25.280  0.00  0.00    +0.058 A 
ATOM     15 BR   UNL     1       5.071  -1.296  26.569  0.00  0.00    -0.047 Br
ATOM     16  N   UNL     1       7.598  -3.095  22.565  0.00  0.00    -0.213 NA
ATOM     17  C   UNL     1       4.862  -5.489  22.675  0.00  0.00    +0.132 C 
ENDROOT
TORSDOF 0
ENDMDL
MODEL 9
REMARK VINA RESULT:      -4.8      2.660      4.094
REMARK  Name = 
REMARK  2 active torsions:
REMARK  status: ('A' for Active; 'I' for Inactive)
REMARK    1  A    between atoms: C_1  and  N_2
REMARK    2  A    between atoms: N_2  and  C_3
REMARK                            x       y       z     vdW  Elec       q    Type
REMARK                         _______ _______ _______ _____ _____    ______ ____
ROOT
ATOM      1  C   UNL     1       4.479  -4.575  23.258  0.00  0.00    +0.132 C 
ATOM      2  N   UNL     1       5.652  -4.019  22.587  0.00  0.00    -0.307 N 
ATOM      3  C   UNL     1       6.121  -2.848  23.090  0.00  0.00    +0.196 A 
ATOM      4  N   UNL     1       7.153  -2.174  22.495  0.00  0.00    -0.325 N 
ATOM      5  H   UNL     1       7.638  -2.474  21.665  0.00  0.00    +0.169 HD
ATOM      6  C   UNL     1       7.361  -0.994  23.167  0.00  0.00    +0.084 A 
ATOM      7  C   UNL     1       6.432  -1.021  24.197  0.00  0.00    +0.107 A 
ATOM      8  C   UNL     1       6.383   0.050  25.110  0.00  0.00    +0.060 A 
ATOM      9  C   UNL     1       7.264   1.141  24.929  0.00  0.00    +0.049 A 
ATOM     10  C   UNL     1       8.183   1.151  23.853  0.00  0.00    +0.049 A 
ATOM     11 BR   UNL     1       9.357   2.644  23.580  0.00  0.00    -0.048 Br
ATOM     12 BR   UNL     1       7.194   2.614  26.160  0.00  0.00    -0.048 Br
ATOM     13 BR   UNL     1       5.118  -0.058  26.530  0.00  0.00    -0.047 Br
ATOM     14  C   UNL     1       8.248   0.063  22.956  0.00  0.00    +0.058 A 
ATOM     15 BR   UNL     1       9.443  -0.049  21.485  0.00  0.00    -0.047 Br
ATOM     16  N   UNL     1       5.671  -2.167  24.119  0.00  0.00    -0.213 NA
ATOM     17  C   UNL     1       6.575  -4.979  21.997  0.00  0.00    +0.132 C 
ENDROOT
TORSDOF 0
ENDMDL
