MODEL 1
REMARK VINA RESULT:      -6.2      0.000      0.000
REMARK  Name = 
REMARK  7 active torsions:
REMARK  status: ('A' for Active; 'I' for Inactive)
REMARK    1  A    between atoms: C_1  and  C_2
REMARK    2  A    between atoms: C_2  and  O_3
REMARK    3  A    between atoms: C_2  and  C_4
REMARK    4  A    between atoms: C_2  and  C_6
REMARK    5  A    between atoms: N_8  and  C_9
REMARK    6  A    between atoms: C_11  and  C_18
REMARK    7  A    between atoms: C_12  and  N_15
REMARK                            x       y       z     vdW  Elec       q    Type
REMARK                         _______ _______ _______ _____ _____    ______ ____
ROOT
ATOM      1  C   UNL     1       8.181  -1.266  24.111  0.00  0.00    +0.034 A 
ATOM      2  C   UNL     1       8.378  -0.649  25.348  0.00  0.00    +0.030 A 
ATOM      3  C   UNL     1       8.691   0.708  25.409  0.00  0.00    +0.087 A 
ATOM      4  C   UNL     1       8.871   1.430  24.220  0.00  0.00    +0.285 A 
ATOM      5  C   UNL     1       8.721   0.829  22.962  0.00  0.00    +0.133 A 
ATOM      6  C   UNL     1       8.341  -0.527  22.928  0.00  0.00    +0.042 A 
ENDROOT
BRANCH   1   8
ATOM      7  C   UNL     1       8.861  -3.622  24.166  0.00  0.00    +0.249 C 
ATOM      8  N   UNL     1       7.889  -2.643  24.093  0.00  0.00    -0.283 N 
ATOM      9  H   UNL     1       7.006  -2.906  23.672  0.00  0.00    +0.155 HD
ATOM     10  O   UNL     1      10.073  -3.391  24.138  0.00  0.00    -0.272 OA
BRANCH   7  12
ATOM     11  C   UNL     1       7.602  -5.641  23.155  0.00  0.00    +0.052 C 
ATOM     12  C   UNL     1       8.380  -5.085  24.347  0.00  0.00    +0.148 C 
BRANCH  12  13
ATOM     13  O   UNL     1       9.566  -5.887  24.483  0.00  0.00    -0.379 OA
ATOM     14  H   UNL     1       9.293  -6.819  24.357  0.00  0.00    +0.211 HD
ENDBRANCH  12  13
BRANCH  12  15
ATOM     15  C   UNL     1       7.587  -5.077  25.658  0.00  0.00    +0.123 C 
ATOM     16 BR   UNL     1       5.736  -5.655  25.454  0.00  0.00    -0.088 Br
ENDBRANCH  12  15
ENDBRANCH   7  12
ENDBRANCH   1   8
BRANCH   5  17
ATOM     17  C   UNL     1       9.029   1.561  21.682  0.00  0.00    +0.424 C 
ATOM     18  F   UNL     1       8.744   0.805  20.588  0.00  0.00    -0.166 F 
ATOM     19  F   UNL     1      10.324   1.946  21.568  0.00  0.00    -0.166 F 
ATOM     20  F   UNL     1       8.296   2.701  21.532  0.00  0.00    -0.166 F 
ENDBRANCH   5  17
BRANCH   4  21
ATOM     21  N   UNL     1       9.267   2.825  24.342  0.00  0.00    +0.080 N 
ATOM     22  O   UNL     1      10.475   3.073  24.213  0.00  0.00    +0.041 OA
ATOM     23  O   UNL     1       8.384   3.647  24.595  0.00  0.00    -0.576 OA
ENDBRANCH   4  21
TORSDOF 6
ENDMDL
MODEL 2
REMARK VINA RESULT:      -6.2      3.764      6.729
REMARK  Name = 
REMARK  7 active torsions:
REMARK  status: ('A' for Active; 'I' for Inactive)
REMARK    1  A    between atoms: C_1  and  C_2
REMARK    2  A    between atoms: C_2  and  O_3
REMARK    3  A    between atoms: C_2  and  C_4
REMARK    4  A    between atoms: C_2  and  C_6
REMARK    5  A    between atoms: N_8  and  C_9
REMARK    6  A    between atoms: C_11  and  C_18
REMARK    7  A    between atoms: C_12  and  N_15
REMARK                            x       y       z     vdW  Elec       q    Type
REMARK                         _______ _______ _______ _____ _____    ______ ____
ROOT
ATOM      1  C   UNL     1       8.301  -1.397  24.124  0.00  0.00    +0.034 A 
ATOM      2  C   UNL     1       8.676  -1.651  25.445  0.00  0.00    +0.030 A 
ATOM      3  C   UNL     1       8.698  -2.959  25.925  0.00  0.00    +0.087 A 
ATOM      4  C   UNL     1       8.279  -4.007  25.093  0.00  0.00    +0.285 A 
ATOM      5  C   UNL     1       7.858  -3.781  23.775  0.00  0.00    +0.133 A 
ATOM      6  C   UNL     1       7.907  -2.457  23.294  0.00  0.00    +0.042 A 
ENDROOT
BRANCH   1   8
ATOM      7  C   UNL     1       9.367   0.581  23.139  0.00  0.00    +0.249 C 
ATOM      8  N   UNL     1       8.271  -0.059  23.686  0.00  0.00    -0.283 N 
ATOM      9  H   UNL     1       7.555   0.529  24.095  0.00  0.00    +0.155 HD
ATOM     10  O   UNL     1      10.497   0.088  23.090  0.00  0.00    -0.272 OA
BRANCH   7  12
ATOM     11  C   UNL     1       9.237   3.138  23.498  0.00  0.00    +0.052 C 
ATOM     12  C   UNL     1       9.129   1.979  22.510  0.00  0.00    +0.148 C 
BRANCH  12  13
ATOM     13  O   UNL     1      10.168   2.164  21.533  0.00  0.00    -0.379 OA
ATOM     14  H   UNL     1      10.424   1.272  21.220  0.00  0.00    +0.211 HD
ENDBRANCH  12  13
BRANCH  12  15
ATOM     15  C   UNL     1       7.763   1.871  21.824  0.00  0.00    +0.123 C 
ATOM     16 BR   UNL     1       6.561   3.348  22.244  0.00  0.00    -0.088 Br
ENDBRANCH  12  15
ENDBRANCH   7  12
ENDBRANCH   1   8
BRANCH   5  17
ATOM     17  C   UNL     1       7.292  -4.879  22.914  0.00  0.00    +0.424 C 
ATOM     18  F   UNL     1       6.113  -5.347  23.404  0.00  0.00    -0.166 F 
ATOM     19  F   UNL     1       8.114  -5.949  22.779  0.00  0.00    -0.166 F 
ATOM     20  F   UNL     1       7.016  -4.469  21.643  0.00  0.00    -0.166 F 
ENDBRANCH   5  17
BRANCH   4  21
ATOM     21  N   UNL     1       8.255  -5.344  25.668  0.00  0.00    +0.080 N 
ATOM     22  O   UNL     1       7.212  -5.679  26.250  0.00  0.00    +0.041 OA
ATOM     23  O   UNL     1       9.274  -6.028  25.563  0.00  0.00    -0.576 OA
ENDBRANCH   4  21
TORSDOF 6
ENDMDL
MODEL 3
REMARK VINA RESULT:      -6.1      4.176      7.051
REMARK  Name = 
REMARK  7 active torsions:
REMARK  status: ('A' for Active; 'I' for Inactive)
REMARK    1  A    between atoms: C_1  and  C_2
REMARK    2  A    between atoms: C_2  and  O_3
REMARK    3  A    between atoms: C_2  and  C_4
REMARK    4  A    between atoms: C_2  and  C_6
REMARK    5  A    between atoms: N_8  and  C_9
REMARK    6  A    between atoms: C_11  and  C_18
REMARK    7  A    between atoms: C_12  and  N_15
REMARK                            x       y       z     vdW  Elec       q    Type
REMARK                         _______ _______ _______ _____ _____    ______ ____
ROOT
ATOM      1  C   UNL     1       8.012  -1.613  23.603  0.00  0.00    +0.034 A 
ATOM      2  C   UNL     1       7.073  -1.912  22.614  0.00  0.00    +0.030 A 
ATOM      3  C   UNL     1       6.597  -3.214  22.473  0.00  0.00    +0.087 A 
ATOM      4  C   UNL     1       7.117  -4.231  23.286  0.00  0.00    +0.285 A 
ATOM      5  C   UNL     1       8.092  -3.972  24.261  0.00  0.00    +0.133 A 
ATOM      6  C   UNL     1       8.508  -2.636  24.426  0.00  0.00    +0.042 A 
ENDROOT
BRANCH   1   8
ATOM      7  C   UNL     1       9.411   0.245  22.824  0.00  0.00    +0.249 C 
ATOM      8  N   UNL     1       8.483  -0.290  23.697  0.00  0.00    -0.283 N 
ATOM      9  H   UNL     1       8.406   0.148  24.607  0.00  0.00    +0.155 HD
ATOM     10  O   UNL     1       9.999  -0.411  21.959  0.00  0.00    -0.272 OA
BRANCH   7  12
ATOM     11  C   UNL     1      10.891   2.142  23.769  0.00  0.00    +0.052 C 
ATOM     12  C   UNL     1       9.677   1.770  22.920  0.00  0.00    +0.148 C 
BRANCH  12  13
ATOM     13  O   UNL     1       9.950   2.217  21.581  0.00  0.00    -0.379 OA
ATOM     14  H   UNL     1       9.303   2.925  21.383  0.00  0.00    +0.211 HD
ENDBRANCH  12  13
BRANCH  12  15
ATOM     15  C   UNL     1       8.358   2.366  23.425  0.00  0.00    +0.123 C 
ATOM     16 BR   UNL     1       7.096   2.785  21.999  0.00  0.00    -0.088 Br
ENDBRANCH  12  15
ENDBRANCH   7  12
ENDBRANCH   1   8
BRANCH   5  17
ATOM     17  C   UNL     1       8.744  -5.072  25.055  0.00  0.00    +0.424 C 
ATOM     18  F   UNL     1       9.741  -4.598  25.850  0.00  0.00    -0.166 F 
ATOM     19  F   UNL     1       9.285  -6.054  24.291  0.00  0.00    -0.166 F 
ATOM     20  F   UNL     1       7.879  -5.703  25.900  0.00  0.00    -0.166 F 
ENDBRANCH   5  17
BRANCH   4  21
ATOM     21  N   UNL     1       6.637  -5.584  23.048  0.00  0.00    +0.080 N 
ATOM     22  O   UNL     1       7.187  -6.215  22.133  0.00  0.00    +0.041 OA
ATOM     23  O   UNL     1       5.706  -5.990  23.747  0.00  0.00    -0.576 OA
ENDBRANCH   4  21
TORSDOF 6
ENDMDL
MODEL 4
REMARK VINA RESULT:      -6.0      4.068      7.359
REMARK  Name = 
REMARK  7 active torsions:
REMARK  status: ('A' for Active; 'I' for Inactive)
REMARK    1  A    between atoms: C_1  and  C_2
REMARK    2  A    between atoms: C_2  and  O_3
REMARK    3  A    between atoms: C_2  and  C_4
REMARK    4  A    between atoms: C_2  and  C_6
REMARK    5  A    between atoms: N_8  and  C_9
REMARK    6  A    between atoms: C_11  and  C_18
REMARK    7  A    between atoms: C_12  and  N_15
REMARK                            x       y       z     vdW  Elec       q    Type
REMARK                         _______ _______ _______ _____ _____    ______ ____
ROOT
ATOM      1  C   UNL     1       8.755   2.125  22.676  0.00  0.00    +0.034 A 
ATOM      2  C   UNL     1       9.295   1.462  21.573  0.00  0.00    +0.030 A 
ATOM      3  C   UNL     1       9.417   0.074  21.583  0.00  0.00    +0.087 A 
ATOM      4  C   UNL     1       9.056  -0.643  22.733  0.00  0.00    +0.285 A 
ATOM      5  C   UNL     1       8.549  -0.003  23.873  0.00  0.00    +0.133 A 
ATOM      6  C   UNL     1       8.374   1.395  23.813  0.00  0.00    +0.042 A 
ENDROOT
BRANCH   1   8
ATOM      7  C   UNL     1       7.500   4.206  22.341  0.00  0.00    +0.249 C 
ATOM      8  N   UNL     1       8.669   3.530  22.634  0.00  0.00    -0.283 N 
ATOM      9  H   UNL     1       9.537   4.025  22.471  0.00  0.00    +0.155 HD
ATOM     10  O   UNL     1       6.458   3.653  21.978  0.00  0.00    -0.272 OA
BRANCH   7  12
ATOM     11  C   UNL     1       8.764   6.287  23.210  0.00  0.00    +0.052 C 
ATOM     12  C   UNL     1       7.505   5.745  22.538  0.00  0.00    +0.148 C 
BRANCH  12  13
ATOM     13  O   UNL     1       7.453   6.320  21.221  0.00  0.00    -0.379 OA
ATOM     14  H   UNL     1       7.138   7.242  21.327  0.00  0.00    +0.211 HD
ENDBRANCH  12  13
BRANCH  12  15
ATOM     15  C   UNL     1       6.212   6.045  23.304  0.00  0.00    +0.123 C 
ATOM     16 BR   UNL     1       6.256   5.467  25.165  0.00  0.00    -0.088 Br
ENDBRANCH  12  15
ENDBRANCH   7  12
ENDBRANCH   1   8
BRANCH   5  17
ATOM     17  C   UNL     1       8.272  -0.746  25.153  0.00  0.00    +0.424 C 
ATOM     18  F   UNL     1       7.813   0.084  26.129  0.00  0.00    -0.166 F 
ATOM     19  F   UNL     1       9.353  -1.387  25.660  0.00  0.00    -0.166 F 
ATOM     20  F   UNL     1       7.311  -1.704  25.014  0.00  0.00    -0.166 F 
ENDBRANCH   5  17
BRANCH   4  21
ATOM     21  N   UNL     1       9.271  -2.082  22.715  0.00  0.00    +0.080 N 
ATOM     22  O   UNL     1      10.408  -2.477  23.014  0.00  0.00    +0.041 OA
ATOM     23  O   UNL     1       8.325  -2.795  22.376  0.00  0.00    -0.576 OA
ENDBRANCH   4  21
TORSDOF 6
ENDMDL
MODEL 5
REMARK VINA RESULT:      -5.9      4.339      7.158
REMARK  Name = 
REMARK  7 active torsions:
REMARK  status: ('A' for Active; 'I' for Inactive)
REMARK    1  A    between atoms: C_1  and  C_2
REMARK    2  A    between atoms: C_2  and  O_3
REMARK    3  A    between atoms: C_2  and  C_4
REMARK    4  A    between atoms: C_2  and  C_6
REMARK    5  A    between atoms: N_8  and  C_9
REMARK    6  A    between atoms: C_11  and  C_18
REMARK    7  A    between atoms: C_12  and  N_15
REMARK                            x       y       z     vdW  Elec       q    Type
REMARK                         _______ _______ _______ _____ _____    ______ ____
ROOT
ATOM      1  C   UNL     1       7.358  -3.199  24.302  0.00  0.00    +0.034 A 
ATOM      2  C   UNL     1       6.217  -3.265  25.104  0.00  0.00    +0.030 A 
ATOM      3  C   UNL     1       5.274  -4.270  24.894  0.00  0.00    +0.087 A 
ATOM      4  C   UNL     1       5.448  -5.171  23.833  0.00  0.00    +0.285 A 
ATOM      5  C   UNL     1       6.562  -5.105  22.984  0.00  0.00    +0.133 A 
ATOM      6  C   UNL     1       7.533  -4.121  23.258  0.00  0.00    +0.042 A 
ENDROOT
BRANCH   1   8
ATOM      7  C   UNL     1       7.989  -0.829  24.272  0.00  0.00    +0.249 C 
ATOM      8  N   UNL     1       8.275  -2.156  24.532  0.00  0.00    -0.283 N 
ATOM      9  H   UNL     1       9.253  -2.417  24.552  0.00  0.00    +0.155 HD
ATOM     10  O   UNL     1       6.959  -0.445  23.711  0.00  0.00    -0.272 OA
BRANCH   7  12
ATOM     11  C   UNL     1       8.450   1.643  24.873  0.00  0.00    +0.052 C 
ATOM     12  C   UNL     1       9.011   0.226  24.770  0.00  0.00    +0.148 C 
BRANCH  12  13
ATOM     13  O   UNL     1       9.388  -0.172  26.099  0.00  0.00    -0.379 OA
ATOM     14  H   UNL     1       9.169  -1.123  26.182  0.00  0.00    +0.211 HD
ENDBRANCH  12  13
BRANCH  12  15
ATOM     15  C   UNL     1      10.203   0.097  23.815  0.00  0.00    +0.123 C 
ATOM     16 BR   UNL     1       9.797   0.629  21.984  0.00  0.00    -0.088 Br
ENDBRANCH  12  15
ENDBRANCH   7  12
ENDBRANCH   1   8
BRANCH   5  17
ATOM     17  C   UNL     1       6.699  -5.987  21.772  0.00  0.00    +0.424 C 
ATOM     18  F   UNL     1       7.874  -5.772  21.121  0.00  0.00    -0.166 F 
ATOM     19  F   UNL     1       5.709  -5.823  20.860  0.00  0.00    -0.166 F 
ATOM     20  F   UNL     1       6.696  -7.316  22.078  0.00  0.00    -0.166 F 
ENDBRANCH   5  17
BRANCH   4  21
ATOM     21  N   UNL     1       4.397  -6.154  23.617  0.00  0.00    +0.080 N 
ATOM     22  O   UNL     1       3.458  -5.810  22.884  0.00  0.00    +0.041 OA
ATOM     23  O   UNL     1       4.501  -7.236  24.198  0.00  0.00    -0.576 OA
ENDBRANCH   4  21
TORSDOF 6
ENDMDL
MODEL 6
REMARK VINA RESULT:      -5.8      1.610      2.028
REMARK  Name = 
REMARK  7 active torsions:
REMARK  status: ('A' for Active; 'I' for Inactive)
REMARK    1  A    between atoms: C_1  and  C_2
REMARK    2  A    between atoms: C_2  and  O_3
REMARK    3  A    between atoms: C_2  and  C_4
REMARK    4  A    between atoms: C_2  and  C_6
REMARK    5  A    between atoms: N_8  and  C_9
REMARK    6  A    between atoms: C_11  and  C_18
REMARK    7  A    between atoms: C_12  and  N_15
REMARK                            x       y       z     vdW  Elec       q    Type
REMARK                         _______ _______ _______ _____ _____    ______ ____
ROOT
ATOM      1  C   UNL     1       8.405  -1.121  24.716  0.00  0.00    +0.034 A 
ATOM      2  C   UNL     1       8.256  -0.152  25.710  0.00  0.00    +0.030 A 
ATOM      3  C   UNL     1       8.288   1.201  25.377  0.00  0.00    +0.087 A 
ATOM      4  C   UNL     1       8.537   1.580  24.050  0.00  0.00    +0.285 A 
ATOM      5  C   UNL     1       8.732   0.631  23.035  0.00  0.00    +0.133 A 
ATOM      6  C   UNL     1       8.630  -0.730  23.387  0.00  0.00    +0.042 A 
ENDROOT
BRANCH   1   8
ATOM      7  C   UNL     1       7.252  -3.261  25.045  0.00  0.00    +0.249 C 
ATOM      8  N   UNL     1       8.388  -2.476  25.097  0.00  0.00    -0.283 N 
ATOM      9  H   UNL     1       9.117  -2.769  25.737  0.00  0.00    +0.155 HD
ATOM     10  O   UNL     1       6.129  -2.828  24.774  0.00  0.00    -0.272 OA
BRANCH   7  12
ATOM     11  C   UNL     1       8.039  -5.127  26.652  0.00  0.00    +0.052 C 
ATOM     12  C   UNL     1       7.431  -4.782  25.294  0.00  0.00    +0.148 C 
BRANCH  12  13
ATOM     13  O   UNL     1       6.111  -5.352  25.269  0.00  0.00    -0.379 OA
ATOM     14  H   UNL     1       5.748  -5.264  26.174  0.00  0.00    +0.211 HD
ENDBRANCH  12  13
BRANCH  12  15
ATOM     15  C   UNL     1       8.251  -5.280  24.099  0.00  0.00    +0.123 C 
ATOM     16 BR   UNL     1       7.194  -5.545  22.483  0.00  0.00    -0.088 Br
ENDBRANCH  12  15
ENDBRANCH   7  12
ENDBRANCH   1   8
BRANCH   5  17
ATOM     17  C   UNL     1       9.118   1.025  21.634  0.00  0.00    +0.424 C 
ATOM     18  F   UNL     1      10.283   1.728  21.611  0.00  0.00    -0.166 F 
ATOM     19  F   UNL     1       8.189   1.782  21.000  0.00  0.00    -0.166 F 
ATOM     20  F   UNL     1       9.331  -0.049  20.820  0.00  0.00    -0.166 F 
ENDBRANCH   5  17
BRANCH   4  21
ATOM     21  N   UNL     1       8.631   3.005  23.772  0.00  0.00    +0.080 N 
ATOM     22  O   UNL     1       9.731   3.540  23.978  0.00  0.00    +0.041 OA
ATOM     23  O   UNL     1       7.611   3.578  23.385  0.00  0.00    -0.576 OA
ENDBRANCH   4  21
TORSDOF 6
ENDMDL
MODEL 7
REMARK VINA RESULT:      -5.8      2.645      2.928
REMARK  Name = 
REMARK  7 active torsions:
REMARK  status: ('A' for Active; 'I' for Inactive)
REMARK    1  A    between atoms: C_1  and  C_2
REMARK    2  A    between atoms: C_2  and  O_3
REMARK    3  A    between atoms: C_2  and  C_4
REMARK    4  A    between atoms: C_2  and  C_6
REMARK    5  A    between atoms: N_8  and  C_9
REMARK    6  A    between atoms: C_11  and  C_18
REMARK    7  A    between atoms: C_12  and  N_15
REMARK                            x       y       z     vdW  Elec       q    Type
REMARK                         _______ _______ _______ _____ _____    ______ ____
ROOT
ATOM      1  C   UNL     1       6.758  -2.191  23.764  0.00  0.00    +0.034 A 
ATOM      2  C   UNL     1       6.081  -1.085  24.281  0.00  0.00    +0.030 A 
ATOM      3  C   UNL     1       6.636   0.189  24.166  0.00  0.00    +0.087 A 
ATOM      4  C   UNL     1       7.904   0.341  23.588  0.00  0.00    +0.285 A 
ATOM      5  C   UNL     1       8.628  -0.755  23.097  0.00  0.00    +0.133 A 
ATOM      6  C   UNL     1       8.017  -2.023  23.167  0.00  0.00    +0.042 A 
ENDROOT
BRANCH   1   8
ATOM      7  C   UNL     1       5.444  -4.085  22.927  0.00  0.00    +0.249 C 
ATOM      8  N   UNL     1       6.175  -3.462  23.921  0.00  0.00    -0.283 N 
ATOM      9  H   UNL     1       5.995  -3.757  24.873  0.00  0.00    +0.155 HD
ATOM     10  O   UNL     1       5.135  -3.546  21.861  0.00  0.00    -0.272 OA
BRANCH   7  12
ATOM     11  C   UNL     1       3.540  -5.827  23.084  0.00  0.00    +0.052 C 
ATOM     12  C   UNL     1       5.042  -5.564  23.165  0.00  0.00    +0.148 C 
BRANCH  12  13
ATOM     13  O   UNL     1       5.657  -6.324  22.110  0.00  0.00    -0.379 OA
ATOM     14  H   UNL     1       6.390  -5.777  21.758  0.00  0.00    +0.211 HD
ENDBRANCH  12  13
BRANCH  12  15
ATOM     15  C   UNL     1       5.665  -5.926  24.517  0.00  0.00    +0.123 C 
ATOM     16 BR   UNL     1       4.413  -6.764  25.754  0.00  0.00    -0.088 Br
ENDBRANCH  12  15
ENDBRANCH   7  12
ENDBRANCH   1   8
BRANCH   5  17
ATOM     17  C   UNL     1      10.038  -0.620  22.586  0.00  0.00    +0.424 C 
ATOM     18  F   UNL     1      10.572  -1.827  22.256  0.00  0.00    -0.166 F 
ATOM     19  F   UNL     1      10.889  -0.043  23.470  0.00  0.00    -0.166 F 
ATOM     20  F   UNL     1      10.123   0.133  21.453  0.00  0.00    -0.166 F 
ENDBRANCH   5  17
BRANCH   4  21
ATOM     21  N   UNL     1       8.465   1.684  23.559  0.00  0.00    +0.080 N 
ATOM     22  O   UNL     1       8.315   2.325  22.508  0.00  0.00    +0.041 OA
ATOM     23  O   UNL     1       9.070   2.071  24.561  0.00  0.00    -0.576 OA
ENDBRANCH   4  21
TORSDOF 6
ENDMDL
MODEL 8
REMARK VINA RESULT:      -5.7      4.336      6.889
REMARK  Name = 
REMARK  7 active torsions:
REMARK  status: ('A' for Active; 'I' for Inactive)
REMARK    1  A    between atoms: C_1  and  C_2
REMARK    2  A    between atoms: C_2  and  O_3
REMARK    3  A    between atoms: C_2  and  C_4
REMARK    4  A    between atoms: C_2  and  C_6
REMARK    5  A    between atoms: N_8  and  C_9
REMARK    6  A    between atoms: C_11  and  C_18
REMARK    7  A    between atoms: C_12  and  N_15
REMARK                            x       y       z     vdW  Elec       q    Type
REMARK                         _______ _______ _______ _____ _____    ______ ____
ROOT
ATOM      1  C   UNL     1       7.594  -1.900  23.883  0.00  0.00    +0.034 A 
ATOM      2  C   UNL     1       6.295  -2.078  24.362  0.00  0.00    +0.030 A 
ATOM      3  C   UNL     1       6.026  -3.080  25.293  0.00  0.00    +0.087 A 
ATOM      4  C   UNL     1       7.054  -3.946  25.693  0.00  0.00    +0.285 A 
ATOM      5  C   UNL     1       8.360  -3.819  25.199  0.00  0.00    +0.133 A 
ATOM      6  C   UNL     1       8.619  -2.758  24.308  0.00  0.00    +0.042 A 
ENDROOT
BRANCH   1   8
ATOM      7  C   UNL     1       8.466   0.295  23.219  0.00  0.00    +0.249 C 
ATOM      8  N   UNL     1       7.819  -0.891  22.927  0.00  0.00    -0.283 N 
ATOM      9  H   UNL     1       7.198  -0.888  22.126  0.00  0.00    +0.155 HD
ATOM     10  O   UNL     1       8.802   0.632  24.357  0.00  0.00    -0.272 OA
BRANCH   7  12
ATOM     11  C   UNL     1      10.054   2.095  22.260  0.00  0.00    +0.052 C 
ATOM     12  C   UNL     1       8.827   1.216  22.025  0.00  0.00    +0.148 C 
BRANCH  12  13
ATOM     13  O   UNL     1       9.141   0.346  20.924  0.00  0.00    -0.379 OA
ATOM     14  H   UNL     1       9.702  -0.372  21.282  0.00  0.00    +0.211 HD
ENDBRANCH  12  13
BRANCH  12  15
ATOM     15  C   UNL     1       7.544   2.003  21.735  0.00  0.00    +0.123 C 
ATOM     16 BR   UNL     1       7.533   3.790  22.516  0.00  0.00    -0.088 Br
ENDBRANCH  12  15
ENDBRANCH   7  12
ENDBRANCH   1   8
BRANCH   5  17
ATOM     17  C   UNL     1       9.441  -4.814  25.526  0.00  0.00    +0.424 C 
ATOM     18  F   UNL     1       9.081  -6.081  25.185  0.00  0.00    -0.166 F 
ATOM     19  F   UNL     1       9.781  -4.843  26.839  0.00  0.00    -0.166 F 
ATOM     20  F   UNL     1      10.604  -4.577  24.854  0.00  0.00    -0.166 F 
ENDBRANCH   5  17
BRANCH   4  21
ATOM     21  N   UNL     1       6.701  -5.018  26.612  0.00  0.00    +0.080 N 
ATOM     22  O   UNL     1       6.880  -4.796  27.819  0.00  0.00    +0.041 OA
ATOM     23  O   UNL     1       6.282  -6.070  26.126  0.00  0.00    -0.576 OA
ENDBRANCH   4  21
TORSDOF 6
ENDMDL
MODEL 9
REMARK VINA RESULT:      -5.7      2.284      2.810
REMARK  Name = 
REMARK  7 active torsions:
REMARK  status: ('A' for Active; 'I' for Inactive)
REMARK    1  A    between atoms: C_1  and  C_2
REMARK    2  A    between atoms: C_2  and  O_3
REMARK    3  A    between atoms: C_2  and  C_4
REMARK    4  A    between atoms: C_2  and  C_6
REMARK    5  A    between atoms: N_8  and  C_9
REMARK    6  A    between atoms: C_11  and  C_18
REMARK    7  A    between atoms: C_12  and  N_15
REMARK                            x       y       z     vdW  Elec       q    Type
REMARK                         _______ _______ _______ _____ _____    ______ ____
ROOT
ATOM      1  C   UNL     1       8.582  -1.822  23.046  0.00  0.00    +0.034 A 
ATOM      2  C   UNL     1       9.130  -1.379  21.841  0.00  0.00    +0.030 A 
ATOM      3  C   UNL     1       9.426  -0.028  21.664  0.00  0.00    +0.087 A 
ATOM      4  C   UNL     1       9.110   0.887  22.678  0.00  0.00    +0.285 A 
ATOM      5  C   UNL     1       8.521   0.479  23.884  0.00  0.00    +0.133 A 
ATOM      6  C   UNL     1       8.291  -0.900  24.063  0.00  0.00    +0.042 A 
ENDROOT
BRANCH   1   8
ATOM      7  C   UNL     1       7.085  -3.742  22.744  0.00  0.00    +0.249 C 
ATOM      8  N   UNL     1       8.277  -3.191  23.176  0.00  0.00    -0.283 N 
ATOM      9  H   UNL     1       8.778  -3.693  23.898  0.00  0.00    +0.155 HD
ATOM     10  O   UNL     1       6.137  -3.079  22.314  0.00  0.00    -0.272 OA
BRANCH   7  12
ATOM     11  C   UNL     1       6.728  -5.914  21.388  0.00  0.00    +0.052 C 
ATOM     12  C   UNL     1       6.975  -5.289  22.760  0.00  0.00    +0.148 C 
BRANCH  12  13
ATOM     13  O   UNL     1       8.245  -5.780  23.220  0.00  0.00    -0.379 OA
ATOM     14  H   UNL     1       8.794  -4.996  23.426  0.00  0.00    +0.211 HD
ENDBRANCH  12  13
BRANCH  12  15
ATOM     15  C   UNL     1       5.880  -5.592  23.788  0.00  0.00    +0.123 C 
ATOM     16 BR   UNL     1       6.442  -5.308  25.633  0.00  0.00    -0.088 Br
ENDBRANCH  12  15
ENDBRANCH   7  12
ENDBRANCH   1   8
BRANCH   5  17
ATOM     17  C   UNL     1       8.067   1.464  24.928  0.00  0.00    +0.424 C 
ATOM     18  F   UNL     1       6.949   2.134  24.537  0.00  0.00    -0.166 F 
ATOM     19  F   UNL     1       8.997   2.401  25.240  0.00  0.00    -0.166 F 
ATOM     20  F   UNL     1       7.736   0.871  26.110  0.00  0.00    -0.166 F 
ENDBRANCH   5  17
BRANCH   4  21
ATOM     21  N   UNL     1       9.376   2.293  22.412  0.00  0.00    +0.080 N 
ATOM     22  O   UNL     1      10.516   2.703  22.678  0.00  0.00    +0.041 OA
ATOM     23  O   UNL     1       8.447   2.975  21.974  0.00  0.00    -0.576 OA
ENDBRANCH   4  21
TORSDOF 6
ENDMDL
