MODEL 1
REMARK VINA RESULT:      -7.4      0.000      0.000
REMARK  Name = 
REMARK  8 active torsions:
REMARK  status: ('A' for Active; 'I' for Inactive)
REMARK    1  A    between atoms: O_1  and  C_2
REMARK    2  A    between atoms: C_2  and  C_4
REMARK    3  A    between atoms: C_4  and  C_5
REMARK    4  A    between atoms: C_5  and  C_6
REMARK    5  A    between atoms: C_6  and  C_7
REMARK    6  A    between atoms: N_9  and  C_10
REMARK    7  A    between atoms: C_13  and  C_14
REMARK    8  A    between atoms: C_15  and  C_16
REMARK                            x       y       z     vdW  Elec       q    Type
REMARK                         _______ _______ _______ _____ _____    ______ ____
ROOT
ATOM      1  C   UNL     1      10.144   1.950  23.072  0.00  0.00    +0.033 A 
ATOM      2  C   UNL     1      10.417   0.937  23.996  0.00  0.00    +0.024 A 
ATOM      3  C   UNL     1      10.021  -0.377  23.745  0.00  0.00    +0.010 A 
ATOM      4  C   UNL     1       9.337  -0.698  22.568  0.00  0.00    -0.025 A 
ATOM      5  C   UNL     1       9.127   0.310  21.616  0.00  0.00    +0.010 A 
ATOM      6  C   UNL     1       9.558   1.624  21.852  0.00  0.00    +0.024 A 
ENDROOT
BRANCH   1   8
ATOM      7  C   UNL     1       9.504   4.033  24.154  0.00  0.00    +0.217 C 
ATOM      8  N   UNL     1      10.392   3.305  23.377  0.00  0.00    -0.285 N 
ATOM      9  H   UNL     1      10.973   3.828  22.734  0.00  0.00    +0.155 HD
ATOM     10  O   UNL     1       8.432   3.608  24.578  0.00  0.00    -0.275 OA
BRANCH   7  11
ATOM     11  C   UNL     1       9.925   5.473  24.388  0.00  0.00    +0.096 C 
BRANCH  11  12
ATOM     12  C   UNL     1      10.938   5.882  23.316  0.00  0.00    +0.020 C 
BRANCH  12  13
ATOM     13  C   UNL     1      12.364   5.958  23.834  0.00  0.00    +0.121 C 
BRANCH  13  14
ATOM     14  C   UNL     1      13.318   5.462  22.774  0.00  0.00    +0.305 C 
ATOM     15  O   UNL     1      13.066   5.457  21.581  0.00  0.00    -0.251 OA
BRANCH  14  16
ATOM     16  O   UNL     1      14.479   4.985  23.275  0.00  0.00    -0.481 OA
ATOM     17  H   UNL     1      15.203   5.637  23.304  0.00  0.00    +0.295 HD
ENDBRANCH  14  16
ENDBRANCH  13  14
ENDBRANCH  12  13
ENDBRANCH  11  12
ENDBRANCH   7  11
ENDBRANCH   1   8
BRANCH   4  18
ATOM     18  C   UNL     1       8.706  -2.015  22.381  0.00  0.00    +0.008 C 
ATOM     19  C   UNL     1       7.990  -2.656  23.322  0.00  0.00    +0.008 C 
BRANCH  19  20
ATOM     20  C   UNL     1       7.245  -3.904  23.092  0.00  0.00    -0.025 A 
ATOM     21  C   UNL     1       6.548  -4.472  24.168  0.00  0.00    +0.008 A 
ATOM     22  C   UNL     1       5.812  -5.649  24.007  0.00  0.00    +0.001 A 
ATOM     23  C   UNL     1       5.774  -6.280  22.765  0.00  0.00    +0.000 A 
ATOM     24  C   UNL     1       6.476  -5.738  21.691  0.00  0.00    +0.001 A 
ATOM     25  C   UNL     1       7.211  -4.560  21.855  0.00  0.00    +0.008 A 
ENDBRANCH  19  20
ENDBRANCH   4  18
TORSDOF 8
ENDMDL
MODEL 2
REMARK VINA RESULT:      -6.8      3.914      9.494
REMARK  Name = 
REMARK  8 active torsions:
REMARK  status: ('A' for Active; 'I' for Inactive)
REMARK    1  A    between atoms: O_1  and  C_2
REMARK    2  A    between atoms: C_2  and  C_4
REMARK    3  A    between atoms: C_4  and  C_5
REMARK    4  A    between atoms: C_5  and  C_6
REMARK    5  A    between atoms: C_6  and  C_7
REMARK    6  A    between atoms: N_9  and  C_10
REMARK    7  A    between atoms: C_13  and  C_14
REMARK    8  A    between atoms: C_15  and  C_16
REMARK                            x       y       z     vdW  Elec       q    Type
REMARK                         _______ _______ _______ _____ _____    ______ ____
ROOT
ATOM      1  C   UNL     1       8.774  -2.332  22.873  0.00  0.00    +0.033 A 
ATOM      2  C   UNL     1       9.175  -1.497  21.826  0.00  0.00    +0.024 A 
ATOM      3  C   UNL     1       9.861  -0.311  22.088  0.00  0.00    +0.010 A 
ATOM      4  C   UNL     1      10.149   0.064  23.404  0.00  0.00    -0.025 A 
ATOM      5  C   UNL     1       9.804  -0.811  24.444  0.00  0.00    +0.010 A 
ATOM      6  C   UNL     1       9.147  -2.022  24.178  0.00  0.00    +0.024 A 
ENDROOT
BRANCH   1   8
ATOM      7  C   UNL     1       6.573  -3.297  22.490  0.00  0.00    +0.217 C 
ATOM      8  N   UNL     1       7.943  -3.448  22.642  0.00  0.00    -0.285 N 
ATOM      9  H   UNL     1       8.270  -4.349  22.970  0.00  0.00    +0.155 HD
ATOM     10  O   UNL     1       5.969  -2.233  22.603  0.00  0.00    -0.275 OA
BRANCH   7  11
ATOM     11  C   UNL     1       5.831  -4.599  22.244  0.00  0.00    +0.096 C 
BRANCH  11  12
ATOM     12  C   UNL     1       6.365  -5.671  23.198  0.00  0.00    +0.020 C 
BRANCH  12  13
ATOM     13  C   UNL     1       5.622  -5.720  24.522  0.00  0.00    +0.121 C 
BRANCH  13  14
ATOM     14  C   UNL     1       6.607  -5.626  25.662  0.00  0.00    +0.305 C 
ATOM     15  O   UNL     1       6.412  -6.097  26.770  0.00  0.00    -0.251 OA
BRANCH  14  16
ATOM     16  O   UNL     1       7.725  -4.931  25.354  0.00  0.00    -0.481 OA
ATOM     17  H   UNL     1       7.868  -4.804  24.398  0.00  0.00    +0.295 HD
ENDBRANCH  14  16
ENDBRANCH  13  14
ENDBRANCH  12  13
ENDBRANCH  11  12
ENDBRANCH   7  11
ENDBRANCH   1   8
BRANCH   4  18
ATOM     18  C   UNL     1      10.659   1.407  23.726  0.00  0.00    +0.008 C 
ATOM     19  C   UNL     1      10.257   2.538  23.122  0.00  0.00    +0.008 C 
BRANCH  19  20
ATOM     20  C   UNL     1      10.662   3.892  23.536  0.00  0.00    -0.025 A 
ATOM     21  C   UNL     1      12.001   4.270  23.360  0.00  0.00    +0.008 A 
ATOM     22  C   UNL     1      12.441   5.546  23.723  0.00  0.00    +0.001 A 
ATOM     23  C   UNL     1      11.545   6.458  24.279  0.00  0.00    +0.000 A 
ATOM     24  C   UNL     1      10.216   6.090  24.477  0.00  0.00    +0.001 A 
ATOM     25  C   UNL     1       9.778   4.813  24.112  0.00  0.00    +0.008 A 
ENDBRANCH  19  20
ENDBRANCH   4  18
TORSDOF 8
ENDMDL
MODEL 3
REMARK VINA RESULT:      -6.8      1.468      1.891
REMARK  Name = 
REMARK  8 active torsions:
REMARK  status: ('A' for Active; 'I' for Inactive)
REMARK    1  A    between atoms: O_1  and  C_2
REMARK    2  A    between atoms: C_2  and  C_4
REMARK    3  A    between atoms: C_4  and  C_5
REMARK    4  A    between atoms: C_5  and  C_6
REMARK    5  A    between atoms: C_6  and  C_7
REMARK    6  A    between atoms: N_9  and  C_10
REMARK    7  A    between atoms: C_13  and  C_14
REMARK    8  A    between atoms: C_15  and  C_16
REMARK                            x       y       z     vdW  Elec       q    Type
REMARK                         _______ _______ _______ _____ _____    ______ ____
ROOT
ATOM      1  C   UNL     1       8.950   2.638  23.286  0.00  0.00    +0.033 A 
ATOM      2  C   UNL     1       9.150   1.941  22.091  0.00  0.00    +0.024 A 
ATOM      3  C   UNL     1       8.669   0.640  21.940  0.00  0.00    +0.010 A 
ATOM      4  C   UNL     1       7.986   0.012  22.987  0.00  0.00    -0.025 A 
ATOM      5  C   UNL     1       7.730   0.741  24.157  0.00  0.00    +0.010 A 
ATOM      6  C   UNL     1       8.182   2.062  24.295  0.00  0.00    +0.024 A 
ENDROOT
BRANCH   1   8
ATOM      7  C   UNL     1       8.894   5.070  23.245  0.00  0.00    +0.217 C 
ATOM      8  N   UNL     1       9.564   3.887  23.517  0.00  0.00    -0.285 N 
ATOM      9  H   UNL     1      10.576   3.919  23.499  0.00  0.00    +0.155 HD
ATOM     10  O   UNL     1       7.778   5.143  22.737  0.00  0.00    -0.275 OA
BRANCH   7  11
ATOM     11  C   UNL     1       9.698   6.320  23.555  0.00  0.00    +0.096 C 
BRANCH  11  12
ATOM     12  C   UNL     1      10.821   5.967  24.534  0.00  0.00    +0.020 C 
BRANCH  12  13
ATOM     13  C   UNL     1      12.204   6.311  24.010  0.00  0.00    +0.121 C 
BRANCH  13  14
ATOM     14  C   UNL     1      12.861   5.070  23.452  0.00  0.00    +0.305 C 
ATOM     15  O   UNL     1      12.286   4.006  23.301  0.00  0.00    -0.251 OA
BRANCH  14  16
ATOM     16  O   UNL     1      14.171   5.237  23.165  0.00  0.00    -0.481 OA
ATOM     17  H   UNL     1      14.596   5.976  23.639  0.00  0.00    +0.295 HD
ENDBRANCH  14  16
ENDBRANCH  13  14
ENDBRANCH  12  13
ENDBRANCH  11  12
ENDBRANCH   7  11
ENDBRANCH   1   8
BRANCH   4  18
ATOM     18  C   UNL     1       7.673  -1.426  22.946  0.00  0.00    +0.008 C 
ATOM     19  C   UNL     1       6.430  -1.932  22.866  0.00  0.00    +0.008 C 
BRANCH  19  20
ATOM     20  C   UNL     1       6.124  -3.361  22.685  0.00  0.00    -0.025 A 
ATOM     21  C   UNL     1       7.075  -4.170  22.045  0.00  0.00    +0.008 A 
ATOM     22  C   UNL     1       6.845  -5.536  21.857  0.00  0.00    +0.001 A 
ATOM     23  C   UNL     1       5.653  -6.108  22.299  0.00  0.00    +0.000 A 
ATOM     24  C   UNL     1       4.693  -5.313  22.919  0.00  0.00    +0.001 A 
ATOM     25  C   UNL     1       4.925  -3.947  23.108  0.00  0.00    +0.008 A 
ENDBRANCH  19  20
ENDBRANCH   4  18
TORSDOF 8
ENDMDL
MODEL 4
REMARK VINA RESULT:      -6.7      1.979      2.656
REMARK  Name = 
REMARK  8 active torsions:
REMARK  status: ('A' for Active; 'I' for Inactive)
REMARK    1  A    between atoms: O_1  and  C_2
REMARK    2  A    between atoms: C_2  and  C_4
REMARK    3  A    between atoms: C_4  and  C_5
REMARK    4  A    between atoms: C_5  and  C_6
REMARK    5  A    between atoms: C_6  and  C_7
REMARK    6  A    between atoms: N_9  and  C_10
REMARK    7  A    between atoms: C_13  and  C_14
REMARK    8  A    between atoms: C_15  and  C_16
REMARK                            x       y       z     vdW  Elec       q    Type
REMARK                         _______ _______ _______ _____ _____    ______ ____
ROOT
ATOM      1  C   UNL     1      10.287   2.008  23.003  0.00  0.00    +0.033 A 
ATOM      2  C   UNL     1      10.604   1.011  23.930  0.00  0.00    +0.024 A 
ATOM      3  C   UNL     1      10.219  -0.312  23.707  0.00  0.00    +0.010 A 
ATOM      4  C   UNL     1       9.501  -0.656  22.557  0.00  0.00    -0.025 A 
ATOM      5  C   UNL     1       9.247   0.337  21.601  0.00  0.00    +0.010 A 
ATOM      6  C   UNL     1       9.666   1.659  21.806  0.00  0.00    +0.024 A 
ENDROOT
BRANCH   1   8
ATOM      7  C   UNL     1       9.718   4.065  24.171  0.00  0.00    +0.217 C 
ATOM      8  N   UNL     1      10.525   3.370  23.283  0.00  0.00    -0.285 N 
ATOM      9  H   UNL     1      11.003   3.915  22.576  0.00  0.00    +0.155 HD
ATOM     10  O   UNL     1       8.723   3.602  24.723  0.00  0.00    -0.275 OA
BRANCH   7  11
ATOM     11  C   UNL     1      10.116   5.518  24.360  0.00  0.00    +0.096 C 
BRANCH  11  12
ATOM     12  C   UNL     1       9.540   6.352  23.212  0.00  0.00    +0.020 C 
BRANCH  12  13
ATOM     13  C   UNL     1       8.100   6.775  23.442  0.00  0.00    +0.121 C 
BRANCH  13  14
ATOM     14  C   UNL     1       7.191   6.025  22.496  0.00  0.00    +0.305 C 
ATOM     15  O   UNL     1       6.342   5.228  22.858  0.00  0.00    -0.251 OA
BRANCH  14  16
ATOM     16  O   UNL     1       7.432   6.292  21.193  0.00  0.00    -0.481 OA
ATOM     17  H   UNL     1       6.658   6.180  20.611  0.00  0.00    +0.295 HD
ENDBRANCH  14  16
ENDBRANCH  13  14
ENDBRANCH  12  13
ENDBRANCH  11  12
ENDBRANCH   7  11
ENDBRANCH   1   8
BRANCH   4  18
ATOM     18  C   UNL     1       8.883  -1.984  22.407  0.00  0.00    +0.008 C 
ATOM     19  C   UNL     1       8.025  -2.528  23.287  0.00  0.00    +0.008 C 
BRANCH  19  20
ATOM     20  C   UNL     1       7.302  -3.792  23.070  0.00  0.00    -0.025 A 
ATOM     21  C   UNL     1       6.626  -4.367  24.156  0.00  0.00    +0.008 A 
ATOM     22  C   UNL     1       5.912  -5.559  24.008  0.00  0.00    +0.001 A 
ATOM     23  C   UNL     1       5.874  -6.197  22.769  0.00  0.00    +0.000 A 
ATOM     24  C   UNL     1       6.555  -5.647  21.686  0.00  0.00    +0.001 A 
ATOM     25  C   UNL     1       7.269  -4.454  21.837  0.00  0.00    +0.008 A 
ENDBRANCH  19  20
ENDBRANCH   4  18
TORSDOF 8
ENDMDL
MODEL 5
REMARK VINA RESULT:      -6.6      1.404      2.812
REMARK  Name = 
REMARK  8 active torsions:
REMARK  status: ('A' for Active; 'I' for Inactive)
REMARK    1  A    between atoms: O_1  and  C_2
REMARK    2  A    between atoms: C_2  and  C_4
REMARK    3  A    between atoms: C_4  and  C_5
REMARK    4  A    between atoms: C_5  and  C_6
REMARK    5  A    between atoms: C_6  and  C_7
REMARK    6  A    between atoms: N_9  and  C_10
REMARK    7  A    between atoms: C_13  and  C_14
REMARK    8  A    between atoms: C_15  and  C_16
REMARK                            x       y       z     vdW  Elec       q    Type
REMARK                         _______ _______ _______ _____ _____    ______ ____
ROOT
ATOM      1  C   UNL     1       9.981   2.450  23.234  0.00  0.00    +0.033 A 
ATOM      2  C   UNL     1      10.223   1.612  24.327  0.00  0.00    +0.024 A 
ATOM      3  C   UNL     1      10.019   0.236  24.223  0.00  0.00    +0.010 A 
ATOM      4  C   UNL     1       9.563  -0.324  23.025  0.00  0.00    -0.025 A 
ATOM      5  C   UNL     1       9.388   0.514  21.914  0.00  0.00    +0.010 A 
ATOM      6  C   UNL     1       9.628   1.892  22.008  0.00  0.00    +0.024 A 
ENDROOT
BRANCH   1   8
ATOM      7  C   UNL     1      11.237   4.526  23.416  0.00  0.00    +0.217 C 
ATOM      8  N   UNL     1      10.025   3.854  23.364  0.00  0.00    -0.285 N 
ATOM      9  H   UNL     1       9.231   4.307  23.800  0.00  0.00    +0.155 HD
ATOM     10  O   UNL     1      12.339   3.984  23.422  0.00  0.00    -0.275 OA
BRANCH   7  11
ATOM     11  C   UNL     1      11.102   6.032  23.552  0.00  0.00    +0.096 C 
BRANCH  11  12
ATOM     12  C   UNL     1       9.619   6.399  23.652  0.00  0.00    +0.020 C 
BRANCH  12  13
ATOM     13  C   UNL     1       9.252   7.068  24.965  0.00  0.00    +0.121 C 
BRANCH  13  14
ATOM     14  C   UNL     1       8.847   6.021  25.975  0.00  0.00    +0.305 C 
ATOM     15  O   UNL     1       8.500   4.890  25.680  0.00  0.00    -0.251 OA
BRANCH  14  16
ATOM     16  O   UNL     1       8.868   6.467  27.250  0.00  0.00    -0.481 OA
ATOM     17  H   UNL     1       9.744   6.424  27.677  0.00  0.00    +0.295 HD
ENDBRANCH  14  16
ENDBRANCH  13  14
ENDBRANCH  12  13
ENDBRANCH  11  12
ENDBRANCH   7  11
ENDBRANCH   1   8
BRANCH   4  18
ATOM     18  C   UNL     1       9.119  -1.726  22.953  0.00  0.00    +0.008 C 
ATOM     19  C   UNL     1       7.856  -2.113  22.703  0.00  0.00    +0.008 C 
BRANCH  19  20
ATOM     20  C   UNL     1       7.440  -3.509  22.493  0.00  0.00    -0.025 A 
ATOM     21  C   UNL     1       6.491  -3.779  21.496  0.00  0.00    +0.008 A 
ATOM     22  C   UNL     1       6.067  -5.087  21.243  0.00  0.00    +0.001 A 
ATOM     23  C   UNL     1       6.582  -6.142  21.994  0.00  0.00    +0.000 A 
ATOM     24  C   UNL     1       7.512  -5.887  22.999  0.00  0.00    +0.001 A 
ATOM     25  C   UNL     1       7.935  -4.578  23.250  0.00  0.00    +0.008 A 
ENDBRANCH  19  20
ENDBRANCH   4  18
TORSDOF 8
ENDMDL
MODEL 6
REMARK VINA RESULT:      -6.6      3.816      9.585
REMARK  Name = 
REMARK  8 active torsions:
REMARK  status: ('A' for Active; 'I' for Inactive)
REMARK    1  A    between atoms: O_1  and  C_2
REMARK    2  A    between atoms: C_2  and  C_4
REMARK    3  A    between atoms: C_4  and  C_5
REMARK    4  A    between atoms: C_5  and  C_6
REMARK    5  A    between atoms: C_6  and  C_7
REMARK    6  A    between atoms: N_9  and  C_10
REMARK    7  A    between atoms: C_13  and  C_14
REMARK    8  A    between atoms: C_15  and  C_16
REMARK                            x       y       z     vdW  Elec       q    Type
REMARK                         _______ _______ _______ _____ _____    ______ ____
ROOT
ATOM      1  C   UNL     1       8.357  -1.737  22.538  0.00  0.00    +0.033 A 
ATOM      2  C   UNL     1       7.601  -0.610  22.874  0.00  0.00    +0.024 A 
ATOM      3  C   UNL     1       8.182   0.658  22.876  0.00  0.00    +0.010 A 
ATOM      4  C   UNL     1       9.533   0.819  22.549  0.00  0.00    -0.025 A 
ATOM      5  C   UNL     1      10.266  -0.306  22.147  0.00  0.00    +0.010 A 
ATOM      6  C   UNL     1       9.673  -1.577  22.110  0.00  0.00    +0.024 A 
ENDROOT
BRANCH   1   8
ATOM      7  C   UNL     1       8.237  -3.852  23.734  0.00  0.00    +0.217 C 
ATOM      8  N   UNL     1       7.836  -3.039  22.685  0.00  0.00    -0.285 N 
ATOM      9  H   UNL     1       7.496  -3.503  21.851  0.00  0.00    +0.155 HD
ATOM     10  O   UNL     1       9.096  -3.556  24.561  0.00  0.00    -0.275 OA
BRANCH   7  11
ATOM     11  C   UNL     1       7.575  -5.218  23.745  0.00  0.00    +0.096 C 
BRANCH  11  12
ATOM     12  C   UNL     1       7.566  -5.786  22.323  0.00  0.00    +0.020 C 
BRANCH  12  13
ATOM     13  C   UNL     1       6.201  -6.284  21.884  0.00  0.00    +0.121 C 
BRANCH  13  14
ATOM     14  C   UNL     1       5.194  -5.163  21.981  0.00  0.00    +0.305 C 
ATOM     15  O   UNL     1       4.193  -5.206  22.676  0.00  0.00    -0.251 OA
BRANCH  14  16
ATOM     16  O   UNL     1       5.485  -4.107  21.189  0.00  0.00    -0.481 OA
ATOM     17  H   UNL     1       5.466  -3.245  21.645  0.00  0.00    +0.295 HD
ENDBRANCH  14  16
ENDBRANCH  13  14
ENDBRANCH  12  13
ENDBRANCH  11  12
ENDBRANCH   7  11
ENDBRANCH   1   8
BRANCH   4  18
ATOM     18  C   UNL     1      10.228   2.099  22.765  0.00  0.00    +0.008 C 
ATOM     19  C   UNL     1       9.747   3.110  23.509  0.00  0.00    +0.008 C 
BRANCH  19  20
ATOM     20  C   UNL     1      10.500   4.331  23.838  0.00  0.00    -0.025 A 
ATOM     21  C   UNL     1       9.846   5.343  24.556  0.00  0.00    +0.008 A 
ATOM     22  C   UNL     1      10.514   6.520  24.908  0.00  0.00    +0.001 A 
ATOM     23  C   UNL     1      11.844   6.702  24.536  0.00  0.00    +0.000 A 
ATOM     24  C   UNL     1      12.501   5.713  23.808  0.00  0.00    +0.001 A 
ATOM     25  C   UNL     1      11.831   4.536  23.457  0.00  0.00    +0.008 A 
ENDBRANCH  19  20
ENDBRANCH   4  18
TORSDOF 8
ENDMDL
MODEL 7
REMARK VINA RESULT:      -6.6      4.547      9.667
REMARK  Name = 
REMARK  8 active torsions:
REMARK  status: ('A' for Active; 'I' for Inactive)
REMARK    1  A    between atoms: O_1  and  C_2
REMARK    2  A    between atoms: C_2  and  C_4
REMARK    3  A    between atoms: C_4  and  C_5
REMARK    4  A    between atoms: C_5  and  C_6
REMARK    5  A    between atoms: C_6  and  C_7
REMARK    6  A    between atoms: N_9  and  C_10
REMARK    7  A    between atoms: C_13  and  C_14
REMARK    8  A    between atoms: C_15  and  C_16
REMARK                            x       y       z     vdW  Elec       q    Type
REMARK                         _______ _______ _______ _____ _____    ______ ____
ROOT
ATOM      1  C   UNL     1       8.236  -2.601  25.082  0.00  0.00    +0.033 A 
ATOM      2  C   UNL     1       9.218  -2.517  24.091  0.00  0.00    +0.024 A 
ATOM      3  C   UNL     1       9.972  -1.353  23.937  0.00  0.00    +0.010 A 
ATOM      4  C   UNL     1       9.749  -0.250  24.767  0.00  0.00    -0.025 A 
ATOM      5  C   UNL     1       8.810  -0.366  25.801  0.00  0.00    +0.010 A 
ATOM      6  C   UNL     1       8.078  -1.548  25.981  0.00  0.00    +0.024 A 
ENDROOT
BRANCH   1   8
ATOM      7  C   UNL     1       7.480  -4.648  26.158  0.00  0.00    +0.217 C 
ATOM      8  N   UNL     1       7.358  -3.702  25.152  0.00  0.00    -0.285 N 
ATOM      9  H   UNL     1       6.921  -4.005  24.290  0.00  0.00    +0.155 HD
ATOM     10  O   UNL     1       8.366  -4.655  27.009  0.00  0.00    -0.275 OA
BRANCH   7  11
ATOM     11  C   UNL     1       6.452  -5.763  26.086  0.00  0.00    +0.096 C 
BRANCH  11  12
ATOM     12  C   UNL     1       5.288  -5.318  25.197  0.00  0.00    +0.020 C 
BRANCH  12  13
ATOM     13  C   UNL     1       5.027  -6.259  24.034  0.00  0.00    +0.121 C 
BRANCH  13  14
ATOM     14  C   UNL     1       5.609  -5.678  22.768  0.00  0.00    +0.305 C 
ATOM     15  O   UNL     1       6.106  -4.567  22.695  0.00  0.00    -0.251 OA
BRANCH  14  16
ATOM     16  O   UNL     1       5.494  -6.496  21.698  0.00  0.00    -0.481 OA
ATOM     17  H   UNL     1       5.841  -7.396  21.841  0.00  0.00    +0.295 HD
ENDBRANCH  14  16
ENDBRANCH  13  14
ENDBRANCH  12  13
ENDBRANCH  11  12
ENDBRANCH   7  11
ENDBRANCH   1   8
BRANCH   4  18
ATOM     18  C   UNL     1      10.358   1.060  24.483  0.00  0.00    +0.008 C 
ATOM     19  C   UNL     1       9.692   2.116  23.984  0.00  0.00    +0.008 C 
BRANCH  19  20
ATOM     20  C   UNL     1      10.265   3.464  23.831  0.00  0.00    -0.025 A 
ATOM     21  C   UNL     1      11.592   3.577  23.393  0.00  0.00    +0.008 A 
ATOM     22  C   UNL     1      12.186   4.830  23.217  0.00  0.00    +0.001 A 
ATOM     23  C   UNL     1      11.459   5.988  23.488  0.00  0.00    +0.000 A 
ATOM     24  C   UNL     1      10.145   5.890  23.940  0.00  0.00    +0.001 A 
ATOM     25  C   UNL     1       9.553   4.636  24.116  0.00  0.00    +0.008 A 
ENDBRANCH  19  20
ENDBRANCH   4  18
TORSDOF 8
ENDMDL
MODEL 8
REMARK VINA RESULT:      -6.5      4.400     10.078
REMARK  Name = 
REMARK  8 active torsions:
REMARK  status: ('A' for Active; 'I' for Inactive)
REMARK    1  A    between atoms: O_1  and  C_2
REMARK    2  A    between atoms: C_2  and  C_4
REMARK    3  A    between atoms: C_4  and  C_5
REMARK    4  A    between atoms: C_5  and  C_6
REMARK    5  A    between atoms: C_6  and  C_7
REMARK    6  A    between atoms: N_9  and  C_10
REMARK    7  A    between atoms: C_13  and  C_14
REMARK    8  A    between atoms: C_15  and  C_16
REMARK                            x       y       z     vdW  Elec       q    Type
REMARK                         _______ _______ _______ _____ _____    ______ ____
ROOT
ATOM      1  C   UNL     1       7.704  -2.343  22.582  0.00  0.00    +0.033 A 
ATOM      2  C   UNL     1       7.026  -1.245  23.119  0.00  0.00    +0.024 A 
ATOM      3  C   UNL     1       7.581   0.033  23.050  0.00  0.00    +0.010 A 
ATOM      4  C   UNL     1       8.829   0.232  22.451  0.00  0.00    -0.025 A 
ATOM      5  C   UNL     1       9.471  -0.862  21.855  0.00  0.00    +0.010 A 
ATOM      6  C   UNL     1       8.897  -2.142  21.891  0.00  0.00    +0.024 A 
ENDROOT
BRANCH   1   8
ATOM      7  C   UNL     1       6.272  -4.207  21.953  0.00  0.00    +0.217 C 
ATOM      8  N   UNL     1       7.239  -3.660  22.782  0.00  0.00    -0.285 N 
ATOM      9  H   UNL     1       7.311  -4.043  23.716  0.00  0.00    +0.155 HD
ATOM     10  O   UNL     1       5.702  -3.602  21.047  0.00  0.00    -0.275 OA
BRANCH   7  11
ATOM     11  C   UNL     1       5.890  -5.633  22.305  0.00  0.00    +0.096 C 
BRANCH  11  12
ATOM     12  C   UNL     1       5.653  -5.733  23.814  0.00  0.00    +0.020 C 
BRANCH  12  13
ATOM     13  C   UNL     1       4.394  -6.503  24.174  0.00  0.00    +0.121 C 
BRANCH  13  14
ATOM     14  C   UNL     1       3.272  -6.109  23.244  0.00  0.00    +0.305 C 
ATOM     15  O   UNL     1       2.854  -4.970  23.128  0.00  0.00    -0.251 OA
BRANCH  14  16
ATOM     16  O   UNL     1       2.739  -7.152  22.571  0.00  0.00    -0.481 OA
ATOM     17  H   UNL     1       3.298  -7.951  22.559  0.00  0.00    +0.295 HD
ENDBRANCH  14  16
ENDBRANCH  13  14
ENDBRANCH  12  13
ENDBRANCH  11  12
ENDBRANCH   7  11
ENDBRANCH   1   8
BRANCH   4  18
ATOM     18  C   UNL     1       9.541   1.515  22.568  0.00  0.00    +0.008 C 
ATOM     19  C   UNL     1       9.204   2.498  23.422  0.00  0.00    +0.008 C 
BRANCH  19  20
ATOM     20  C   UNL     1       9.995   3.720  23.638  0.00  0.00    -0.025 A 
ATOM     21  C   UNL     1      11.348   3.711  23.268  0.00  0.00    +0.008 A 
ATOM     22  C   UNL     1      12.147   4.846  23.438  0.00  0.00    +0.001 A 
ATOM     23  C   UNL     1      11.601   6.003  23.990  0.00  0.00    +0.000 A 
ATOM     24  C   UNL     1      10.263   6.021  24.378  0.00  0.00    +0.001 A 
ATOM     25  C   UNL     1       9.466   4.884  24.208  0.00  0.00    +0.008 A 
ENDBRANCH  19  20
ENDBRANCH   4  18
TORSDOF 8
ENDMDL
MODEL 9
REMARK VINA RESULT:      -6.4      4.316      9.642
REMARK  Name = 
REMARK  8 active torsions:
REMARK  status: ('A' for Active; 'I' for Inactive)
REMARK    1  A    between atoms: O_1  and  C_2
REMARK    2  A    between atoms: C_2  and  C_4
REMARK    3  A    between atoms: C_4  and  C_5
REMARK    4  A    between atoms: C_5  and  C_6
REMARK    5  A    between atoms: C_6  and  C_7
REMARK    6  A    between atoms: N_9  and  C_10
REMARK    7  A    between atoms: C_13  and  C_14
REMARK    8  A    between atoms: C_15  and  C_16
REMARK                            x       y       z     vdW  Elec       q    Type
REMARK                         _______ _______ _______ _____ _____    ______ ____
ROOT
ATOM      1  C   UNL     1       8.186  -2.639  24.856  0.00  0.00    +0.033 A 
ATOM      2  C   UNL     1       8.936  -2.449  23.691  0.00  0.00    +0.024 A 
ATOM      3  C   UNL     1       9.717  -1.305  23.529  0.00  0.00    +0.010 A 
ATOM      4  C   UNL     1       9.754  -0.326  24.528  0.00  0.00    -0.025 A 
ATOM      5  C   UNL     1       9.054  -0.555  25.720  0.00  0.00    +0.010 A 
ATOM      6  C   UNL     1       8.298  -1.722  25.899  0.00  0.00    +0.024 A 
ENDROOT
BRANCH   1   8
ATOM      7  C   UNL     1       5.977  -3.587  24.484  0.00  0.00    +0.217 C 
ATOM      8  N   UNL     1       7.270  -3.704  24.971  0.00  0.00    -0.285 N 
ATOM      9  H   UNL     1       7.417  -4.367  25.722  0.00  0.00    +0.155 HD
ATOM     10  O   UNL     1       5.505  -2.567  23.988  0.00  0.00    -0.275 OA
BRANCH   7  11
ATOM     11  C   UNL     1       5.125  -4.827  24.686  0.00  0.00    +0.096 C 
BRANCH  11  12
ATOM     12  C   UNL     1       5.944  -5.884  25.434  0.00  0.00    +0.020 C 
BRANCH  12  13
ATOM     13  C   UNL     1       5.422  -6.170  26.831  0.00  0.00    +0.121 C 
BRANCH  13  14
ATOM     14  C   UNL     1       6.457  -5.766  27.854  0.00  0.00    +0.305 C 
ATOM     15  O   UNL     1       6.887  -6.512  28.718  0.00  0.00    -0.251 OA
BRANCH  14  16
ATOM     16  O   UNL     1       6.844  -4.475  27.749  0.00  0.00    -0.481 OA
ATOM     17  H   UNL     1       7.744  -4.353  27.394  0.00  0.00    +0.295 HD
ENDBRANCH  14  16
ENDBRANCH  13  14
ENDBRANCH  12  13
ENDBRANCH  11  12
ENDBRANCH   7  11
ENDBRANCH   1   8
BRANCH   4  18
ATOM     18  C   UNL     1      10.376   0.988  24.293  0.00  0.00    +0.008 C 
ATOM     19  C   UNL     1       9.716   2.076  23.858  0.00  0.00    +0.008 C 
BRANCH  19  20
ATOM     20  C   UNL     1      10.306   3.420  23.756  0.00  0.00    -0.025 A 
ATOM     21  C   UNL     1       9.491   4.528  24.032  0.00  0.00    +0.008 A 
ATOM     22  C   UNL     1       9.999   5.829  23.963  0.00  0.00    +0.001 A 
ATOM     23  C   UNL     1      11.330   6.037  23.607  0.00  0.00    +0.000 A 
ATOM     24  C   UNL     1      12.146   4.948  23.313  0.00  0.00    +0.001 A 
ATOM     25  C   UNL     1      11.636   3.647  23.383  0.00  0.00    +0.008 A 
ENDBRANCH  19  20
ENDBRANCH   4  18
TORSDOF 8
ENDMDL
