MODEL 1
REMARK VINA RESULT:      43.2      0.000      0.000
REMARK  Name = 
REMARK  24 active torsions:
REMARK  status: ('A' for Active; 'I' for Inactive)
REMARK    1  A    between atoms: C_1  and  N_2
REMARK    2  A    between atoms: N_2  and  CA_3
REMARK    3  A    between atoms: CA_3  and  CB_5
REMARK    4  A    between atoms: CA_3  and  C_9
REMARK    5  A    between atoms: CB_5  and  CG_6
REMARK    6  A    between atoms: CG_6  and  CD1_7
REMARK    7  A    between atoms: CG_6  and  CD2_8
REMARK    8  A    between atoms: N_11  and  C_12
REMARK    9  A    between atoms: C_14  and  O_16
REMARK   10  A    between atoms: C_35  and  O_37
REMARK   11  A    between atoms: O_37  and  C_38
REMARK   12  A    between atoms: C_41  and  C_42
REMARK   13  A    between atoms: C_41  and  N_43
REMARK   14  A    between atoms: C_44  and  O_45
REMARK   15  A    between atoms: C_44  and  O_46
REMARK   16  A    between atoms: C_47  and  C_49
REMARK   17  A    between atoms: CA_66  and  CB_68
REMARK   18  A    between atoms: CB_68  and  CG_69
REMARK   19  A    between atoms: C_78  and  O_79
REMARK   20  A    between atoms: C_83  and  O_84
REMARK   21  A    between atoms: C_86  and  O_87
REMARK   22  A    between atoms: C_90  and  C_95
REMARK   23  A    between atoms: C_95  and  O_96
REMARK   24  A    between atoms: C_98  and  O_99
REMARK                            x       y       z     vdW  Elec       q    Type
REMARK                         _______ _______ _______ _____ _____    ______ ____
ROOT
ATOM      1  C   UNK A   2      13.007  -0.641  23.087  0.00  0.00    +0.192 C 
ATOM      2  C   UNK A   2      12.714   0.989  23.773  0.00  0.00    +0.237 C 
ATOM      3  O   UNK A   2      12.663   1.098  25.007  0.00  0.00    -0.274 OA
ATOM      4  N   ASN A   3      12.446   2.175  23.077  0.00  0.00    -0.302 N 
ATOM      5  H   ASN A   3      13.033   2.336  22.259  0.00  0.00    +0.150 HD
ATOM      6  CA  ASN A   3      11.686   3.508  23.637  0.00  0.00    +0.168 C 
ATOM      7  C   ASN A   3      10.149   3.653  24.446  0.00  0.00    +0.235 C 
ATOM      8  O   ASN A   3       9.590   4.659  23.942  0.00  0.00    -0.274 OA
ATOM      9  N   UNK A   4       9.518   2.977  25.713  0.00  0.00    -0.299 N 
ATOM     10  H   UNK A   4       9.431   3.811  26.300  0.00  0.00    +0.150 HD
ATOM     11  C   UNK A   4       7.752   2.425  25.882  0.00  0.00    +0.190 C 
ATOM     12  C   UNK A   4       7.726   2.938  24.107  0.00  0.00    -0.011 A 
ATOM     13  C   UNK A   4       7.077   4.004  23.585  0.00  0.00    +0.056 A 
ATOM     14  C   UNK A   4       5.890   3.899  24.140  0.00  0.00    +0.174 A 
ATOM     15  C   UNK A   4       5.543   2.453  23.951  0.00  0.00    +0.202 A 
ATOM     16  C   UNK A   4       6.510   1.484  23.393  0.00  0.00    +0.174 A 
ATOM     17  O   UNK A   4       6.587   0.107  23.314  0.00  0.00    -0.451 OA
ATOM     18  C   UNK A   4       7.870  -0.525  23.485  0.00  0.00    +0.147 A 
ATOM     19  C   UNK A   4       8.079  -1.867  23.204  0.00  0.00    +0.083 A 
ATOM     20 CL   UNK A   4       6.793  -2.845  22.618  0.00  0.00    -0.080 Cl
ATOM     21  C   UNK A   2       9.391  -2.452  23.328  0.00  0.00    +0.030 A 
ATOM     22  C   UNK A   2      10.514  -1.697  23.740  0.00  0.00    -0.015 A 
ATOM     23  C   UNK A   2      10.203  -0.534  24.341  0.00  0.00    +0.010 A 
ATOM     24  C   UNK A   4       9.016   0.075  24.028  0.00  0.00    +0.048 A 
ATOM     25  O   UNK A   4       6.503   4.518  25.344  0.00  0.00    -0.451 OA
ATOM     26  C   UNK A   4       5.953   5.363  26.273  0.00  0.00    +0.147 A 
ATOM     27  C   UNK A   4       6.150   4.764  27.487  0.00  0.00    +0.083 A 
ATOM     28 CL   UNK A   4       7.741   4.528  28.151  0.00  0.00    -0.080 Cl
ATOM     29  C   UNK A   4       5.098   3.939  27.865  0.00  0.00    +0.030 A 
ATOM     30  C   UNK A   4       3.959   3.788  27.000  0.00  0.00    -0.015 A 
ATOM     31  C   UNK A   4       2.916   2.521  26.642  0.00  0.00    +0.180 C 
ATOM     32  C   UNK A   4       3.397   0.836  26.368  0.00  0.00    +0.192 C 
ATOM     33  C   UNK A   4       3.659  -0.580  25.458  0.00  0.00    +0.237 C 
ATOM     34  O   ACE A   6       3.566  -0.629  24.254  0.00  0.00    -0.274 OA
ATOM     35  N   UNK A   7       4.359  -1.780  26.131  0.00  0.00    -0.297 N 
ATOM     36  H   UNK A   7       5.064  -1.467  26.818  0.00  0.00    +0.150 HD
ATOM     37  C   UNK A   7       3.492  -2.945  26.681  0.00  0.00    +0.213 C 
ATOM     38  C   UNK A   7       3.979  -4.141  27.705  0.00  0.00    -0.002 A 
ATOM     39  C   UNK A   7       3.112  -4.652  28.776  0.00  0.00    +0.033 A 
ATOM     40  C   UNK A   7       3.096  -6.071  29.011  0.00  0.00    +0.128 A 
ATOM     41  C   UNK A   7       3.997  -6.924  28.371  0.00  0.00    +0.091 A 
ATOM     42  C   UNK A   7       4.994  -6.365  27.588  0.00  0.00    +0.121 A 
ATOM     43  C   UNK A   7       2.442  -3.615  29.644  0.00  0.00    +0.028 A 
ATOM     44  C   UNK A   7       3.244  -2.373  29.834  0.00  0.00    +0.018 A 
ATOM     45  C   UNK A   7       2.803  -1.017  29.987  0.00  0.00    -0.018 A 
ATOM     46  C   UNK A   7       1.361  -1.115  30.300  0.00  0.00    +0.009 A 
ATOM     47  C   UNK A   7       0.588  -2.433  30.449  0.00  0.00    +0.046 A 
ATOM     48  C   UNK A   7       4.026   0.394  29.559  0.00  0.00    +0.190 C 
ATOM     49  N   UNK A   7       5.267   1.265  28.314  0.00  0.00    -0.299 N 
ATOM     50  H   ACE A   5       4.701   2.046  28.187  0.00  0.00    +0.150 HD
ATOM     51  C   UNK A   7       3.926  -0.262  28.288  0.00  0.00    +0.239 C 
ATOM     52  O   ACE A   5       4.835  -1.008  28.084  0.00  0.00    -0.273 OA
ATOM     53  C   UNK A   7       1.134  -3.673  30.114  0.00  0.00    +0.125 A 
ATOM     54  C   UNK A   7       5.019  -4.994  27.290  0.00  0.00    +0.052 A 
ATOM     55  N   UNK A   4       2.908   0.118  27.481  0.00  0.00    -0.300 N 
ATOM     56  H   UNK A   4       1.968   0.356  27.817  0.00  0.00    +0.150 HD
ATOM     57  C   UNK A   4       3.692   4.998  26.332  0.00  0.00    +0.010 A 
ATOM     58  C   UNK A   4       4.722   5.866  26.019  0.00  0.00    +0.048 A 
ATOM     59  C   UNK A   4       7.610   2.127  23.084  0.00  0.00    +0.056 A 
ATOM     60  C   UNK A   4       6.604   1.258  27.124  0.00  0.00    +0.239 C 
ATOM     61  O   UNK A   4       7.056   0.080  27.175  0.00  0.00    -0.273 OA
ATOM     62  C   UNK A   2      12.007  -1.938  23.611  0.00  0.00    +0.174 C 
ENDROOT
BRANCH   1  64
ATOM     63  C   LEU A   1      14.363  -2.222  21.582  0.00  0.00    +0.231 C 
ATOM     64  N   UNK A   2      13.519  -1.080  21.686  0.00  0.00    -0.300 N 
ATOM     65  H   UNK A   2      12.732  -1.208  21.057  0.00  0.00    +0.150 HD
ATOM     66  O   LEU A   1      14.926  -2.686  22.581  0.00  0.00    -0.274 OA
BRANCH  63  67
ATOM     67  CA  LEU A   1      14.486  -3.012  20.169  0.00  0.00    +0.140 C 
BRANCH  67  69
ATOM     68  C   ACE A   0      13.523  -5.162  19.375  0.00  0.00    +0.101 C 
ATOM     69  N   LEU A   1      13.256  -3.836  19.924  0.00  0.00    -0.309 NA
ATOM     70  H   LEU A   1      12.763  -3.944  20.813  0.00  0.00    +0.122 HD
ENDBRANCH  67  69
BRANCH  67  71
ATOM     71  CB  LEU A   1      15.752  -3.863  19.934  0.00  0.00    +0.031 C 
BRANCH  71  72
ATOM     72  CG  LEU A   1      15.625  -5.404  20.191  0.00  0.00    -0.015 C 
ATOM     73  CD2 LEU A   1      15.919  -5.718  21.663  0.00  0.00    +0.007 C 
ATOM     74  CD1 LEU A   1      16.516  -6.262  19.290  0.00  0.00    +0.007 C 
ENDBRANCH  71  72
ENDBRANCH  67  71
ENDBRANCH  63  67
ENDBRANCH   1  64
BRANCH  62  75
ATOM     75  O   UNK A   2      12.130  -3.029  22.665  0.00  0.00    -0.385 OA
ATOM     76  H   UNK A   2      12.171  -2.637  21.775  0.00  0.00    +0.210 HD
ENDBRANCH  62  75
BRANCH  53  77
ATOM     77  O   UNK A   7       0.444  -4.863  30.169  0.00  0.00    -0.506 OA
ATOM     78  H   UNK A   7      -0.533  -4.786  30.115  0.00  0.00    +0.292 HD
ENDBRANCH  53  77
BRANCH  42  79
ATOM     79  O   UNK A   7       5.948  -7.155  27.011  0.00  0.00    -0.507 OA
ATOM     80  H   UNK A   7       5.695  -8.087  27.130  0.00  0.00    +0.292 HD
ENDBRANCH  42  79
BRANCH  40  81
ATOM     81  O   UNK A   7       2.238  -6.755  29.839  0.00  0.00    -0.506 OA
ATOM     82  H   UNK A   7       1.989  -7.589  29.401  0.00  0.00    +0.292 HD
ENDBRANCH  40  81
BRANCH  37  83
ATOM     83  C   UNK A   7       3.285  -3.624  25.289  0.00  0.00    +0.330 C 
ATOM     84  O   UNK A   7       2.191  -3.617  24.762  0.00  0.00    -0.249 OA
BRANCH  83  85
ATOM     85  O   UNK A   7       4.313  -4.396  24.958  0.00  0.00    -0.479 OA
ATOM     86  H   UNK A   7       4.120  -4.718  24.041  0.00  0.00    +0.295 HD
ENDBRANCH  83  85
ENDBRANCH  37  83
BRANCH  15  87
ATOM     87  O   UNK A   4       4.315   2.071  24.288  0.00  0.00    -0.501 OA
ATOM     88  H   UNK A   4       3.896   1.801  23.451  0.00  0.00    +0.292 HD
ENDBRANCH  15  87
BRANCH  31  89
ATOM     89  O   UNK A   4       2.089   3.061  25.570  0.00  0.00    -0.341 OA
BRANCH  89  90
ATOM     90  C   UNK A   4       1.752   4.450  25.653  0.00  0.00    +0.254 C 
ATOM     91  O   UNK A   4       0.501   4.679  25.019  0.00  0.00    -0.341 OA
ATOM     92  C   UNK A   4       0.486   4.785  23.578  0.00  0.00    +0.203 C 
ATOM     93  C   UNK A   4       0.470   3.433  22.852  0.00  0.00    +0.046 C 
ATOM     94  C   UNK A   4       1.570   5.741  23.001  0.00  0.00    +0.283 C 
ATOM     95  C   UNK A   4       2.996   5.386  23.565  0.00  0.00    +0.098 C 
ATOM     96  C   UNK A   4       4.028   6.407  23.016  0.00  0.00    +0.036 C 
ATOM     97  C   UNK A   4       2.872   5.400  25.112  0.00  0.00    +0.090 C 
BRANCH  95  98
ATOM     98  N   UNK A   4       3.545   4.067  23.180  0.00  0.00    -0.319 NA
ATOM     99  H   UNK A   4       2.856   3.566  22.615  0.00  0.00    +0.119 HD
ATOM    100  H   UNK A   4       4.364   4.171  22.584  0.00  0.00    +0.119 HD
ENDBRANCH  95  98
BRANCH  94 101
ATOM    101  O   UNK A   4       1.506   5.685  21.580  0.00  0.00    -0.502 OA
ATOM    102  H   UNK A   4       2.272   6.148  21.212  0.00  0.00    +0.288 HD
ENDBRANCH  94 101
BRANCH  94 103
ATOM    103  O   UNK A   4       1.293   7.100  23.354  0.00  0.00    -0.502 OA
ATOM    104  H   UNK A   4       0.388   7.152  23.701  0.00  0.00    +0.288 HD
ENDBRANCH  94 103
ENDBRANCH  89  90
ENDBRANCH  31  89
BRANCH   6 105
ATOM    105  CB  ASN A   3      12.449   5.039  23.564  0.00  0.00    +0.127 C 
BRANCH 105 106
ATOM    106  CG  ASN A   3      13.643   5.495  22.585  0.00  0.00    +0.213 C 
ATOM    107  OD1 ASN A   3      13.407   5.944  21.456  0.00  0.00    -0.276 OA
ATOM    108  ND2 ASN A   3      14.926   5.609  22.981  0.00  0.00    -0.329 N 
ATOM    109 HD21 ASN A   3      15.582   5.901  22.236  0.00  0.00    +0.145 HD
ATOM    110 HD22 ASN A   3      15.302   4.919  23.611  0.00  0.00    +0.145 HD
ENDBRANCH 105 106
ENDBRANCH   6 105
TORSDOF 19
ENDMDL
MODEL 2
REMARK VINA RESULT:      44.6      3.488      9.947
REMARK  Name = 
REMARK  24 active torsions:
REMARK  status: ('A' for Active; 'I' for Inactive)
REMARK    1  A    between atoms: C_1  and  N_2
REMARK    2  A    between atoms: N_2  and  CA_3
REMARK    3  A    between atoms: CA_3  and  CB_5
REMARK    4  A    between atoms: CA_3  and  C_9
REMARK    5  A    between atoms: CB_5  and  CG_6
REMARK    6  A    between atoms: CG_6  and  CD1_7
REMARK    7  A    between atoms: CG_6  and  CD2_8
REMARK    8  A    between atoms: N_11  and  C_12
REMARK    9  A    between atoms: C_14  and  O_16
REMARK   10  A    between atoms: C_35  and  O_37
REMARK   11  A    between atoms: O_37  and  C_38
REMARK   12  A    between atoms: C_41  and  C_42
REMARK   13  A    between atoms: C_41  and  N_43
REMARK   14  A    between atoms: C_44  and  O_45
REMARK   15  A    between atoms: C_44  and  O_46
REMARK   16  A    between atoms: C_47  and  C_49
REMARK   17  A    between atoms: CA_66  and  CB_68
REMARK   18  A    between atoms: CB_68  and  CG_69
REMARK   19  A    between atoms: C_78  and  O_79
REMARK   20  A    between atoms: C_83  and  O_84
REMARK   21  A    between atoms: C_86  and  O_87
REMARK   22  A    between atoms: C_90  and  C_95
REMARK   23  A    between atoms: C_95  and  O_96
REMARK   24  A    between atoms: C_98  and  O_99
REMARK                            x       y       z     vdW  Elec       q    Type
REMARK                         _______ _______ _______ _____ _____    ______ ____
ROOT
ATOM      1  C   UNK A   2       1.457   4.082  27.007  0.00  0.00    +0.192 C 
ATOM      2  C   UNK A   2       2.485   4.443  25.583  0.00  0.00    +0.237 C 
ATOM      3  O   UNK A   2       2.155   3.958  24.491  0.00  0.00    -0.274 OA
ATOM      4  N   ASN A   3       3.692   5.155  25.558  0.00  0.00    -0.302 N 
ATOM      5  H   ASN A   3       3.699   6.011  26.111  0.00  0.00    +0.150 HD
ATOM      6  CA  ASN A   3       4.878   5.063  24.439  0.00  0.00    +0.168 C 
ATOM      7  C   ASN A   3       5.707   3.665  23.809  0.00  0.00    +0.235 C 
ATOM      8  O   ASN A   3       6.919   3.985  23.743  0.00  0.00    -0.274 OA
ATOM      9  N   UNK A   4       5.230   2.319  23.157  0.00  0.00    -0.299 N 
ATOM     10  H   UNK A   4       5.631   2.454  22.225  0.00  0.00    +0.150 HD
ATOM     11  C   UNK A   4       5.976   0.645  23.458  0.00  0.00    +0.190 C 
ATOM     12  C   UNK A   4       6.959   1.622  24.679  0.00  0.00    -0.011 A 
ATOM     13  C   UNK A   4       8.278   1.915  24.603  0.00  0.00    +0.056 A 
ATOM     14  C   UNK A   4       8.798   0.749  24.292  0.00  0.00    +0.174 A 
ATOM     15  C   UNK A   4       8.140  -0.195  25.253  0.00  0.00    +0.202 A 
ATOM     16  C   UNK A   4       7.057   0.241  26.158  0.00  0.00    +0.174 A 
ATOM     17  O   UNK A   4       6.125  -0.396  26.953  0.00  0.00    -0.451 OA
ATOM     18  C   UNK A   4       4.797   0.156  27.040  0.00  0.00    +0.147 A 
ATOM     19  C   UNK A   4       3.871  -0.282  27.976  0.00  0.00    +0.083 A 
ATOM     20 CL   UNK A   4       4.285  -1.515  29.099  0.00  0.00    -0.080 Cl
ATOM     21  C   UNK A   2       2.572   0.336  28.074  0.00  0.00    +0.030 A 
ATOM     22  C   UNK A   2       2.181   1.402  27.231  0.00  0.00    -0.015 A 
ATOM     23  C   UNK A   2       2.942   1.538  26.129  0.00  0.00    +0.010 A 
ATOM     24  C   UNK A   4       4.242   1.104  26.167  0.00  0.00    +0.048 A 
ATOM     25  O   UNK A   4       8.376   1.040  22.897  0.00  0.00    -0.451 OA
ATOM     26  C   UNK A   4       8.970   0.696  21.710  0.00  0.00    +0.147 A 
ATOM     27  C   UNK A   4       8.015   0.030  20.992  0.00  0.00    +0.083 A 
ATOM     28 CL   UNK A   4       6.570   0.817  20.426  0.00  0.00    -0.080 Cl
ATOM     29  C   UNK A   4       8.033  -1.343  21.203  0.00  0.00    +0.030 A 
ATOM     30  C   UNK A   4       8.994  -1.917  22.106  0.00  0.00    -0.015 A 
ATOM     31  C   UNK A   4       8.975  -3.216  23.172  0.00  0.00    +0.180 C 
ATOM     32  C   UNK A   4       7.641  -3.635  24.262  0.00  0.00    +0.192 C 
ATOM     33  C   UNK A   4       6.853  -3.814  25.763  0.00  0.00    +0.237 C 
ATOM     34  O   ACE A   6       7.308  -3.417  26.809  0.00  0.00    -0.274 OA
ATOM     35  N   UNK A   7       5.359  -4.202  25.778  0.00  0.00    -0.297 N 
ATOM     36  H   UNK A   7       4.856  -3.793  24.974  0.00  0.00    +0.150 HD
ATOM     37  C   UNK A   7       4.970  -5.687  26.011  0.00  0.00    +0.213 C 
ATOM     38  C   UNK A   7       3.495  -6.376  25.747  0.00  0.00    -0.002 A 
ATOM     39  C   UNK A   7       3.354  -7.728  25.192  0.00  0.00    +0.033 A 
ATOM     40  C   UNK A   7       2.344  -8.585  25.754  0.00  0.00    +0.128 A 
ATOM     41  C   UNK A   7       1.410  -8.103  26.672  0.00  0.00    +0.091 A 
ATOM     42  C   UNK A   7       1.395  -6.745  26.949  0.00  0.00    +0.121 A 
ATOM     43  C   UNK A   7       4.176  -8.035  23.965  0.00  0.00    +0.028 A 
ATOM     44  C   UNK A   7       4.398  -6.860  23.074  0.00  0.00    +0.018 A 
ATOM     45  C   UNK A   7       5.531  -6.535  22.258  0.00  0.00    -0.018 A 
ATOM     46  C   UNK A   7       6.312  -7.789  22.167  0.00  0.00    +0.009 A 
ATOM     47  C   UNK A   7       5.901  -9.121  22.811  0.00  0.00    +0.046 A 
ATOM     48  C   UNK A   7       5.804  -4.705  21.761  0.00  0.00    +0.190 C 
ATOM     49  N   UNK A   7       5.997  -2.813  22.240  0.00  0.00    -0.299 N 
ATOM     50  H   ACE A   5       6.933  -2.770  21.977  0.00  0.00    +0.150 HD
ATOM     51  C   UNK A   7       5.886  -4.606  23.189  0.00  0.00    +0.239 C 
ATOM     52  O   ACE A   5       4.863  -4.240  23.684  0.00  0.00    -0.273 OA
ATOM     53  C   UNK A   7       4.838  -9.232  23.709  0.00  0.00    +0.125 A 
ATOM     54  C   UNK A   7       2.389  -5.882  26.465  0.00  0.00    +0.052 A 
ATOM     55  N   UNK A   4       7.097  -4.833  23.750  0.00  0.00    -0.300 N 
ATOM     56  H   UNK A   4       7.758  -5.545  23.420  0.00  0.00    +0.150 HD
ATOM     57  C   UNK A   4      10.206  -1.204  22.045  0.00  0.00    +0.010 A 
ATOM     58  C   UNK A   4      10.207   0.150  21.758  0.00  0.00    +0.048 A 
ATOM     59  C   UNK A   4       6.862   1.527  25.982  0.00  0.00    +0.056 A 
ATOM     60  C   UNK A   4       5.527  -1.334  23.133  0.00  0.00    +0.239 C 
ATOM     61  O   UNK A   4       4.432  -1.640  23.681  0.00  0.00    -0.273 OA
ATOM     62  C   UNK A   2       1.079   2.438  27.343  0.00  0.00    +0.174 C 
ENDROOT
BRANCH   1  64
ATOM     63  C   LEU A   1       2.489   5.009  29.169  0.00  0.00    +0.231 C 
ATOM     64  N   UNK A   2       1.324   4.805  28.377  0.00  0.00    -0.300 N 
ATOM     65  H   UNK A   2       0.865   5.702  28.250  0.00  0.00    +0.150 HD
ATOM     66  O   LEU A   1       3.530   4.381  28.940  0.00  0.00    -0.274 OA
BRANCH  63  67
ATOM     67  CA  LEU A   1       2.504   6.174  30.301  0.00  0.00    +0.140 C 
BRANCH  67  69
ATOM     68  C   ACE A   0       0.444   6.722  29.023  0.00  0.00    +0.101 C 
ATOM     69  N   LEU A   1       1.345   7.107  30.104  0.00  0.00    -0.309 NA
ATOM     70  H   LEU A   1       0.812   7.141  30.977  0.00  0.00    +0.122 HD
ENDBRANCH  67  69
BRANCH  67  71
ATOM     71  CB  LEU A   1       3.809   6.978  30.482  0.00  0.00    +0.031 C 
BRANCH  71  72
ATOM     72  CG  LEU A   1       4.739   7.107  29.228  0.00  0.00    -0.015 C 
ATOM     73  CD2 LEU A   1       4.264   6.158  28.121  0.00  0.00    +0.007 C 
ATOM     74  CD1 LEU A   1       6.221   6.860  29.521  0.00  0.00    +0.007 C 
ENDBRANCH  71  72
ENDBRANCH  67  71
ENDBRANCH  63  67
ENDBRANCH   1  64
BRANCH  62  75
ATOM     75  O   UNK A   2       0.610   2.341  28.710  0.00  0.00    -0.385 OA
ATOM     76  H   UNK A   2      -0.339   2.556  28.707  0.00  0.00    +0.210 HD
ENDBRANCH  62  75
BRANCH  53  77
ATOM     77  O   UNK A   7       4.490 -10.396  24.357  0.00  0.00    -0.506 OA
ATOM     78  H   UNK A   7       3.715 -10.868  23.985  0.00  0.00    +0.292 HD
ENDBRANCH  53  77
BRANCH  42  79
ATOM     79  O   UNK A   7       0.446  -6.216  27.777  0.00  0.00    -0.507 OA
ATOM     80  H   UNK A   7       0.835  -5.468  28.261  0.00  0.00    +0.292 HD
ENDBRANCH  42  79
BRANCH  40  81
ATOM     81  O   UNK A   7       2.168  -9.924  25.494  0.00  0.00    -0.506 OA
ATOM     82  H   UNK A   7       2.532 -10.115  24.610  0.00  0.00    +0.292 HD
ENDBRANCH  40  81
BRANCH  37  83
ATOM     83  C   UNK A   7       5.151  -5.630  27.562  0.00  0.00    +0.330 C 
ATOM     84  O   UNK A   7       4.531  -4.822  28.221  0.00  0.00    -0.249 OA
BRANCH  83  85
ATOM     85  O   UNK A   7       6.210  -6.324  27.961  0.00  0.00    -0.479 OA
ATOM     86  H   UNK A   7       6.965  -5.681  27.962  0.00  0.00    +0.295 HD
ENDBRANCH  83  85
ENDBRANCH  37  83
BRANCH  15  87
ATOM     87  O   UNK A   4       8.582  -1.449  25.276  0.00  0.00    -0.501 OA
ATOM     88  H   UNK A   4       9.551  -1.372  25.344  0.00  0.00    +0.292 HD
ENDBRANCH  15  87
BRANCH  31  89
ATOM     89  O   UNK A   4      10.259  -3.107  23.855  0.00  0.00    -0.341 OA
BRANCH  89  90
ATOM     90  C   UNK A   4      11.004  -4.319  24.022  0.00  0.00    +0.254 C 
ATOM     91  O   UNK A   4      10.175  -5.436  23.733  0.00  0.00    -0.341 OA
ATOM     92  C   UNK A   4       9.263  -5.881  24.762  0.00  0.00    +0.203 C 
ATOM     93  C   UNK A   4       7.956  -5.081  24.828  0.00  0.00    +0.046 C 
ATOM     94  C   UNK A   4       9.918  -6.040  26.164  0.00  0.00    +0.283 C 
ATOM     95  C   UNK A   4      10.700  -4.737  26.574  0.00  0.00    +0.098 C 
ATOM     96  C   UNK A   4      11.391  -4.970  27.944  0.00  0.00    +0.036 C 
ATOM     97  C   UNK A   4      11.695  -4.441  25.420  0.00  0.00    +0.090 C 
BRANCH  95  98
ATOM     98  N   UNK A   4       9.886  -3.519  26.776  0.00  0.00    -0.319 NA
ATOM     99  H   UNK A   4       9.548  -3.184  25.872  0.00  0.00    +0.119 HD
ATOM    100  H   UNK A   4       9.051  -3.723  27.323  0.00  0.00    +0.119 HD
ENDBRANCH  95  98
BRANCH  94 101
ATOM    101  O   UNK A   4       8.902  -6.394  27.096  0.00  0.00    -0.502 OA
ATOM    102  H   UNK A   4       9.016  -7.321  27.348  0.00  0.00    +0.288 HD
ENDBRANCH  94 101
BRANCH  94 103
ATOM    103  O   UNK A   4      10.854  -7.124  26.172  0.00  0.00    -0.502 OA
ATOM    104  H   UNK A   4      11.735  -6.775  25.965  0.00  0.00    +0.288 HD
ENDBRANCH  94 103
ENDBRANCH  89  90
ENDBRANCH  31  89
BRANCH   6 105
ATOM    105  CB  ASN A   3       5.409   6.469  23.618  0.00  0.00    +0.127 C 
BRANCH 105 106
ATOM    106  CG  ASN A   3       6.828   6.709  22.899  0.00  0.00    +0.213 C 
ATOM    107  OD1 ASN A   3       7.817   7.082  23.543  0.00  0.00    -0.276 OA
ATOM    108  ND2 ASN A   3       7.089   6.340  21.628  0.00  0.00    -0.329 N 
ATOM    109 HD21 ASN A   3       8.043   6.571  21.301  0.00  0.00    +0.145 HD
ATOM    110 HD22 ASN A   3       6.374   6.466  20.931  0.00  0.00    +0.145 HD
ENDBRANCH 105 106
ENDBRANCH   6 105
TORSDOF 19
ENDMDL
