MODEL 1
REMARK VINA RESULT:      -5.2      0.000      0.000
REMARK  Name = 
REMARK  6 active torsions:
REMARK  status: ('A' for Active; 'I' for Inactive)
REMARK    1  A    between atoms: C_1  and  C_2
REMARK    2  A    between atoms: C_2  and  C_3
REMARK    3  A    between atoms: C_2  and  C_4
REMARK    4  A    between atoms: C_2  and  C_5
REMARK    5  A    between atoms: C_7  and  O_8
REMARK    6  A    between atoms: C_11  and  O_12
REMARK                            x       y       z     vdW  Elec       q    Type
REMARK                         _______ _______ _______ _____ _____    ______ ____
ROOT
ATOM      1  C   UNL     1      10.405   4.094  23.585  0.00  0.00    +0.003 A 
ATOM      2  C   UNL     1       9.991   5.267  24.251  0.00  0.00    +0.121 A 
ATOM      3  C   UNL     1      10.875   6.319  24.523  0.00  0.00    +0.049 A 
ATOM      4  C   UNL     1      12.212   6.223  24.154  0.00  0.00    +0.049 A 
ATOM      5  C   UNL     1      12.651   5.076  23.516  0.00  0.00    +0.117 A 
ATOM      6  C   UNL     1      11.773   4.030  23.232  0.00  0.00    +0.053 A 
ENDROOT
BRANCH   1   8
ATOM      7  C   UNL     1      10.207   1.951  22.333  0.00  0.00    +0.015 C 
ATOM      8  C   UNL     1       9.483   2.879  23.329  0.00  0.00    -0.009 C 
ATOM      9  C   UNL     1       9.125   2.064  24.594  0.00  0.00    +0.015 C 
ATOM     10  C   UNL     1       8.120   3.283  22.708  0.00  0.00    +0.015 C 
ENDBRANCH   1   8
BRANCH   2  11
ATOM     11  O   UNL     1       8.702   5.393  24.686  0.00  0.00    -0.506 OA
ATOM     12  H   UNL     1       8.121   5.559  23.927  0.00  0.00    +0.292 HD
ENDBRANCH   2  11
BRANCH   5  13
ATOM     13  O   UNL     1      13.973   5.002  23.189  0.00  0.00    -0.507 OA
ATOM     14  H   UNL     1      14.077   4.371  22.458  0.00  0.00    +0.292 HD
ENDBRANCH   5  13
TORSDOF 3
ENDMDL
MODEL 2
REMARK VINA RESULT:      -4.8      8.568     10.122
REMARK  Name = 
REMARK  6 active torsions:
REMARK  status: ('A' for Active; 'I' for Inactive)
REMARK    1  A    between atoms: C_1  and  C_2
REMARK    2  A    between atoms: C_2  and  C_3
REMARK    3  A    between atoms: C_2  and  C_4
REMARK    4  A    between atoms: C_2  and  C_5
REMARK    5  A    between atoms: C_7  and  O_8
REMARK    6  A    between atoms: C_11  and  O_12
REMARK                            x       y       z     vdW  Elec       q    Type
REMARK                         _______ _______ _______ _____ _____    ______ ____
ROOT
ATOM      1  C   UNL     1       7.100  -4.838  24.236  0.00  0.00    +0.003 A 
ATOM      2  C   UNL     1       8.181  -3.939  24.141  0.00  0.00    +0.121 A 
ATOM      3  C   UNL     1       9.072  -3.732  25.203  0.00  0.00    +0.049 A 
ATOM      4  C   UNL     1       8.896  -4.408  26.405  0.00  0.00    +0.049 A 
ATOM      5  C   UNL     1       7.833  -5.284  26.534  0.00  0.00    +0.117 A 
ATOM      6  C   UNL     1       6.948  -5.501  25.476  0.00  0.00    +0.053 A 
ENDROOT
BRANCH   1   8
ATOM      7  C   UNL     1       5.026  -6.076  23.628  0.00  0.00    +0.015 C 
ATOM      8  C   UNL     1       6.050  -5.043  23.118  0.00  0.00    -0.009 C 
ATOM      9  C   UNL     1       5.294  -3.760  22.702  0.00  0.00    +0.015 C 
ATOM     10  C   UNL     1       6.674  -5.591  21.806  0.00  0.00    +0.015 C 
ENDBRANCH   1   8
BRANCH   2  11
ATOM     11  O   UNL     1       8.371  -3.206  23.004  0.00  0.00    -0.506 OA
ATOM     12  H   UNL     1       8.035  -2.306  23.141  0.00  0.00    +0.292 HD
ENDBRANCH   2  11
BRANCH   5  13
ATOM     13  O   UNL     1       7.672  -5.911  27.734  0.00  0.00    -0.507 OA
ATOM     14  H   UNL     1       7.241  -5.297  28.350  0.00  0.00    +0.292 HD
ENDBRANCH   5  13
TORSDOF 3
ENDMDL
MODEL 3
REMARK VINA RESULT:      -4.8      9.639     10.047
REMARK  Name = 
REMARK  6 active torsions:
REMARK  status: ('A' for Active; 'I' for Inactive)
REMARK    1  A    between atoms: C_1  and  C_2
REMARK    2  A    between atoms: C_2  and  C_3
REMARK    3  A    between atoms: C_2  and  C_4
REMARK    4  A    between atoms: C_2  and  C_5
REMARK    5  A    between atoms: C_7  and  O_8
REMARK    6  A    between atoms: C_11  and  O_12
REMARK                            x       y       z     vdW  Elec       q    Type
REMARK                         _______ _______ _______ _____ _____    ______ ____
ROOT
ATOM      1  C   UNL     1       6.934  -4.849  24.084  0.00  0.00    +0.003 A 
ATOM      2  C   UNL     1       6.362  -4.506  25.327  0.00  0.00    +0.121 A 
ATOM      3  C   UNL     1       7.109  -4.500  26.513  0.00  0.00    +0.049 A 
ATOM      4  C   UNL     1       8.452  -4.857  26.495  0.00  0.00    +0.049 A 
ATOM      5  C   UNL     1       9.036  -5.216  25.293  0.00  0.00    +0.117 A 
ATOM      6  C   UNL     1       8.300  -5.213  24.107  0.00  0.00    +0.053 A 
ENDROOT
BRANCH   1   8
ATOM      7  C   UNL     1       7.045  -5.606  21.714  0.00  0.00    +0.015 C 
ATOM      8  C   UNL     1       6.133  -4.941  22.764  0.00  0.00    -0.009 C 
ATOM      9  C   UNL     1       4.819  -5.751  22.863  0.00  0.00    +0.015 C 
ATOM     10  C   UNL     1       5.711  -3.548  22.223  0.00  0.00    +0.015 C 
ENDBRANCH   1   8
BRANCH   2  11
ATOM     11  O   UNL     1       5.033  -4.200  25.413  0.00  0.00    -0.506 OA
ATOM     12  H   UNL     1       4.661  -4.132  24.520  0.00  0.00    +0.292 HD
ENDBRANCH   2  11
BRANCH   5  13
ATOM     13  O   UNL     1      10.348  -5.586  25.314  0.00  0.00    -0.507 OA
ATOM     14  H   UNL     1      10.770  -5.280  24.493  0.00  0.00    +0.292 HD
ENDBRANCH   5  13
TORSDOF 3
ENDMDL
MODEL 4
REMARK VINA RESULT:      -4.7      3.979      5.399
REMARK  Name = 
REMARK  6 active torsions:
REMARK  status: ('A' for Active; 'I' for Inactive)
REMARK    1  A    between atoms: C_1  and  C_2
REMARK    2  A    between atoms: C_2  and  C_3
REMARK    3  A    between atoms: C_2  and  C_4
REMARK    4  A    between atoms: C_2  and  C_5
REMARK    5  A    between atoms: C_7  and  O_8
REMARK    6  A    between atoms: C_11  and  O_12
REMARK                            x       y       z     vdW  Elec       q    Type
REMARK                         _______ _______ _______ _____ _____    ______ ____
ROOT
ATOM      1  C   UNL     1       8.463  -0.460  22.910  0.00  0.00    +0.003 A 
ATOM      2  C   UNL     1       7.196   0.159  22.886  0.00  0.00    +0.121 A 
ATOM      3  C   UNL     1       7.012   1.459  22.397  0.00  0.00    +0.049 A 
ATOM      4  C   UNL     1       8.099   2.191  21.931  0.00  0.00    +0.049 A 
ATOM      5  C   UNL     1       9.357   1.616  21.959  0.00  0.00    +0.117 A 
ATOM      6  C   UNL     1       9.544   0.317  22.436  0.00  0.00    +0.053 A 
ENDROOT
BRANCH   1   8
ATOM      7  C   UNL     1      10.228  -2.159  23.352  0.00  0.00    +0.015 C 
ATOM      8  C   UNL     1       8.724  -1.863  23.508  0.00  0.00    -0.009 C 
ATOM      9  C   UNL     1       8.343  -2.009  25.000  0.00  0.00    +0.015 C 
ATOM     10  C   UNL     1       7.934  -2.981  22.776  0.00  0.00    +0.015 C 
ENDBRANCH   1   8
BRANCH   2  11
ATOM     11  O   UNL     1       6.101  -0.492  23.382  0.00  0.00    -0.506 OA
ATOM     12  H   UNL     1       5.876  -0.126  24.251  0.00  0.00    +0.292 HD
ENDBRANCH   2  11
BRANCH   5  13
ATOM     13  O   UNL     1      10.406   2.369  21.520  0.00  0.00    -0.507 OA
ATOM     14  H   UNL     1      10.326   2.480  20.558  0.00  0.00    +0.292 HD
ENDBRANCH   5  13
TORSDOF 3
ENDMDL
MODEL 5
REMARK VINA RESULT:      -4.7      3.861      5.482
REMARK  Name = 
REMARK  6 active torsions:
REMARK  status: ('A' for Active; 'I' for Inactive)
REMARK    1  A    between atoms: C_1  and  C_2
REMARK    2  A    between atoms: C_2  and  C_3
REMARK    3  A    between atoms: C_2  and  C_4
REMARK    4  A    between atoms: C_2  and  C_5
REMARK    5  A    between atoms: C_7  and  O_8
REMARK    6  A    between atoms: C_11  and  O_12
REMARK                            x       y       z     vdW  Elec       q    Type
REMARK                         _______ _______ _______ _____ _____    ______ ____
ROOT
ATOM      1  C   UNL     1       8.606   1.001  23.291  0.00  0.00    +0.003 A 
ATOM      2  C   UNL     1       8.732   1.946  22.252  0.00  0.00    +0.121 A 
ATOM      3  C   UNL     1       7.659   2.751  21.845  0.00  0.00    +0.049 A 
ATOM      4  C   UNL     1       6.417   2.622  22.455  0.00  0.00    +0.049 A 
ATOM      5  C   UNL     1       6.259   1.690  23.466  0.00  0.00    +0.117 A 
ATOM      6  C   UNL     1       7.326   0.893  23.882  0.00  0.00    +0.053 A 
ENDROOT
BRANCH   1   8
ATOM      7  C   UNL     1       9.168  -0.890  24.810  0.00  0.00    +0.015 C 
ATOM      8  C   UNL     1       9.740   0.042  23.723  0.00  0.00    -0.009 C 
ATOM      9  C   UNL     1      10.320  -0.826  22.582  0.00  0.00    +0.015 C 
ATOM     10  C   UNL     1      10.960   0.790  24.324  0.00  0.00    +0.015 C 
ENDBRANCH   1   8
BRANCH   2  11
ATOM     11  O   UNL     1       9.914   2.078  21.579  0.00  0.00    -0.506 OA
ATOM     12  H   UNL     1      10.111   1.252  21.111  0.00  0.00    +0.292 HD
ENDBRANCH   2  11
BRANCH   5  13
ATOM     13  O   UNL     1       5.021   1.569  24.026  0.00  0.00    -0.507 OA
ATOM     14  H   UNL     1       4.867   2.334  24.605  0.00  0.00    +0.292 HD
ENDBRANCH   5  13
TORSDOF 3
ENDMDL
MODEL 6
REMARK VINA RESULT:      -4.6      4.538      6.652
REMARK  Name = 
REMARK  6 active torsions:
REMARK  status: ('A' for Active; 'I' for Inactive)
REMARK    1  A    between atoms: C_1  and  C_2
REMARK    2  A    between atoms: C_2  and  C_3
REMARK    3  A    between atoms: C_2  and  C_4
REMARK    4  A    between atoms: C_2  and  C_5
REMARK    5  A    between atoms: C_7  and  O_8
REMARK    6  A    between atoms: C_11  and  O_12
REMARK                            x       y       z     vdW  Elec       q    Type
REMARK                         _______ _______ _______ _____ _____    ______ ____
ROOT
ATOM      1  C   UNL     1       8.942  -0.544  23.654  0.00  0.00    +0.003 A 
ATOM      2  C   UNL     1       7.637  -0.839  23.208  0.00  0.00    +0.121 A 
ATOM      3  C   UNL     1       7.132  -2.147  23.202  0.00  0.00    +0.049 A 
ATOM      4  C   UNL     1       7.926  -3.205  23.626  0.00  0.00    +0.049 A 
ATOM      5  C   UNL     1       9.217  -2.948  24.052  0.00  0.00    +0.117 A 
ATOM      6  C   UNL     1       9.722  -1.647  24.070  0.00  0.00    +0.053 A 
ENDROOT
BRANCH   1   8
ATOM      7  C   UNL     1      10.938   0.794  24.309  0.00  0.00    +0.015 C 
ATOM      8  C   UNL     1       9.566   0.871  23.610  0.00  0.00    -0.009 C 
ATOM      9  C   UNL     1       9.767   1.442  22.186  0.00  0.00    +0.015 C 
ATOM     10  C   UNL     1       8.706   1.928  24.353  0.00  0.00    +0.015 C 
ENDBRANCH   1   8
BRANCH   2  11
ATOM     11  O   UNL     1       6.831   0.154  22.728  0.00  0.00    -0.506 OA
ATOM     12  H   UNL     1       7.284   0.614  22.004  0.00  0.00    +0.292 HD
ENDBRANCH   2  11
BRANCH   5  13
ATOM     13  O   UNL     1       9.979  -4.011  24.437  0.00  0.00    -0.507 OA
ATOM     14  H   UNL     1       9.461  -4.824  24.319  0.00  0.00    +0.292 HD
ENDBRANCH   5  13
TORSDOF 3
ENDMDL
MODEL 7
REMARK VINA RESULT:      -4.6      4.344      6.966
REMARK  Name = 
REMARK  6 active torsions:
REMARK  status: ('A' for Active; 'I' for Inactive)
REMARK    1  A    between atoms: C_1  and  C_2
REMARK    2  A    between atoms: C_2  and  C_3
REMARK    3  A    between atoms: C_2  and  C_4
REMARK    4  A    between atoms: C_2  and  C_5
REMARK    5  A    between atoms: C_7  and  O_8
REMARK    6  A    between atoms: C_11  and  O_12
REMARK                            x       y       z     vdW  Elec       q    Type
REMARK                         _______ _______ _______ _____ _____    ______ ____
ROOT
ATOM      1  C   UNL     1       8.647  -0.262  23.131  0.00  0.00    +0.003 A 
ATOM      2  C   UNL     1       8.973  -1.403  22.370  0.00  0.00    +0.121 A 
ATOM      3  C   UNL     1       8.089  -2.482  22.231  0.00  0.00    +0.049 A 
ATOM      4  C   UNL     1       6.854  -2.460  22.868  0.00  0.00    +0.049 A 
ATOM      5  C   UNL     1       6.514  -1.361  23.636  0.00  0.00    +0.117 A 
ATOM      6  C   UNL     1       7.386  -0.279  23.769  0.00  0.00    +0.053 A 
ENDROOT
BRANCH   1   8
ATOM      7  C   UNL     1       8.874   1.963  24.226  0.00  0.00    +0.015 C 
ATOM      8  C   UNL     1       9.618   0.918  23.371  0.00  0.00    -0.009 C 
ATOM      9  C   UNL     1      10.932   0.534  24.092  0.00  0.00    +0.015 C 
ATOM     10  C   UNL     1      10.065   1.604  22.053  0.00  0.00    +0.015 C 
ENDBRANCH   1   8
BRANCH   2  11
ATOM     11  O   UNL     1      10.195  -1.504  21.767  0.00  0.00    -0.506 OA
ATOM     12  H   UNL     1      10.863  -1.735  22.431  0.00  0.00    +0.292 HD
ENDBRANCH   2  11
BRANCH   5  13
ATOM     13  O   UNL     1       5.306  -1.381  24.269  0.00  0.00    -0.507 OA
ATOM     14  H   UNL     1       5.404  -0.959  25.138  0.00  0.00    +0.292 HD
ENDBRANCH   5  13
TORSDOF 3
ENDMDL
MODEL 8
REMARK VINA RESULT:      -4.6      4.804      6.534
REMARK  Name = 
REMARK  6 active torsions:
REMARK  status: ('A' for Active; 'I' for Inactive)
REMARK    1  A    between atoms: C_1  and  C_2
REMARK    2  A    between atoms: C_2  and  C_3
REMARK    3  A    between atoms: C_2  and  C_4
REMARK    4  A    between atoms: C_2  and  C_5
REMARK    5  A    between atoms: C_7  and  O_8
REMARK    6  A    between atoms: C_11  and  O_12
REMARK                            x       y       z     vdW  Elec       q    Type
REMARK                         _______ _______ _______ _____ _____    ______ ____
ROOT
ATOM      1  C   UNL     1       8.181  -0.990  22.838  0.00  0.00    +0.003 A 
ATOM      2  C   UNL     1       9.203  -0.646  21.929  0.00  0.00    +0.121 A 
ATOM      3  C   UNL     1       9.270   0.619  21.330  0.00  0.00    +0.049 A 
ATOM      4  C   UNL     1       8.302   1.577  21.609  0.00  0.00    +0.049 A 
ATOM      5  C   UNL     1       7.277   1.262  22.483  0.00  0.00    +0.117 A 
ATOM      6  C   UNL     1       7.211   0.007  23.090  0.00  0.00    +0.053 A 
ENDROOT
BRANCH   1   8
ATOM      7  C   UNL     1       6.934  -2.299  24.550  0.00  0.00    +0.015 C 
ATOM      8  C   UNL     1       8.025  -2.396  23.465  0.00  0.00    -0.009 C 
ATOM      9  C   UNL     1       7.632  -3.508  22.465  0.00  0.00    +0.015 C 
ATOM     10  C   UNL     1       9.330  -2.898  24.139  0.00  0.00    +0.015 C 
ENDBRANCH   1   8
BRANCH   2  11
ATOM     11  O   UNL     1      10.150  -1.566  21.576  0.00  0.00    -0.506 OA
ATOM     12  H   UNL     1      10.957  -1.105  21.298  0.00  0.00    +0.292 HD
ENDBRANCH   2  11
BRANCH   5  13
ATOM     13  O   UNL     1       6.330   2.214  22.715  0.00  0.00    -0.507 OA
ATOM     14  H   UNL     1       5.697   2.209  21.978  0.00  0.00    +0.292 HD
ENDBRANCH   5  13
TORSDOF 3
ENDMDL
MODEL 9
REMARK VINA RESULT:      -4.5      3.555      5.384
REMARK  Name = 
REMARK  6 active torsions:
REMARK  status: ('A' for Active; 'I' for Inactive)
REMARK    1  A    between atoms: C_1  and  C_2
REMARK    2  A    between atoms: C_2  and  C_3
REMARK    3  A    between atoms: C_2  and  C_4
REMARK    4  A    between atoms: C_2  and  C_5
REMARK    5  A    between atoms: C_7  and  O_8
REMARK    6  A    between atoms: C_11  and  O_12
REMARK                            x       y       z     vdW  Elec       q    Type
REMARK                         _______ _______ _______ _____ _____    ______ ____
ROOT
ATOM      1  C   UNL     1       9.080  -0.291  23.413  0.00  0.00    +0.003 A 
ATOM      2  C   UNL     1       9.672   0.096  22.193  0.00  0.00    +0.121 A 
ATOM      3  C   UNL     1      10.000   1.431  21.917  0.00  0.00    +0.049 A 
ATOM      4  C   UNL     1       9.727   2.426  22.849  0.00  0.00    +0.049 A 
ATOM      5  C   UNL     1       9.129   2.077  24.047  0.00  0.00    +0.117 A 
ATOM      6  C   UNL     1       8.810   0.749  24.332  0.00  0.00    +0.053 A 
ENDROOT
BRANCH   1   8
ATOM      7  C   UNL     1       7.837  -1.696  25.051  0.00  0.00    +0.015 C 
ATOM      8  C   UNL     1       8.634  -1.738  23.732  0.00  0.00    -0.009 C 
ATOM      9  C   UNL     1       7.756  -2.396  22.642  0.00  0.00    +0.015 C 
ATOM     10  C   UNL     1       9.834  -2.704  23.925  0.00  0.00    +0.015 C 
ENDBRANCH   1   8
BRANCH   2  11
ATOM     11  O   UNL     1       9.912  -0.831  21.219  0.00  0.00    -0.506 OA
ATOM     12  H   UNL     1       9.685  -0.454  20.354  0.00  0.00    +0.292 HD
ENDBRANCH   2  11
BRANCH   5  13
ATOM     13  O   UNL     1       8.851   3.080  24.929  0.00  0.00    -0.507 OA
ATOM     14  H   UNL     1       8.620   3.879  24.427  0.00  0.00    +0.292 HD
ENDBRANCH   5  13
TORSDOF 3
ENDMDL
