MODEL 1
REMARK VINA RESULT:      -5.4      0.000      0.000
REMARK  Name = 
REMARK  9 active torsions:
REMARK  status: ('A' for Active; 'I' for Inactive)
REMARK    1  A    between atoms: N_1  and  CA_2
REMARK    2  A    between atoms: CA_2  and  C_4
REMARK    3  A    between atoms: CA_2  and  C_15
REMARK    4  A    between atoms: C_4  and  C_5
REMARK    5  A    between atoms: C_5  and  C_6
REMARK    6  A    between atoms: C_6  and  N_7
REMARK    7  A    between atoms: N_10  and  C_12
REMARK    8  A    between atoms: C_12  and  C_13
REMARK    9  A    between atoms: C_15  and  O_16
REMARK                            x       y       z     vdW  Elec       q    Type
REMARK                         _______ _______ _______ _____ _____    ______ ____
ROOT
ATOM      1  C   UNL     1       8.741   4.866  24.422  0.00  0.00    +0.196 C 
ENDROOT
BRANCH   1   2
ATOM      2  N   UNL     1       9.074   4.103  23.206  0.00  0.00    -0.279 N 
ATOM      3  H   UNL     1       9.590   4.590  22.485  0.00  0.00    +0.258 HD
ATOM      4  C   UNL     1       8.636   2.851  22.908  0.00  0.00    +0.344 C 
ATOM      5  N   UNL     1       9.039   2.302  21.742  0.00  0.00    -0.275 N 
ATOM      6  H   UNL     1       9.706   2.812  21.179  0.00  0.00    +0.258 HD
ATOM      7  N   UNL     1       7.831   2.191  23.751  0.00  0.00    -0.292 N 
ATOM      8  H   UNL     1       7.431   1.298  23.499  0.00  0.00    +0.255 HD
ATOM      9  H   UNL     1       7.586   2.560  24.658  0.00  0.00    +0.255 HD
BRANCH   5  10
ATOM     10  C   UNL     1       8.691   0.960  21.278  0.00  0.00    +0.223 C 
BRANCH  10  11
ATOM     11  C   UNL     1       9.736   0.032  21.790  0.00  0.00    +0.002 C 
ATOM     12  C   UNL     1       9.615  -1.301  21.852  0.00  0.00    +0.007 C 
ENDBRANCH  10  11
ENDBRANCH   5  10
ENDBRANCH   1   2
BRANCH   1  13
ATOM     13  C   UNL     1       9.770   5.956  24.702  0.00  0.00    +0.039 C 
BRANCH  13  14
ATOM     14  C   UNL     1      10.836   6.027  23.598  0.00  0.00    +0.033 C 
BRANCH  14  15
ATOM     15  CA  UNL     1      12.247   5.621  24.052  0.00  0.00    +0.161 C 
BRANCH  15  16
ATOM     16  N   UNL     1      12.830   6.724  24.877  0.00  0.00    -0.318 NA
ATOM     17  H1  UNL     1      12.437   6.695  25.822  0.00  0.00    +0.119 HD
ATOM     18  H2  UNL     1      13.828   6.533  25.012  0.00  0.00    +0.119 HD
ENDBRANCH  15  16
BRANCH  15  19
ATOM     19  C   UNL     1      13.191   5.376  22.855  0.00  0.00    +0.322 C 
ATOM     20  OXT UNL     1      12.888   5.504  21.679  0.00  0.00    -0.249 OA
BRANCH  19  21
ATOM     21  O   UNL     1      14.434   5.023  23.265  0.00  0.00    -0.480 OA
ATOM     22  H   UNL     1      14.437   4.033  23.314  0.00  0.00    +0.295 HD
ENDBRANCH  19  21
ENDBRANCH  15  19
ENDBRANCH  14  15
ENDBRANCH  13  14
ENDBRANCH   1  13
TORSDOF 9
ENDMDL
MODEL 2
REMARK VINA RESULT:      -5.2      5.911      8.840
REMARK  Name = 
REMARK  9 active torsions:
REMARK  status: ('A' for Active; 'I' for Inactive)
REMARK    1  A    between atoms: N_1  and  CA_2
REMARK    2  A    between atoms: CA_2  and  C_4
REMARK    3  A    between atoms: CA_2  and  C_15
REMARK    4  A    between atoms: C_4  and  C_5
REMARK    5  A    between atoms: C_5  and  C_6
REMARK    6  A    between atoms: C_6  and  N_7
REMARK    7  A    between atoms: N_10  and  C_12
REMARK    8  A    between atoms: C_12  and  C_13
REMARK    9  A    between atoms: C_15  and  O_16
REMARK                            x       y       z     vdW  Elec       q    Type
REMARK                         _______ _______ _______ _____ _____    ______ ____
ROOT
ATOM      1  C   UNL     1       6.150  -3.983  22.842  0.00  0.00    +0.196 C 
ENDROOT
BRANCH   1   2
ATOM      2  N   UNL     1       7.405  -3.422  22.311  0.00  0.00    -0.279 N 
ATOM      3  H   UNL     1       7.945  -4.011  21.691  0.00  0.00    +0.258 HD
ATOM      4  C   UNL     1       7.970  -2.243  22.684  0.00  0.00    +0.344 C 
ATOM      5  N   UNL     1       9.131  -1.884  22.095  0.00  0.00    -0.275 N 
ATOM      6  H   UNL     1       9.488  -2.467  21.351  0.00  0.00    +0.258 HD
ATOM      7  N   UNL     1       7.385  -1.469  23.609  0.00  0.00    -0.292 N 
ATOM      8  H   UNL     1       7.841  -0.637  23.955  0.00  0.00    +0.255 HD
ATOM      9  H   UNL     1       6.482  -1.691  23.999  0.00  0.00    +0.255 HD
BRANCH   5  10
ATOM     10  C   UNL     1       9.857  -0.642  22.352  0.00  0.00    +0.223 C 
BRANCH  10  11
ATOM     11  C   UNL     1       9.378   0.361  21.364  0.00  0.00    +0.002 C 
ATOM     12  C   UNL     1       8.694   1.472  21.667  0.00  0.00    +0.007 C 
ENDBRANCH  10  11
ENDBRANCH   5  10
ENDBRANCH   1   2
BRANCH   1  13
ATOM     13  C   UNL     1       6.408  -5.187  23.742  0.00  0.00    +0.039 C 
BRANCH  13  14
ATOM     14  C   UNL     1       6.866  -4.758  25.144  0.00  0.00    +0.033 C 
BRANCH  14  15
ATOM     15  CA  UNL     1       8.114  -5.495  25.657  0.00  0.00    +0.161 C 
BRANCH  15  16
ATOM     16  N   UNL     1       8.076  -5.535  27.151  0.00  0.00    -0.318 NA
ATOM     17  H1  UNL     1       7.288  -4.977  27.494  0.00  0.00    +0.119 HD
ATOM     18  H2  UNL     1       7.854  -6.492  27.444  0.00  0.00    +0.119 HD
ENDBRANCH  15  16
BRANCH  15  19
ATOM     19  C   UNL     1       9.419  -4.787  25.235  0.00  0.00    +0.322 C 
ATOM     20  OXT UNL     1       9.490  -3.666  24.756  0.00  0.00    -0.249 OA
BRANCH  19  21
ATOM     21  O   UNL     1      10.507  -5.553  25.491  0.00  0.00    -0.480 OA
ATOM     22  H   UNL     1      10.905  -5.769  24.609  0.00  0.00    +0.295 HD
ENDBRANCH  19  21
ENDBRANCH  15  19
ENDBRANCH  14  15
ENDBRANCH  13  14
ENDBRANCH   1  13
TORSDOF 9
ENDMDL
MODEL 3
REMARK VINA RESULT:      -5.2      5.956      8.458
REMARK  Name = 
REMARK  9 active torsions:
REMARK  status: ('A' for Active; 'I' for Inactive)
REMARK    1  A    between atoms: N_1  and  CA_2
REMARK    2  A    between atoms: CA_2  and  C_4
REMARK    3  A    between atoms: CA_2  and  C_15
REMARK    4  A    between atoms: C_4  and  C_5
REMARK    5  A    between atoms: C_5  and  C_6
REMARK    6  A    between atoms: C_6  and  N_7
REMARK    7  A    between atoms: N_10  and  C_12
REMARK    8  A    between atoms: C_12  and  C_13
REMARK    9  A    between atoms: C_15  and  O_16
REMARK                            x       y       z     vdW  Elec       q    Type
REMARK                         _______ _______ _______ _____ _____    ______ ____
ROOT
ATOM      1  C   UNL     1       6.875  -1.891  26.526  0.00  0.00    +0.196 C 
ENDROOT
BRANCH   1   2
ATOM      2  N   UNL     1       7.795  -1.611  25.410  0.00  0.00    -0.279 N 
ATOM      3  H   UNL     1       7.701  -2.185  24.583  0.00  0.00    +0.258 HD
ATOM      4  C   UNL     1       8.845  -0.748  25.443  0.00  0.00    +0.344 C 
ATOM      5  N   UNL     1       9.592  -0.619  24.324  0.00  0.00    -0.275 N 
ATOM      6  H   UNL     1       9.293  -1.109  23.492  0.00  0.00    +0.258 HD
ATOM      7  N   UNL     1       9.123  -0.053  26.553  0.00  0.00    -0.292 N 
ATOM      8  H   UNL     1       9.951   0.524  26.615  0.00  0.00    +0.255 HD
ATOM      9  H   UNL     1       8.528  -0.084  27.368  0.00  0.00    +0.255 HD
BRANCH   5  10
ATOM     10  C   UNL     1      10.733   0.282  24.172  0.00  0.00    +0.223 C 
BRANCH  10  11
ATOM     11  C   UNL     1      10.279   1.432  23.345  0.00  0.00    +0.002 C 
ATOM     12  C   UNL     1       9.925   1.358  22.055  0.00  0.00    +0.007 C 
ENDBRANCH  10  11
ENDBRANCH   5  10
ENDBRANCH   1   2
BRANCH   1  13
ATOM     13  C   UNL     1       6.698  -3.389  26.748  0.00  0.00    +0.039 C 
BRANCH  13  14
ATOM     14  C   UNL     1       7.020  -4.193  25.479  0.00  0.00    +0.033 C 
BRANCH  14  15
ATOM     15  CA  UNL     1       8.079  -5.289  25.674  0.00  0.00    +0.161 C 
BRANCH  15  16
ATOM     16  N   UNL     1       8.185  -5.612  27.130  0.00  0.00    -0.318 NA
ATOM     17  H1  UNL     1       8.410  -4.764  27.658  0.00  0.00    +0.119 HD
ATOM     18  H2  UNL     1       7.256  -5.881  27.469  0.00  0.00    +0.119 HD
ENDBRANCH  15  16
BRANCH  15  19
ATOM     19  C   UNL     1       9.474  -4.839  25.186  0.00  0.00    +0.322 C 
ATOM     20  OXT UNL     1       9.690  -3.896  24.440  0.00  0.00    -0.249 OA
BRANCH  19  21
ATOM     21  O   UNL     1      10.458  -5.605  25.717  0.00  0.00    -0.480 OA
ATOM     22  H   UNL     1      10.451  -5.426  26.692  0.00  0.00    +0.295 HD
ENDBRANCH  19  21
ENDBRANCH  15  19
ENDBRANCH  14  15
ENDBRANCH  13  14
ENDBRANCH   1  13
TORSDOF 9
ENDMDL
MODEL 4
REMARK VINA RESULT:      -5.2      3.193      5.775
REMARK  Name = 
REMARK  9 active torsions:
REMARK  status: ('A' for Active; 'I' for Inactive)
REMARK    1  A    between atoms: N_1  and  CA_2
REMARK    2  A    between atoms: CA_2  and  C_4
REMARK    3  A    between atoms: CA_2  and  C_15
REMARK    4  A    between atoms: C_4  and  C_5
REMARK    5  A    between atoms: C_5  and  C_6
REMARK    6  A    between atoms: C_6  and  N_7
REMARK    7  A    between atoms: N_10  and  C_12
REMARK    8  A    between atoms: C_12  and  C_13
REMARK    9  A    between atoms: C_15  and  O_16
REMARK                            x       y       z     vdW  Elec       q    Type
REMARK                         _______ _______ _______ _____ _____    ______ ____
ROOT
ATOM      1  C   UNL     1       7.777   2.451  22.286  0.00  0.00    +0.196 C 
ENDROOT
BRANCH   1   2
ATOM      2  N   UNL     1       8.557   3.699  22.345  0.00  0.00    -0.279 N 
ATOM      3  H   UNL     1       8.743   4.166  21.467  0.00  0.00    +0.258 HD
ATOM      4  C   UNL     1       9.165   4.206  23.450  0.00  0.00    +0.344 C 
ATOM      5  N   UNL     1       9.847   5.365  23.321  0.00  0.00    -0.275 N 
ATOM      6  H   UNL     1       9.812   5.842  22.430  0.00  0.00    +0.258 HD
ATOM      7  N   UNL     1       9.084   3.569  24.626  0.00  0.00    -0.292 N 
ATOM      8  H   UNL     1       9.604   3.891  25.430  0.00  0.00    +0.255 HD
ATOM      9  H   UNL     1       8.515   2.745  24.750  0.00  0.00    +0.255 HD
BRANCH   5  10
ATOM     10  C   UNL     1      10.532   6.065  24.406  0.00  0.00    +0.223 C 
BRANCH  10  11
ATOM     11  C   UNL     1      11.988   6.034  24.100  0.00  0.00    +0.002 C 
ATOM     12  C   UNL     1      12.577   5.179  23.254  0.00  0.00    +0.007 C 
ENDBRANCH  10  11
ENDBRANCH   5  10
ENDBRANCH   1   2
BRANCH   1  13
ATOM     13  C   UNL     1       8.429   1.422  21.368  0.00  0.00    +0.039 C 
BRANCH  13  14
ATOM     14  C   UNL     1       9.800   0.978  21.899  0.00  0.00    +0.033 C 
BRANCH  14  15
ATOM     15  CA  UNL     1       9.743   0.143  23.187  0.00  0.00    +0.161 C 
BRANCH  15  16
ATOM     16  N   UNL     1      10.727   0.693  24.169  0.00  0.00    -0.318 NA
ATOM     17  H1  UNL     1      11.452  -0.004  24.361  0.00  0.00    +0.119 HD
ATOM     18  H2  UNL     1      11.231   1.466  23.723  0.00  0.00    +0.119 HD
ENDBRANCH  15  16
BRANCH  15  19
ATOM     19  C   UNL     1      10.104  -1.337  22.934  0.00  0.00    +0.322 C 
ATOM     20  OXT UNL     1      10.133  -2.212  23.786  0.00  0.00    -0.249 OA
BRANCH  19  21
ATOM     21  O   UNL     1      10.361  -1.570  21.624  0.00  0.00    -0.480 OA
ATOM     22  H   UNL     1      10.177  -0.718  21.152  0.00  0.00    +0.295 HD
ENDBRANCH  19  21
ENDBRANCH  15  19
ENDBRANCH  14  15
ENDBRANCH  13  14
ENDBRANCH   1  13
TORSDOF 9
ENDMDL
MODEL 5
REMARK VINA RESULT:      -5.0      6.016      8.814
REMARK  Name = 
REMARK  9 active torsions:
REMARK  status: ('A' for Active; 'I' for Inactive)
REMARK    1  A    between atoms: N_1  and  CA_2
REMARK    2  A    between atoms: CA_2  and  C_4
REMARK    3  A    between atoms: CA_2  and  C_15
REMARK    4  A    between atoms: C_4  and  C_5
REMARK    5  A    between atoms: C_5  and  C_6
REMARK    6  A    between atoms: C_6  and  N_7
REMARK    7  A    between atoms: N_10  and  C_12
REMARK    8  A    between atoms: C_12  and  C_13
REMARK    9  A    between atoms: C_15  and  O_16
REMARK                            x       y       z     vdW  Elec       q    Type
REMARK                         _______ _______ _______ _____ _____    ______ ____
ROOT
ATOM      1  C   UNL     1       7.938  -3.075  22.651  0.00  0.00    +0.196 C 
ENDROOT
BRANCH   1   2
ATOM      2  N   UNL     1       8.283  -1.895  23.463  0.00  0.00    -0.279 N 
ATOM      3  H   UNL     1       7.540  -1.482  24.010  0.00  0.00    +0.258 HD
ATOM      4  C   UNL     1       9.470  -1.232  23.438  0.00  0.00    +0.344 C 
ATOM      5  N   UNL     1       9.612  -0.161  24.249  0.00  0.00    -0.275 N 
ATOM      6  H   UNL     1       8.862   0.053  24.892  0.00  0.00    +0.258 HD
ATOM      7  N   UNL     1      10.460  -1.634  22.631  0.00  0.00    -0.292 N 
ATOM      8  H   UNL     1      11.311  -1.097  22.541  0.00  0.00    +0.255 HD
ATOM      9  H   UNL     1      10.391  -2.476  22.078  0.00  0.00    +0.255 HD
BRANCH   5  10
ATOM     10  C   UNL     1      10.824   0.647  24.373  0.00  0.00    +0.223 C 
BRANCH  10  11
ATOM     11  C   UNL     1      10.530   1.976  23.773  0.00  0.00    +0.002 C 
ATOM     12  C   UNL     1      10.219   2.187  22.487  0.00  0.00    +0.007 C 
ENDBRANCH  10  11
ENDBRANCH   5  10
ENDBRANCH   1   2
BRANCH   1  13
ATOM     13  C   UNL     1       7.135  -4.094  23.452  0.00  0.00    +0.039 C 
BRANCH  13  14
ATOM     14  C   UNL     1       8.036  -5.190  24.042  0.00  0.00    +0.033 C 
BRANCH  14  15
ATOM     15  CA  UNL     1       8.945  -4.716  25.186  0.00  0.00    +0.161 C 
BRANCH  15  16
ATOM     16  N   UNL     1      10.063  -5.694  25.358  0.00  0.00    -0.318 NA
ATOM     17  H1  UNL     1      10.156  -5.944  26.347  0.00  0.00    +0.119 HD
ATOM     18  H2  UNL     1       9.798  -6.572  24.900  0.00  0.00    +0.119 HD
ENDBRANCH  15  16
BRANCH  15  19
ATOM     19  C   UNL     1       8.186  -4.623  26.528  0.00  0.00    +0.322 C 
ATOM     20  OXT UNL     1       7.552  -3.654  26.915  0.00  0.00    -0.249 OA
BRANCH  19  21
ATOM     21  O   UNL     1       8.278  -5.778  27.233  0.00  0.00    -0.480 OA
ATOM     22  H   UNL     1       9.039  -6.279  26.842  0.00  0.00    +0.295 HD
ENDBRANCH  19  21
ENDBRANCH  15  19
ENDBRANCH  14  15
ENDBRANCH  13  14
ENDBRANCH   1  13
TORSDOF 9
ENDMDL
MODEL 6
REMARK VINA RESULT:      -5.0      4.243      5.850
REMARK  Name = 
REMARK  9 active torsions:
REMARK  status: ('A' for Active; 'I' for Inactive)
REMARK    1  A    between atoms: N_1  and  CA_2
REMARK    2  A    between atoms: CA_2  and  C_4
REMARK    3  A    between atoms: CA_2  and  C_15
REMARK    4  A    between atoms: C_4  and  C_5
REMARK    5  A    between atoms: C_5  and  C_6
REMARK    6  A    between atoms: C_6  and  N_7
REMARK    7  A    between atoms: N_10  and  C_12
REMARK    8  A    between atoms: C_12  and  C_13
REMARK    9  A    between atoms: C_15  and  O_16
REMARK                            x       y       z     vdW  Elec       q    Type
REMARK                         _______ _______ _______ _____ _____    ______ ____
ROOT
ATOM      1  C   UNL     1       9.030  -1.004  25.130  0.00  0.00    +0.196 C 
ENDROOT
BRANCH   1   2
ATOM      2  N   UNL     1       8.752  -1.923  24.012  0.00  0.00    -0.279 N 
ATOM      3  H   UNL     1       9.544  -2.231  23.464  0.00  0.00    +0.258 HD
ATOM      4  C   UNL     1       7.519  -2.284  23.566  0.00  0.00    +0.344 C 
ATOM      5  N   UNL     1       7.450  -3.135  22.520  0.00  0.00    -0.275 N 
ATOM      6  H   UNL     1       8.313  -3.525  22.164  0.00  0.00    +0.258 HD
ATOM      7  N   UNL     1       6.415  -1.804  24.152  0.00  0.00    -0.292 N 
ATOM      8  H   UNL     1       5.498  -1.996  23.773  0.00  0.00    +0.255 HD
ATOM      9  H   UNL     1       6.454  -1.228  24.980  0.00  0.00    +0.255 HD
BRANCH   5  10
ATOM     10  C   UNL     1       6.215  -3.650  21.933  0.00  0.00    +0.223 C 
BRANCH  10  11
ATOM     11  C   UNL     1       6.505  -5.019  21.426  0.00  0.00    +0.002 C 
ATOM     12  C   UNL     1       7.151  -5.971  22.112  0.00  0.00    +0.007 C 
ENDBRANCH  10  11
ENDBRANCH   5  10
ENDBRANCH   1   2
BRANCH   1  13
ATOM     13  C   UNL     1      10.103   0.016  24.768  0.00  0.00    +0.039 C 
BRANCH  13  14
ATOM     14  C   UNL     1       9.553   1.113  23.843  0.00  0.00    +0.033 C 
BRANCH  14  15
ATOM     15  CA  UNL     1      10.184   1.137  22.442  0.00  0.00    +0.161 C 
BRANCH  15  16
ATOM     16  N   UNL     1      10.326   2.557  21.995  0.00  0.00    -0.318 NA
ATOM     17  H1  UNL     1      11.096   3.005  22.501  0.00  0.00    +0.119 HD
ATOM     18  H2  UNL     1      10.631   2.559  21.017  0.00  0.00    +0.119 HD
ENDBRANCH  15  16
BRANCH  15  19
ATOM     19  C   UNL     1       9.313   0.399  21.402  0.00  0.00    +0.322 C 
ATOM     20  OXT UNL     1       9.280  -0.811  21.241  0.00  0.00    -0.249 OA
BRANCH  19  21
ATOM     21  O   UNL     1       8.546   1.262  20.692  0.00  0.00    -0.480 OA
ATOM     22  H   UNL     1       8.676   2.152  21.108  0.00  0.00    +0.295 HD
ENDBRANCH  19  21
ENDBRANCH  15  19
ENDBRANCH  14  15
ENDBRANCH  13  14
ENDBRANCH   1  13
TORSDOF 9
ENDMDL
MODEL 7
REMARK VINA RESULT:      -5.0      4.211      6.606
REMARK  Name = 
REMARK  9 active torsions:
REMARK  status: ('A' for Active; 'I' for Inactive)
REMARK    1  A    between atoms: N_1  and  CA_2
REMARK    2  A    between atoms: CA_2  and  C_4
REMARK    3  A    between atoms: CA_2  and  C_15
REMARK    4  A    between atoms: C_4  and  C_5
REMARK    5  A    between atoms: C_5  and  C_6
REMARK    6  A    between atoms: C_6  and  N_7
REMARK    7  A    between atoms: N_10  and  C_12
REMARK    8  A    between atoms: C_12  and  C_13
REMARK    9  A    between atoms: C_15  and  O_16
REMARK                            x       y       z     vdW  Elec       q    Type
REMARK                         _______ _______ _______ _____ _____    ______ ____
ROOT
ATOM      1  C   UNL     1       9.838  -1.727  23.741  0.00  0.00    +0.196 C 
ENDROOT
BRANCH   1   2
ATOM      2  N   UNL     1       9.324  -3.106  23.797  0.00  0.00    -0.279 N 
ATOM      3  H   UNL     1      10.007  -3.848  23.871  0.00  0.00    +0.258 HD
ATOM      4  C   UNL     1       8.028  -3.480  23.622  0.00  0.00    +0.344 C 
ATOM      5  N   UNL     1       7.734  -4.796  23.702  0.00  0.00    -0.275 N 
ATOM      6  H   UNL     1       8.472  -5.435  23.963  0.00  0.00    +0.258 HD
ATOM      7  N   UNL     1       7.081  -2.565  23.378  0.00  0.00    -0.292 N 
ATOM      8  H   UNL     1       6.134  -2.840  23.159  0.00  0.00    +0.255 HD
ATOM      9  H   UNL     1       7.277  -1.575  23.391  0.00  0.00    +0.255 HD
BRANCH   5  10
ATOM     10  C   UNL     1       6.396  -5.369  23.570  0.00  0.00    +0.223 C 
BRANCH  10  11
ATOM     11  C   UNL     1       6.378  -6.159  22.309  0.00  0.00    +0.002 C 
ATOM     12  C   UNL     1       6.352  -5.636  21.076  0.00  0.00    +0.007 C 
ENDBRANCH  10  11
ENDBRANCH   5  10
ENDBRANCH   1   2
BRANCH   1  13
ATOM     13  C   UNL     1      10.345  -1.371  22.348  0.00  0.00    +0.039 C 
BRANCH  13  14
ATOM     14  C   UNL     1       9.436  -0.343  21.658  0.00  0.00    +0.033 C 
BRANCH  14  15
ATOM     15  CA  UNL     1       8.752   0.644  22.617  0.00  0.00    +0.161 C 
BRANCH  15  16
ATOM     16  N   UNL     1       7.277   0.407  22.590  0.00  0.00    -0.318 NA
ATOM     17  H1  UNL     1       6.965   0.051  23.499  0.00  0.00    +0.119 HD
ATOM     18  H2  UNL     1       6.805   1.313  22.499  0.00  0.00    +0.119 HD
ENDBRANCH  15  16
BRANCH  15  19
ATOM     19  C   UNL     1       9.004   2.113  22.211  0.00  0.00    +0.322 C 
ATOM     20  OXT UNL     1       8.273   3.054  22.480  0.00  0.00    -0.249 OA
BRANCH  19  21
ATOM     21  O   UNL     1      10.170   2.249  21.534  0.00  0.00    -0.480 OA
ATOM     22  H   UNL     1      10.830   1.677  22.003  0.00  0.00    +0.295 HD
ENDBRANCH  19  21
ENDBRANCH  15  19
ENDBRANCH  14  15
ENDBRANCH  13  14
ENDBRANCH   1  13
TORSDOF 9
ENDMDL
MODEL 8
REMARK VINA RESULT:      -5.0      4.189      5.996
REMARK  Name = 
REMARK  9 active torsions:
REMARK  status: ('A' for Active; 'I' for Inactive)
REMARK    1  A    between atoms: N_1  and  CA_2
REMARK    2  A    between atoms: CA_2  and  C_4
REMARK    3  A    between atoms: CA_2  and  C_15
REMARK    4  A    between atoms: C_4  and  C_5
REMARK    5  A    between atoms: C_5  and  C_6
REMARK    6  A    between atoms: C_6  and  N_7
REMARK    7  A    between atoms: N_10  and  C_12
REMARK    8  A    between atoms: C_12  and  C_13
REMARK    9  A    between atoms: C_15  and  O_16
REMARK                            x       y       z     vdW  Elec       q    Type
REMARK                         _______ _______ _______ _____ _____    ______ ____
ROOT
ATOM      1  C   UNL     1      10.477  -1.000  23.287  0.00  0.00    +0.196 C 
ENDROOT
BRANCH   1   2
ATOM      2  N   UNL     1       9.848  -2.281  23.656  0.00  0.00    -0.279 N 
ATOM      3  H   UNL     1      10.430  -2.956  24.135  0.00  0.00    +0.258 HD
ATOM      4  C   UNL     1       8.604  -2.690  23.293  0.00  0.00    +0.344 C 
ATOM      5  N   UNL     1       8.189  -3.904  23.718  0.00  0.00    -0.275 N 
ATOM      6  H   UNL     1       8.788  -4.419  24.348  0.00  0.00    +0.258 HD
ATOM      7  N   UNL     1       7.822  -1.909  22.537  0.00  0.00    -0.292 N 
ATOM      8  H   UNL     1       6.933  -2.240  22.189  0.00  0.00    +0.255 HD
ATOM      9  H   UNL     1       8.092  -0.971  22.277  0.00  0.00    +0.255 HD
BRANCH   5  10
ATOM     10  C   UNL     1       6.876  -4.487  23.448  0.00  0.00    +0.223 C 
BRANCH  10  11
ATOM     11  C   UNL     1       7.091  -5.666  22.566  0.00  0.00    +0.002 C 
ATOM     12  C   UNL     1       6.736  -5.735  21.276  0.00  0.00    +0.007 C 
ENDBRANCH  10  11
ENDBRANCH   5  10
ENDBRANCH   1   2
BRANCH   1  13
ATOM     13  C   UNL     1      10.392   0.016  24.421  0.00  0.00    +0.039 C 
BRANCH  13  14
ATOM     14  C   UNL     1       9.885   1.379  23.926  0.00  0.00    +0.033 C 
BRANCH  14  15
ATOM     15  CA  UNL     1       9.514   1.414  22.435  0.00  0.00    +0.161 C 
BRANCH  15  16
ATOM     16  N   UNL     1      10.394   2.401  21.737  0.00  0.00    -0.318 NA
ATOM     17  H1  UNL     1      11.377   2.188  21.932  0.00  0.00    +0.119 HD
ATOM     18  H2  UNL     1      10.301   2.259  20.726  0.00  0.00    +0.119 HD
ENDBRANCH  15  16
BRANCH  15  19
ATOM     19  C   UNL     1       8.049   1.848  22.213  0.00  0.00    +0.322 C 
ATOM     20  OXT UNL     1       7.071   1.131  22.360  0.00  0.00    -0.249 OA
BRANCH  19  21
ATOM     21  O   UNL     1       7.964   3.154  21.859  0.00  0.00    -0.480 OA
ATOM     22  H   UNL     1       7.408   3.592  22.553  0.00  0.00    +0.295 HD
ENDBRANCH  19  21
ENDBRANCH  15  19
ENDBRANCH  14  15
ENDBRANCH  13  14
ENDBRANCH   1  13
TORSDOF 9
ENDMDL
MODEL 9
REMARK VINA RESULT:      -5.0      6.001      8.558
REMARK  Name = 
REMARK  9 active torsions:
REMARK  status: ('A' for Active; 'I' for Inactive)
REMARK    1  A    between atoms: N_1  and  CA_2
REMARK    2  A    between atoms: CA_2  and  C_4
REMARK    3  A    between atoms: CA_2  and  C_15
REMARK    4  A    between atoms: C_4  and  C_5
REMARK    5  A    between atoms: C_5  and  C_6
REMARK    6  A    between atoms: C_6  and  N_7
REMARK    7  A    between atoms: N_10  and  C_12
REMARK    8  A    between atoms: C_12  and  C_13
REMARK    9  A    between atoms: C_15  and  O_16
REMARK                            x       y       z     vdW  Elec       q    Type
REMARK                         _______ _______ _______ _____ _____    ______ ____
ROOT
ATOM      1  C   UNL     1       6.037  -3.111  23.750  0.00  0.00    +0.196 C 
ENDROOT
BRANCH   1   2
ATOM      2  N   UNL     1       6.008  -1.796  23.085  0.00  0.00    -0.279 N 
ATOM      3  H   UNL     1       5.394  -1.699  22.287  0.00  0.00    +0.258 HD
ATOM      4  C   UNL     1       6.829  -0.748  23.359  0.00  0.00    +0.344 C 
ATOM      5  N   UNL     1       6.666   0.386  22.644  0.00  0.00    -0.275 N 
ATOM      6  H   UNL     1       5.895   0.433  21.992  0.00  0.00    +0.258 HD
ATOM      7  N   UNL     1       7.768  -0.847  24.310  0.00  0.00    -0.292 N 
ATOM      8  H   UNL     1       8.438  -0.106  24.460  0.00  0.00    +0.255 HD
ATOM      9  H   UNL     1       7.848  -1.661  24.900  0.00  0.00    +0.255 HD
BRANCH   5  10
ATOM     10  C   UNL     1       7.436   1.615  22.826  0.00  0.00    +0.223 C 
BRANCH  10  11
ATOM     11  C   UNL     1       8.439   1.673  21.728  0.00  0.00    +0.002 C 
ATOM     12  C   UNL     1       9.765   1.584  21.893  0.00  0.00    +0.007 C 
ENDBRANCH  10  11
ENDBRANCH   5  10
ENDBRANCH   1   2
BRANCH   1  13
ATOM     13  C   UNL     1       6.473  -4.216  22.794  0.00  0.00    +0.039 C 
BRANCH  13  14
ATOM     14  C   UNL     1       7.764  -4.900  23.269  0.00  0.00    +0.033 C 
BRANCH  14  15
ATOM     15  CA  UNL     1       8.387  -4.275  24.528  0.00  0.00    +0.161 C 
BRANCH  15  16
ATOM     16  N   UNL     1       9.607  -3.505  24.137  0.00  0.00    -0.318 NA
ATOM     17  H1  UNL     1       9.341  -2.560  23.842  0.00  0.00    +0.119 HD
ATOM     18  H2  UNL     1      10.178  -3.356  24.975  0.00  0.00    +0.119 HD
ENDBRANCH  15  16
BRANCH  15  19
ATOM     19  C   UNL     1       8.814  -5.347  25.555  0.00  0.00    +0.322 C 
ATOM     20  OXT UNL     1       8.097  -5.813  26.427  0.00  0.00    -0.249 OA
BRANCH  19  21
ATOM     21  O   UNL     1      10.094  -5.746  25.356  0.00  0.00    -0.480 OA
ATOM     22  H   UNL     1      10.365  -6.223  26.182  0.00  0.00    +0.295 HD
ENDBRANCH  19  21
ENDBRANCH  15  19
ENDBRANCH  14  15
ENDBRANCH  13  14
ENDBRANCH   1  13
TORSDOF 9
ENDMDL
