MODEL 1
REMARK VINA RESULT:      -7.4      0.000      0.000
REMARK  Name = 
REMARK  4 active torsions:
REMARK  status: ('A' for Active; 'I' for Inactive)
REMARK    1  A    between atoms: N_8  and  C_9
REMARK    2  A    between atoms: C_12  and  C_14
REMARK    3  A    between atoms: C_14  and  O_15
REMARK    4  A    between atoms: P_19  and  O_20
REMARK                            x       y       z     vdW  Elec       q    Type
REMARK                         _______ _______ _______ _____ _____    ______ ____
ROOT
ATOM      1  N   UNL     1       8.001   2.136  26.038  0.00  0.00    -0.329 N 
ATOM      2  H   UNL     1       7.763   3.114  25.931  0.00  0.00    +0.145 HD
ATOM      3  H   UNL     1       7.345   1.609  26.607  0.00  0.00    +0.145 HD
ATOM      4  C   UNL     1       8.470   1.470  24.955  0.00  0.00    +0.195 A 
ATOM      5  N   UNL     1       9.182   2.221  24.041  0.00  0.00    -0.293 N 
ATOM      6  H   UNL     1       9.345   3.201  24.207  0.00  0.00    +0.172 HD
ATOM      7  C   UNL     1       9.777   1.717  22.889  0.00  0.00    +0.280 A 
ATOM      8  O   UNL     1      10.393   2.434  22.105  0.00  0.00    -0.265 OA
ATOM      9  C   UNL     1       9.555   0.299  22.748  0.00  0.00    +0.172 A 
ATOM     10  N   UNL     1       9.975  -0.565  21.778  0.00  0.00    -0.229 NA
ATOM     11  C   UNL     1       9.477  -1.726  22.131  0.00  0.00    +0.203 A 
ATOM     12  N   UNL     1       8.713  -1.635  23.275  0.00  0.00    -0.285 N 
ATOM     13  C   UNL     1       8.799  -0.341  23.707  0.00  0.00    +0.171 A 
ATOM     14  N   UNL     1       8.233   0.191  24.820  0.00  0.00    -0.196 NA
ENDROOT
BRANCH  12  15
ATOM     15  C   UNL     1       7.915  -2.720  23.814  0.00  0.00    +0.254 C 
ATOM     16  C   UNL     1       8.721  -3.939  24.291  0.00  0.00    +0.209 C 
ATOM     17  C   UNL     1       7.908  -5.109  23.771  0.00  0.00    +0.192 C 
ATOM     18  O   UNL     1       6.916  -5.385  24.772  0.00  0.00    -0.302 OA
ATOM     19  P   UNL     1       7.343  -4.749  26.196  0.00  0.00    +0.307 P 
ATOM     20  S   UNL     1       6.057  -3.643  27.080  0.00  0.00    +0.022 S 
ATOM     21  C   UNL     1       7.271  -4.545  22.517  0.00  0.00    +0.178 C 
ATOM     22  O   UNL     1       8.735  -4.076  25.715  0.00  0.00    -0.300 OA
ATOM     23  O   UNL     1       6.966  -3.165  22.819  0.00  0.00    -0.346 OA
BRANCH  19  24
ATOM     24  O   UNL     1       7.821  -6.064  26.973  0.00  0.00    -0.327 OA
ATOM     25  H   UNL     1       7.255  -6.830  26.759  0.00  0.00    +0.219 HD
ENDBRANCH  19  24
BRANCH  21  26
ATOM     26  C   UNL     1       6.008  -5.291  22.088  0.00  0.00    +0.190 C 
BRANCH  26  27
ATOM     27  O   UNL     1       6.222  -6.700  22.098  0.00  0.00    -0.392 OA
ATOM     28  H   UNL     1       6.927  -6.881  22.748  0.00  0.00    +0.210 HD
ENDBRANCH  26  27
ENDBRANCH  21  26
ENDBRANCH  12  15
TORSDOF 4
ENDMDL
MODEL 2
REMARK VINA RESULT:      -7.0      1.865      2.086
REMARK  Name = 
REMARK  4 active torsions:
REMARK  status: ('A' for Active; 'I' for Inactive)
REMARK    1  A    between atoms: N_8  and  C_9
REMARK    2  A    between atoms: C_12  and  C_14
REMARK    3  A    between atoms: C_14  and  O_15
REMARK    4  A    between atoms: P_19  and  O_20
REMARK                            x       y       z     vdW  Elec       q    Type
REMARK                         _______ _______ _______ _____ _____    ______ ____
ROOT
ATOM      1  N   UNL     1       6.728   2.747  26.826  0.00  0.00    -0.329 N 
ATOM      2  H   UNL     1       6.259   3.644  26.804  0.00  0.00    +0.145 HD
ATOM      3  H   UNL     1       6.136   1.977  27.122  0.00  0.00    +0.145 HD
ATOM      4  C   UNL     1       7.580   2.447  25.816  0.00  0.00    +0.195 A 
ATOM      5  N   UNL     1       8.236   3.516  25.237  0.00  0.00    -0.293 N 
ATOM      6  H   UNL     1       8.084   4.451  25.581  0.00  0.00    +0.172 HD
ATOM      7  C   UNL     1       9.177   3.414  24.218  0.00  0.00    +0.280 A 
ATOM      8  O   UNL     1       9.724   4.401  23.733  0.00  0.00    -0.265 OA
ATOM      9  C   UNL     1       9.388   2.044  23.819  0.00  0.00    +0.172 A 
ATOM     10  N   UNL     1      10.226   1.522  22.876  0.00  0.00    -0.229 NA
ATOM     11  C   UNL     1      10.002   0.230  22.915  0.00  0.00    +0.203 A 
ATOM     12  N   UNL     1       9.018  -0.098  23.823  0.00  0.00    -0.285 N 
ATOM     13  C   UNL     1       8.651   1.062  24.446  0.00  0.00    +0.171 A 
ATOM     14  N   UNL     1       7.738   1.206  25.439  0.00  0.00    -0.196 NA
ENDROOT
BRANCH  12  15
ATOM     15  C   UNL     1       8.453  -1.426  23.972  0.00  0.00    +0.254 C 
ATOM     16  C   UNL     1       9.239  -2.545  23.270  0.00  0.00    +0.209 C 
ATOM     17  C   UNL     1       8.146  -3.385  22.638  0.00  0.00    +0.192 C 
ATOM     18  O   UNL     1       7.728  -4.321  23.643  0.00  0.00    -0.302 OA
ATOM     19  P   UNL     1       8.855  -4.473  24.793  0.00  0.00    +0.307 P 
ATOM     20  S   UNL     1       8.289  -4.256  26.607  0.00  0.00    +0.022 S 
ATOM     21  C   UNL     1       7.058  -2.366  22.360  0.00  0.00    +0.178 C 
ATOM     22  O   UNL     1       9.916  -3.411  24.185  0.00  0.00    -0.300 OA
ATOM     23  O   UNL     1       7.099  -1.437  23.467  0.00  0.00    -0.346 OA
BRANCH  19  24
ATOM     24  O   UNL     1       9.489  -5.889  24.397  0.00  0.00    -0.327 OA
ATOM     25  H   UNL     1       9.931  -5.851  23.528  0.00  0.00    +0.219 HD
ENDBRANCH  19  24
BRANCH  21  26
ATOM     26  C   UNL     1       5.666  -2.983  22.231  0.00  0.00    +0.190 C 
BRANCH  26  27
ATOM     27  O   UNL     1       5.684  -4.096  21.339  0.00  0.00    -0.392 OA
ATOM     28  H   UNL     1       6.620  -4.303  21.155  0.00  0.00    +0.210 HD
ENDBRANCH  26  27
ENDBRANCH  21  26
ENDBRANCH  12  15
TORSDOF 4
ENDMDL
MODEL 3
REMARK VINA RESULT:      -7.0      1.995      2.693
REMARK  Name = 
REMARK  4 active torsions:
REMARK  status: ('A' for Active; 'I' for Inactive)
REMARK    1  A    between atoms: N_8  and  C_9
REMARK    2  A    between atoms: C_12  and  C_14
REMARK    3  A    between atoms: C_14  and  O_15
REMARK    4  A    between atoms: P_19  and  O_20
REMARK                            x       y       z     vdW  Elec       q    Type
REMARK                         _______ _______ _______ _____ _____    ______ ____
ROOT
ATOM      1  N   UNL     1       7.848   1.254  26.691  0.00  0.00    -0.329 N 
ATOM      2  H   UNL     1       7.394   2.144  26.850  0.00  0.00    +0.145 HD
ATOM      3  H   UNL     1       7.403   0.472  27.161  0.00  0.00    +0.145 HD
ATOM      4  C   UNL     1       8.298   0.980  25.442  0.00  0.00    +0.195 A 
ATOM      5  N   UNL     1       8.702   2.066  24.690  0.00  0.00    -0.293 N 
ATOM      6  H   UNL     1       8.672   2.994  25.082  0.00  0.00    +0.172 HD
ATOM      7  C   UNL     1       9.230   1.991  23.406  0.00  0.00    +0.280 A 
ATOM      8  O   UNL     1       9.566   2.991  22.778  0.00  0.00    -0.265 OA
ATOM      9  C   UNL     1       9.299   0.629  22.934  0.00  0.00    +0.172 A 
ATOM     10  N   UNL     1       9.760   0.133  21.748  0.00  0.00    -0.229 NA
ATOM     11  C   UNL     1       9.573  -1.164  21.840  0.00  0.00    +0.203 A 
ATOM     12  N   UNL     1       8.970  -1.518  23.028  0.00  0.00    -0.285 N 
ATOM     13  C   UNL     1       8.835  -0.371  23.760  0.00  0.00    +0.171 A 
ATOM     14  N   UNL     1       8.324  -0.254  25.012  0.00  0.00    -0.196 NA
ENDROOT
BRANCH  12  15
ATOM     15  C   UNL     1       8.503  -2.854  23.340  0.00  0.00    +0.254 C 
ATOM     16  C   UNL     1       7.124  -2.915  24.018  0.00  0.00    +0.209 C 
ATOM     17  C   UNL     1       7.323  -3.956  25.102  0.00  0.00    +0.192 C 
ATOM     18  O   UNL     1       7.068  -5.229  24.489  0.00  0.00    -0.302 OA
ATOM     19  P   UNL     1       6.212  -5.051  23.129  0.00  0.00    +0.307 P 
ATOM     20  S   UNL     1       6.897  -5.886  21.550  0.00  0.00    +0.022 S 
ATOM     21  C   UNL     1       8.791  -3.805  25.448  0.00  0.00    +0.178 C 
ATOM     22  O   UNL     1       6.104  -3.436  23.161  0.00  0.00    -0.300 OA
ATOM     23  O   UNL     1       9.460  -3.515  24.200  0.00  0.00    -0.346 OA
BRANCH  19  24
ATOM     24  O   UNL     1       4.767  -5.524  23.629  0.00  0.00    -0.327 OA
ATOM     25  H   UNL     1       4.195  -4.761  23.838  0.00  0.00    +0.219 HD
ENDBRANCH  19  24
BRANCH  21  26
ATOM     26  C   UNL     1       9.394  -5.049  26.100  0.00  0.00    +0.190 C 
BRANCH  26  27
ATOM     27  O   UNL     1       9.973  -5.906  25.118  0.00  0.00    -0.392 OA
ATOM     28  H   UNL     1       9.957  -6.813  25.480  0.00  0.00    +0.210 HD
ENDBRANCH  26  27
ENDBRANCH  21  26
ENDBRANCH  12  15
TORSDOF 4
ENDMDL
MODEL 4
REMARK VINA RESULT:      -6.9      3.927      6.739
REMARK  Name = 
REMARK  4 active torsions:
REMARK  status: ('A' for Active; 'I' for Inactive)
REMARK    1  A    between atoms: N_8  and  C_9
REMARK    2  A    between atoms: C_12  and  C_14
REMARK    3  A    between atoms: C_14  and  O_15
REMARK    4  A    between atoms: P_19  and  O_20
REMARK                            x       y       z     vdW  Elec       q    Type
REMARK                         _______ _______ _______ _____ _____    ______ ____
ROOT
ATOM      1  N   UNL     1      10.357  -5.460  25.586  0.00  0.00    -0.329 N 
ATOM      2  H   UNL     1      10.408  -6.456  25.413  0.00  0.00    +0.145 HD
ATOM      3  H   UNL     1      10.851  -4.894  24.903  0.00  0.00    +0.145 HD
ATOM      4  C   UNL     1       9.174  -4.943  25.997  0.00  0.00    +0.195 A 
ATOM      5  N   UNL     1       8.371  -5.780  26.746  0.00  0.00    -0.293 N 
ATOM      6  H   UNL     1       8.684  -6.710  26.977  0.00  0.00    +0.172 HD
ATOM      7  C   UNL     1       7.143  -5.426  27.294  0.00  0.00    +0.280 A 
ATOM      8  O   UNL     1       6.466  -6.215  27.947  0.00  0.00    -0.265 OA
ATOM      9  C   UNL     1       6.788  -4.064  26.976  0.00  0.00    +0.172 A 
ATOM     10  N   UNL     1       5.687  -3.338  27.326  0.00  0.00    -0.229 NA
ATOM     11  C   UNL     1       5.867  -2.169  26.755  0.00  0.00    +0.203 A 
ATOM     12  N   UNL     1       7.027  -2.129  26.012  0.00  0.00    -0.285 N 
ATOM     13  C   UNL     1       7.653  -3.332  26.190  0.00  0.00    +0.171 A 
ATOM     14  N   UNL     1       8.847  -3.719  25.674  0.00  0.00    -0.196 NA
ENDROOT
BRANCH  12  15
ATOM     15  C   UNL     1       7.408  -1.027  25.150  0.00  0.00    +0.254 C 
ATOM     16  C   UNL     1       8.383  -0.020  25.782  0.00  0.00    +0.209 C 
ATOM     17  C   UNL     1       7.820   1.319  25.344  0.00  0.00    +0.192 C 
ATOM     18  O   UNL     1       8.389   1.591  24.054  0.00  0.00    -0.302 OA
ATOM     19  P   UNL     1       9.718   0.703  23.812  0.00  0.00    +0.307 P 
ATOM     20  S   UNL     1       9.805  -0.317  22.196  0.00  0.00    +0.022 S 
ATOM     21  C   UNL     1       6.335   1.039  25.235  0.00  0.00    +0.178 C 
ATOM     22  O   UNL     1       9.698  -0.091  25.223  0.00  0.00    -0.300 OA
ATOM     23  O   UNL     1       6.226  -0.310  24.727  0.00  0.00    -0.346 OA
BRANCH  19  24
ATOM     24  O   UNL     1      10.854   1.810  24.031  0.00  0.00    -0.327 OA
ATOM     25  H   UNL     1      11.604   1.676  23.420  0.00  0.00    +0.219 HD
ENDBRANCH  19  24
BRANCH  21  26
ATOM     26  C   UNL     1       5.598   2.015  24.318  0.00  0.00    +0.190 C 
BRANCH  26  27
ATOM     27  O   UNL     1       5.741   1.633  22.951  0.00  0.00    -0.392 OA
ATOM     28  H   UNL     1       4.854   1.385  22.626  0.00  0.00    +0.210 HD
ENDBRANCH  26  27
ENDBRANCH  21  26
ENDBRANCH  12  15
TORSDOF 4
ENDMDL
MODEL 5
REMARK VINA RESULT:      -6.8      3.135      6.765
REMARK  Name = 
REMARK  4 active torsions:
REMARK  status: ('A' for Active; 'I' for Inactive)
REMARK    1  A    between atoms: N_8  and  C_9
REMARK    2  A    between atoms: C_12  and  C_14
REMARK    3  A    between atoms: C_14  and  O_15
REMARK    4  A    between atoms: P_19  and  O_20
REMARK                            x       y       z     vdW  Elec       q    Type
REMARK                         _______ _______ _______ _____ _____    ______ ____
ROOT
ATOM      1  N   UNL     1       4.777  -3.333  24.225  0.00  0.00    -0.329 N 
ATOM      2  H   UNL     1       4.398  -4.069  24.808  0.00  0.00    +0.145 HD
ATOM      3  H   UNL     1       4.288  -2.447  24.307  0.00  0.00    +0.145 HD
ATOM      4  C   UNL     1       6.124  -3.227  24.124  0.00  0.00    +0.195 A 
ATOM      5  N   UNL     1       6.836  -4.405  24.239  0.00  0.00    -0.293 N 
ATOM      6  H   UNL     1       6.353  -5.279  24.368  0.00  0.00    +0.172 HD
ATOM      7  C   UNL     1       8.218  -4.512  24.124  0.00  0.00    +0.280 A 
ATOM      8  O   UNL     1       8.802  -5.586  24.242  0.00  0.00    -0.265 OA
ATOM      9  C   UNL     1       8.836  -3.232  23.878  0.00  0.00    +0.172 A 
ATOM     10  N   UNL     1      10.151  -2.912  23.695  0.00  0.00    -0.229 NA
ATOM     11  C   UNL     1      10.153  -1.609  23.531  0.00  0.00    +0.203 A 
ATOM     12  N   UNL     1       8.888  -1.072  23.642  0.00  0.00    -0.285 N 
ATOM     13  C   UNL     1       8.027  -2.118  23.818  0.00  0.00    +0.171 A 
ATOM     14  N   UNL     1       6.676  -2.057  23.937  0.00  0.00    -0.196 NA
ENDROOT
BRANCH  12  15
ATOM     15  C   UNL     1       8.604   0.350  23.659  0.00  0.00    +0.254 C 
ATOM     16  C   UNL     1       8.244   0.954  22.292  0.00  0.00    +0.209 C 
ATOM     17  C   UNL     1       9.015   2.260  22.283  0.00  0.00    +0.192 C 
ATOM     18  O   UNL     1       8.170   3.229  22.922  0.00  0.00    -0.302 OA
ATOM     19  P   UNL     1       6.630   2.735  22.928  0.00  0.00    +0.307 P 
ATOM     20  S   UNL     1       5.715   2.745  24.607  0.00  0.00    +0.022 S 
ATOM     21  C   UNL     1      10.223   1.943  23.141  0.00  0.00    +0.178 C 
ATOM     22  O   UNL     1       6.864   1.314  22.186  0.00  0.00    -0.300 OA
ATOM     23  O   UNL     1       9.743   1.067  24.186  0.00  0.00    -0.346 OA
BRANCH  19  24
ATOM     24  O   UNL     1       6.023   3.657  21.768  0.00  0.00    -0.327 OA
ATOM     25  H   UNL     1       6.274   3.328  20.883  0.00  0.00    +0.219 HD
ENDBRANCH  19  24
BRANCH  21  26
ATOM     26  C   UNL     1      10.883   3.183  23.745  0.00  0.00    +0.190 C 
BRANCH  26  27
ATOM     27  O   UNL     1      11.264   4.103  22.723  0.00  0.00    -0.392 OA
ATOM     28  H   UNL     1      12.181   3.887  22.467  0.00  0.00    +0.210 HD
ENDBRANCH  26  27
ENDBRANCH  21  26
ENDBRANCH  12  15
TORSDOF 4
ENDMDL
MODEL 6
REMARK VINA RESULT:      -6.8      1.951      2.846
REMARK  Name = 
REMARK  4 active torsions:
REMARK  status: ('A' for Active; 'I' for Inactive)
REMARK    1  A    between atoms: N_8  and  C_9
REMARK    2  A    between atoms: C_12  and  C_14
REMARK    3  A    between atoms: C_14  and  O_15
REMARK    4  A    between atoms: P_19  and  O_20
REMARK                            x       y       z     vdW  Elec       q    Type
REMARK                         _______ _______ _______ _____ _____    ______ ____
ROOT
ATOM      1  N   UNL     1       9.690   1.853  21.476  0.00  0.00    -0.329 N 
ATOM      2  H   UNL     1      10.465   2.495  21.367  0.00  0.00    +0.145 HD
ATOM      3  H   UNL     1       9.817   0.966  20.999  0.00  0.00    +0.145 HD
ATOM      4  C   UNL     1       9.103   1.760  22.693  0.00  0.00    +0.195 A 
ATOM      5  N   UNL     1       9.118   2.905  23.465  0.00  0.00    -0.293 N 
ATOM      6  H   UNL     1       9.530   3.752  23.107  0.00  0.00    +0.172 HD
ATOM      7  C   UNL     1       8.535   3.025  24.722  0.00  0.00    +0.280 A 
ATOM      8  O   UNL     1       8.586   4.068  25.368  0.00  0.00    -0.265 OA
ATOM      9  C   UNL     1       7.912   1.794  25.143  0.00  0.00    +0.172 A 
ATOM     10  N   UNL     1       7.231   1.501  26.289  0.00  0.00    -0.229 NA
ATOM     11  C   UNL     1       6.898   0.238  26.161  0.00  0.00    +0.203 A 
ATOM     12  N   UNL     1       7.377  -0.307  24.989  0.00  0.00    -0.285 N 
ATOM     13  C   UNL     1       7.990   0.704  24.303  0.00  0.00    +0.171 A 
ATOM     14  N   UNL     1       8.572   0.629  23.079  0.00  0.00    -0.196 NA
ENDROOT
BRANCH  12  15
ATOM     15  C   UNL     1       7.297  -1.715  24.650  0.00  0.00    +0.254 C 
ATOM     16  C   UNL     1       8.602  -2.324  24.109  0.00  0.00    +0.209 C 
ATOM     17  C   UNL     1       8.123  -3.183  22.955  0.00  0.00    +0.192 C 
ATOM     18  O   UNL     1       7.773  -4.456  23.519  0.00  0.00    -0.302 OA
ATOM     19  P   UNL     1       8.470  -4.656  24.965  0.00  0.00    +0.307 P 
ATOM     20  S   UNL     1       7.336  -5.156  26.420  0.00  0.00    +0.022 S 
ATOM     21  C   UNL     1       6.889  -2.444  22.475  0.00  0.00    +0.178 C 
ATOM     22  O   UNL     1       9.223  -3.223  25.032  0.00  0.00    -0.300 OA
ATOM     23  O   UNL     1       6.259  -1.920  23.666  0.00  0.00    -0.346 OA
BRANCH  19  24
ATOM     24  O   UNL     1       9.649  -5.669  24.584  0.00  0.00    -0.327 OA
ATOM     25  H   UNL     1       9.399  -6.594  24.771  0.00  0.00    +0.219 HD
ENDBRANCH  19  24
BRANCH  21  26
ATOM     26  C   UNL     1       5.913  -3.330  21.700  0.00  0.00    +0.190 C 
BRANCH  26  27
ATOM     27  O   UNL     1       4.911  -3.859  22.566  0.00  0.00    -0.392 OA
ATOM     28  H   UNL     1       4.204  -3.189  22.634  0.00  0.00    +0.210 HD
ENDBRANCH  26  27
ENDBRANCH  21  26
ENDBRANCH  12  15
TORSDOF 4
ENDMDL
MODEL 7
REMARK VINA RESULT:      -6.8      2.055      2.377
REMARK  Name = 
REMARK  4 active torsions:
REMARK  status: ('A' for Active; 'I' for Inactive)
REMARK    1  A    between atoms: N_8  and  C_9
REMARK    2  A    between atoms: C_12  and  C_14
REMARK    3  A    between atoms: C_14  and  O_15
REMARK    4  A    between atoms: P_19  and  O_20
REMARK                            x       y       z     vdW  Elec       q    Type
REMARK                         _______ _______ _______ _____ _____    ______ ____
ROOT
ATOM      1  N   UNL     1       7.571   1.247  26.953  0.00  0.00    -0.329 N 
ATOM      2  H   UNL     1       7.645   2.215  26.669  0.00  0.00    +0.145 HD
ATOM      3  H   UNL     1       6.664   0.993  27.331  0.00  0.00    +0.145 HD
ATOM      4  C   UNL     1       8.135   0.304  26.160  0.00  0.00    +0.195 A 
ATOM      5  N   UNL     1       9.253   0.695  25.451  0.00  0.00    -0.293 N 
ATOM      6  H   UNL     1       9.618   1.629  25.553  0.00  0.00    +0.172 HD
ATOM      7  C   UNL     1       9.997  -0.133  24.617  0.00  0.00    +0.280 A 
ATOM      8  O   UNL     1      10.980   0.271  24.003  0.00  0.00    -0.265 OA
ATOM      9  C   UNL     1       9.454  -1.468  24.566  0.00  0.00    +0.172 A 
ATOM     10  N   UNL     1       9.888  -2.569  23.885  0.00  0.00    -0.229 NA
ATOM     11  C   UNL     1       9.017  -3.505  24.181  0.00  0.00    +0.203 A 
ATOM     12  N   UNL     1       8.010  -3.036  24.998  0.00  0.00    -0.285 N 
ATOM     13  C   UNL     1       8.312  -1.735  25.291  0.00  0.00    +0.171 A 
ATOM     14  N   UNL     1       7.614  -0.894  26.095  0.00  0.00    -0.196 NA
ENDROOT
BRANCH  12  15
ATOM     15  C   UNL     1       6.832  -3.799  25.362  0.00  0.00    +0.254 C 
ATOM     16  C   UNL     1       7.071  -5.306  25.552  0.00  0.00    +0.209 C 
ATOM     17  C   UNL     1       5.872  -5.930  24.864  0.00  0.00    +0.192 C 
ATOM     18  O   UNL     1       4.826  -5.981  25.847  0.00  0.00    -0.302 OA
ATOM     19  P   UNL     1       5.434  -5.861  27.341  0.00  0.00    +0.307 P 
ATOM     20  S   UNL     1       4.675  -4.534  28.490  0.00  0.00    +0.022 S 
ATOM     21  C   UNL     1       5.547  -4.924  23.778  0.00  0.00    +0.178 C 
ATOM     22  O   UNL     1       6.992  -5.715  26.920  0.00  0.00    -0.300 OA
ATOM     23  O   UNL     1       5.810  -3.625  24.355  0.00  0.00    -0.346 OA
BRANCH  19  24
ATOM     24  O   UNL     1       5.327  -7.383  27.823  0.00  0.00    -0.327 OA
ATOM     25  H   UNL     1       4.418  -7.725  27.726  0.00  0.00    +0.219 HD
ENDBRANCH  19  24
BRANCH  21  26
ATOM     26  C   UNL     1       4.102  -5.006  23.285  0.00  0.00    +0.190 C 
BRANCH  26  27
ATOM     27  O   UNL     1       3.778  -6.336  22.885  0.00  0.00    -0.392 OA
ATOM     28  H   UNL     1       4.247  -6.943  23.490  0.00  0.00    +0.210 HD
ENDBRANCH  26  27
ENDBRANCH  21  26
ENDBRANCH  12  15
TORSDOF 4
ENDMDL
MODEL 8
REMARK VINA RESULT:      -6.7      4.460      6.967
REMARK  Name = 
REMARK  4 active torsions:
REMARK  status: ('A' for Active; 'I' for Inactive)
REMARK    1  A    between atoms: N_8  and  C_9
REMARK    2  A    between atoms: C_12  and  C_14
REMARK    3  A    between atoms: C_14  and  O_15
REMARK    4  A    between atoms: P_19  and  O_20
REMARK                            x       y       z     vdW  Elec       q    Type
REMARK                         _______ _______ _______ _____ _____    ______ ____
ROOT
ATOM      1  N   UNL     1       2.597  -7.157  25.352  0.00  0.00    -0.329 N 
ATOM      2  H   UNL     1       1.715  -7.178  25.849  0.00  0.00    +0.145 HD
ATOM      3  H   UNL     1       2.538  -6.763  24.418  0.00  0.00    +0.145 HD
ATOM      4  C   UNL     1       3.711  -6.810  26.042  0.00  0.00    +0.195 A 
ATOM      5  N   UNL     1       3.722  -7.137  27.383  0.00  0.00    -0.293 N 
ATOM      6  H   UNL     1       2.941  -7.624  27.793  0.00  0.00    +0.172 HD
ATOM      7  C   UNL     1       4.783  -6.903  28.250  0.00  0.00    +0.280 A 
ATOM      8  O   UNL     1       4.736  -7.208  29.439  0.00  0.00    -0.265 OA
ATOM      9  C   UNL     1       5.888  -6.259  27.582  0.00  0.00    +0.172 A 
ATOM     10  N   UNL     1       7.105  -5.875  28.068  0.00  0.00    -0.229 NA
ATOM     11  C   UNL     1       7.711  -5.325  27.040  0.00  0.00    +0.203 A 
ATOM     12  N   UNL     1       6.911  -5.304  25.918  0.00  0.00    -0.285 N 
ATOM     13  C   UNL     1       5.751  -5.949  26.246  0.00  0.00    +0.171 A 
ATOM     14  N   UNL     1       4.692  -6.195  25.434  0.00  0.00    -0.196 NA
ENDROOT
BRANCH  12  15
ATOM     15  C   UNL     1       7.253  -4.625  24.684  0.00  0.00    +0.254 C 
ATOM     16  C   UNL     1       6.345  -3.436  24.327  0.00  0.00    +0.209 C 
ATOM     17  C   UNL     1       6.117  -3.616  22.838  0.00  0.00    +0.192 C 
ATOM     18  O   UNL     1       7.215  -2.962  22.183  0.00  0.00    -0.302 OA
ATOM     19  P   UNL     1       7.933  -1.907  23.176  0.00  0.00    +0.307 P 
ATOM     20  S   UNL     1       9.829  -2.048  23.379  0.00  0.00    +0.022 S 
ATOM     21  C   UNL     1       6.199  -5.119  22.665  0.00  0.00    +0.178 C 
ATOM     22  O   UNL     1       6.997  -2.172  24.472  0.00  0.00    -0.300 OA
ATOM     23  O   UNL     1       7.220  -5.565  23.586  0.00  0.00    -0.346 OA
BRANCH  19  24
ATOM     24  O   UNL     1       7.368  -0.527  22.594  0.00  0.00    -0.327 OA
ATOM     25  H   UNL     1       6.471  -0.636  22.223  0.00  0.00    +0.219 HD
ENDBRANCH  19  24
BRANCH  21  26
ATOM     26  C   UNL     1       6.542  -5.550  21.239  0.00  0.00    +0.190 C 
BRANCH  26  27
ATOM     27  O   UNL     1       5.862  -4.735  20.286  0.00  0.00    -0.392 OA
ATOM     28  H   UNL     1       5.897  -3.816  20.614  0.00  0.00    +0.210 HD
ENDBRANCH  26  27
ENDBRANCH  21  26
ENDBRANCH  12  15
TORSDOF 4
ENDMDL
MODEL 9
REMARK VINA RESULT:      -6.7      3.798      6.515
REMARK  Name = 
REMARK  4 active torsions:
REMARK  status: ('A' for Active; 'I' for Inactive)
REMARK    1  A    between atoms: N_8  and  C_9
REMARK    2  A    between atoms: C_12  and  C_14
REMARK    3  A    between atoms: C_14  and  O_15
REMARK    4  A    between atoms: P_19  and  O_20
REMARK                            x       y       z     vdW  Elec       q    Type
REMARK                         _______ _______ _______ _____ _____    ______ ____
ROOT
ATOM      1  N   UNL     1      10.289  -5.631  25.611  0.00  0.00    -0.329 N 
ATOM      2  H   UNL     1      10.296  -6.629  25.440  0.00  0.00    +0.145 HD
ATOM      3  H   UNL     1      10.808  -5.090  24.926  0.00  0.00    +0.145 HD
ATOM      4  C   UNL     1       9.130  -5.060  26.020  0.00  0.00    +0.195 A 
ATOM      5  N   UNL     1       8.291  -5.859  26.771  0.00  0.00    -0.293 N 
ATOM      6  H   UNL     1       8.562  -6.802  27.004  0.00  0.00    +0.172 HD
ATOM      7  C   UNL     1       7.080  -5.449  27.317  0.00  0.00    +0.280 A 
ATOM      8  O   UNL     1       6.368  -6.205  27.972  0.00  0.00    -0.265 OA
ATOM      9  C   UNL     1       6.787  -4.073  26.995  0.00  0.00    +0.172 A 
ATOM     10  N   UNL     1       5.718  -3.298  27.344  0.00  0.00    -0.229 NA
ATOM     11  C   UNL     1       5.950  -2.140  26.769  0.00  0.00    +0.203 A 
ATOM     12  N   UNL     1       7.112  -2.154  26.027  0.00  0.00    -0.285 N 
ATOM     13  C   UNL     1       7.683  -3.383  26.208  0.00  0.00    +0.171 A 
ATOM     14  N   UNL     1       8.859  -3.824  25.693  0.00  0.00    -0.196 NA
ENDROOT
BRANCH  12  15
ATOM     15  C   UNL     1       7.542  -1.072  25.162  0.00  0.00    +0.254 C 
ATOM     16  C   UNL     1       6.531  -0.676  24.073  0.00  0.00    +0.209 C 
ATOM     17  C   UNL     1       7.406  -0.488  22.848  0.00  0.00    +0.192 C 
ATOM     18  O   UNL     1       7.876   0.868  22.894  0.00  0.00    -0.302 OA
ATOM     19  P   UNL     1       6.942   1.768  23.861  0.00  0.00    +0.307 P 
ATOM     20  S   UNL     1       7.819   2.787  25.221  0.00  0.00    +0.022 S 
ATOM     21  C   UNL     1       8.540  -1.463  23.093  0.00  0.00    +0.178 C 
ATOM     22  O   UNL     1       5.921   0.596  24.314  0.00  0.00    -0.300 OA
ATOM     23  O   UNL     1       8.785  -1.430  24.518  0.00  0.00    -0.346 OA
BRANCH  19  24
ATOM     24  O   UNL     1       6.099   2.586  22.774  0.00  0.00    -0.327 OA
ATOM     25  H   UNL     1       5.595   1.988  22.189  0.00  0.00    +0.219 HD
ENDBRANCH  19  24
BRANCH  21  26
ATOM     26  C   UNL     1       9.816  -1.119  22.324  0.00  0.00    +0.190 C 
BRANCH  26  27
ATOM     27  O   UNL     1       9.514  -0.764  20.976  0.00  0.00    -0.392 OA
ATOM     28  H   UNL     1       9.244   0.174  20.978  0.00  0.00    +0.210 HD
ENDBRANCH  26  27
ENDBRANCH  21  26
ENDBRANCH  12  15
TORSDOF 4
ENDMDL
