MODEL 1
REMARK VINA RESULT:      -6.9      0.000      0.000
REMARK  Name = 
REMARK  4 active torsions:
REMARK  status: ('A' for Active; 'I' for Inactive)
REMARK    1  A    between atoms: O_1  and  C_2
REMARK    2  A    between atoms: N_8  and  C_9
REMARK    3  A    between atoms: C_9  and  C_10
REMARK    4  A    between atoms: C_10  and  C_11
REMARK                            x       y       z     vdW  Elec       q    Type
REMARK                         _______ _______ _______ _____ _____    ______ ____
ROOT
ATOM      1  C   UNL     1       6.794  -5.539  27.651  0.00  0.00    +0.384 C 
ATOM      2  O   UNL     1       7.090  -6.009  26.423  0.00  0.00    -0.441 OA
ATOM      3  C   UNL     1       7.228  -4.820  25.648  0.00  0.00    +0.137 C 
ATOM      4  C   UNL     1       8.716  -4.500  25.497  0.00  0.00    +0.065 C 
ATOM      5  C   UNL     1       8.947  -3.300  24.583  0.00  0.00    +0.088 C 
ATOM      6  N   UNL     1       8.300  -3.450  23.271  0.00  0.00    -0.302 NA
ATOM      7  C   UNL     1       6.868  -3.785  23.383  0.00  0.00    +0.088 C 
ATOM      8  C   UNL     1       6.627  -5.015  24.259  0.00  0.00    +0.065 C 
ATOM      9  C   UNL     1       6.471  -3.778  26.486  0.00  0.00    +0.196 C 
ATOM     10  N   UNL     1       6.477  -4.312  27.860  0.00  0.00    -0.213 NA
ENDROOT
BRANCH   1  11
ATOM     11  O   UNL     1       6.873  -6.448  28.621  0.00  0.00    -0.466 OA
ATOM     12  H   UNL     1       6.322  -6.126  29.353  0.00  0.00    +0.297 HD
ENDBRANCH   1  11
BRANCH   6  13
ATOM     13  C   UNL     1       8.458  -2.229  22.446  0.00  0.00    +0.089 C 
BRANCH  13  14
ATOM     14  C   UNL     1       9.914  -1.752  22.291  0.00  0.00    +0.050 C 
BRANCH  14  15
ATOM     15  C   UNL     1      10.075  -0.298  22.661  0.00  0.00    -0.046 A 
ATOM     16  C   UNL     1       9.738   0.709  21.749  0.00  0.00    +0.003 A 
ATOM     17  C   UNL     1       9.881   2.053  22.099  0.00  0.00    +0.000 A 
ATOM     18  C   UNL     1      10.358   2.400  23.361  0.00  0.00    +0.000 A 
ATOM     19  C   UNL     1      10.694   1.406  24.277  0.00  0.00    +0.000 A 
ATOM     20  C   UNL     1      10.552   0.062  23.930  0.00  0.00    +0.003 A 
ENDBRANCH  14  15
ENDBRANCH  13  14
ENDBRANCH   6  13
TORSDOF 4
ENDMDL
MODEL 2
REMARK VINA RESULT:      -6.8      2.296      2.977
REMARK  Name = 
REMARK  4 active torsions:
REMARK  status: ('A' for Active; 'I' for Inactive)
REMARK    1  A    between atoms: O_1  and  C_2
REMARK    2  A    between atoms: N_8  and  C_9
REMARK    3  A    between atoms: C_9  and  C_10
REMARK    4  A    between atoms: C_10  and  C_11
REMARK                            x       y       z     vdW  Elec       q    Type
REMARK                         _______ _______ _______ _____ _____    ______ ____
ROOT
ATOM      1  C   UNL     1       3.956  -5.760  22.978  0.00  0.00    +0.384 C 
ATOM      2  O   UNL     1       5.234  -6.089  22.705  0.00  0.00    -0.441 OA
ATOM      3  C   UNL     1       5.956  -4.919  23.085  0.00  0.00    +0.137 C 
ATOM      4  C   UNL     1       6.567  -5.146  24.468  0.00  0.00    +0.065 C 
ATOM      5  C   UNL     1       7.450  -3.977  24.896  0.00  0.00    +0.088 C 
ATOM      6  N   UNL     1       8.486  -3.654  23.903  0.00  0.00    -0.302 NA
ATOM      7  C   UNL     1       7.931  -3.455  22.552  0.00  0.00    +0.088 C 
ATOM      8  C   UNL     1       7.082  -4.641  22.094  0.00  0.00    +0.065 C 
ATOM      9  C   UNL     1       4.871  -3.832  23.077  0.00  0.00    +0.196 C 
ATOM     10  N   UNL     1       3.599  -4.557  23.253  0.00  0.00    -0.213 NA
ENDROOT
BRANCH   1  11
ATOM     11  O   UNL     1       3.107  -6.785  22.955  0.00  0.00    -0.466 OA
ATOM     12  H   UNL     1       3.635  -7.585  22.799  0.00  0.00    +0.297 HD
ENDBRANCH   1  11
BRANCH   6  13
ATOM     13  C   UNL     1       9.262  -2.454  24.299  0.00  0.00    +0.089 C 
BRANCH  13  14
ATOM     14  C   UNL     1      10.227  -1.936  23.217  0.00  0.00    +0.050 C 
BRANCH  14  15
ATOM     15  C   UNL     1      10.218  -0.429  23.125  0.00  0.00    -0.046 A 
ATOM     16  C   UNL     1       9.877   0.207  21.926  0.00  0.00    +0.003 A 
ATOM     17  C   UNL     1       9.862   1.600  21.849  0.00  0.00    +0.000 A 
ATOM     18  C   UNL     1      10.185   2.367  22.967  0.00  0.00    +0.000 A 
ATOM     19  C   UNL     1      10.524   1.743  24.166  0.00  0.00    +0.000 A 
ATOM     20  C   UNL     1      10.539   0.350  24.246  0.00  0.00    +0.003 A 
ENDBRANCH  14  15
ENDBRANCH  13  14
ENDBRANCH   6  13
TORSDOF 4
ENDMDL
MODEL 3
REMARK VINA RESULT:      -6.8      0.772      1.328
REMARK  Name = 
REMARK  4 active torsions:
REMARK  status: ('A' for Active; 'I' for Inactive)
REMARK    1  A    between atoms: O_1  and  C_2
REMARK    2  A    between atoms: N_8  and  C_9
REMARK    3  A    between atoms: C_9  and  C_10
REMARK    4  A    between atoms: C_10  and  C_11
REMARK                            x       y       z     vdW  Elec       q    Type
REMARK                         _______ _______ _______ _____ _____    ______ ____
ROOT
ATOM      1  C   UNL     1       6.243  -6.066  27.851  0.00  0.00    +0.384 C 
ATOM      2  O   UNL     1       6.276  -6.382  26.541  0.00  0.00    -0.441 OA
ATOM      3  C   UNL     1       6.782  -5.193  25.937  0.00  0.00    +0.137 C 
ATOM      4  C   UNL     1       8.273  -5.381  25.654  0.00  0.00    +0.065 C 
ATOM      5  C   UNL     1       8.861  -4.190  24.904  0.00  0.00    +0.088 C 
ATOM      6  N   UNL     1       8.123  -3.872  23.672  0.00  0.00    -0.302 NA
ATOM      7  C   UNL     1       6.676  -3.711  23.907  0.00  0.00    +0.088 C 
ATOM      8  C   UNL     1       6.066  -4.919  24.617  0.00  0.00    +0.065 C 
ATOM      9  C   UNL     1       6.501  -4.123  27.002  0.00  0.00    +0.196 C 
ATOM     10  N   UNL     1       6.400  -4.863  28.274  0.00  0.00    -0.213 NA
ENDROOT
BRANCH   1  11
ATOM     11  O   UNL     1       6.052  -7.105  28.662  0.00  0.00    -0.466 OA
ATOM     12  H   UNL     1       5.327  -6.864  29.261  0.00  0.00    +0.297 HD
ENDBRANCH   1  11
BRANCH   6  13
ATOM     13  C   UNL     1       8.656  -2.652  23.020  0.00  0.00    +0.089 C 
BRANCH  13  14
ATOM     14  C   UNL     1       9.877  -2.035  23.728  0.00  0.00    +0.050 C 
BRANCH  14  15
ATOM     15  C   UNL     1      10.033  -0.568  23.411  0.00  0.00    -0.046 A 
ATOM     16  C   UNL     1      10.518   0.320  24.378  0.00  0.00    +0.003 A 
ATOM     17  C   UNL     1      10.669   1.675  24.077  0.00  0.00    +0.000 A 
ATOM     18  C   UNL     1      10.339   2.151  22.809  0.00  0.00    +0.000 A 
ATOM     19  C   UNL     1       9.857   1.275  21.839  0.00  0.00    +0.000 A 
ATOM     20  C   UNL     1       9.706  -0.080  22.138  0.00  0.00    +0.003 A 
ENDBRANCH  14  15
ENDBRANCH  13  14
ENDBRANCH   6  13
TORSDOF 4
ENDMDL
MODEL 4
REMARK VINA RESULT:      -6.5      2.306      3.400
REMARK  Name = 
REMARK  4 active torsions:
REMARK  status: ('A' for Active; 'I' for Inactive)
REMARK    1  A    between atoms: O_1  and  C_2
REMARK    2  A    between atoms: N_8  and  C_9
REMARK    3  A    between atoms: C_9  and  C_10
REMARK    4  A    between atoms: C_10  and  C_11
REMARK                            x       y       z     vdW  Elec       q    Type
REMARK                         _______ _______ _______ _____ _____    ______ ____
ROOT
ATOM      1  C   UNL     1       5.116  -5.799  22.585  0.00  0.00    +0.384 C 
ATOM      2  O   UNL     1       5.366  -4.914  23.570  0.00  0.00    -0.441 OA
ATOM      3  C   UNL     1       6.685  -4.462  23.270  0.00  0.00    +0.137 C 
ATOM      4  C   UNL     1       6.592  -3.109  22.563  0.00  0.00    +0.065 C 
ATOM      5  C   UNL     1       7.971  -2.507  22.309  0.00  0.00    +0.088 C 
ATOM      6  N   UNL     1       8.785  -2.414  23.531  0.00  0.00    -0.302 NA
ATOM      7  C   UNL     1       8.872  -3.698  24.250  0.00  0.00    +0.088 C 
ATOM      8  C   UNL     1       7.495  -4.288  24.552  0.00  0.00    +0.065 C 
ATOM      9  C   UNL     1       7.230  -5.578  22.365  0.00  0.00    +0.196 C 
ATOM     10  N   UNL     1       6.035  -6.229  21.797  0.00  0.00    -0.213 NA
ENDROOT
BRANCH   1  11
ATOM     11  O   UNL     1       3.842  -6.171  22.491  0.00  0.00    -0.466 OA
ATOM     12  H   UNL     1       3.836  -7.063  22.107  0.00  0.00    +0.297 HD
ENDBRANCH   1  11
BRANCH   6  13
ATOM     13  C   UNL     1      10.152  -1.920  23.235  0.00  0.00    +0.089 C 
BRANCH  13  14
ATOM     14  C   UNL     1      10.230  -0.938  22.051  0.00  0.00    +0.050 C 
BRANCH  14  15
ATOM     15  C   UNL     1       9.786   0.451  22.439  0.00  0.00    -0.046 A 
ATOM     16  C   UNL     1      10.327   1.081  23.566  0.00  0.00    +0.003 A 
ATOM     17  C   UNL     1       9.920   2.369  23.916  0.00  0.00    +0.000 A 
ATOM     18  C   UNL     1       8.972   3.038  23.143  0.00  0.00    +0.000 A 
ATOM     19  C   UNL     1       8.429   2.421  22.018  0.00  0.00    +0.000 A 
ATOM     20  C   UNL     1       8.835   1.133  21.666  0.00  0.00    +0.003 A 
ENDBRANCH  14  15
ENDBRANCH  13  14
ENDBRANCH   6  13
TORSDOF 4
ENDMDL
MODEL 5
REMARK VINA RESULT:      -6.5      4.282      7.205
REMARK  Name = 
REMARK  4 active torsions:
REMARK  status: ('A' for Active; 'I' for Inactive)
REMARK    1  A    between atoms: O_1  and  C_2
REMARK    2  A    between atoms: N_8  and  C_9
REMARK    3  A    between atoms: C_9  and  C_10
REMARK    4  A    between atoms: C_10  and  C_11
REMARK                            x       y       z     vdW  Elec       q    Type
REMARK                         _______ _______ _______ _____ _____    ______ ____
ROOT
ATOM      1  C   UNL     1       7.522   3.525  22.207  0.00  0.00    +0.384 C 
ATOM      2  O   UNL     1       8.681   3.239  22.832  0.00  0.00    -0.441 OA
ATOM      3  C   UNL     1       8.649   1.817  22.934  0.00  0.00    +0.137 C 
ATOM      4  C   UNL     1       9.514   1.223  21.822  0.00  0.00    +0.065 C 
ATOM      5  C   UNL     1       9.620  -0.295  21.934  0.00  0.00    +0.088 C 
ATOM      6  N   UNL     1      10.080  -0.736  23.259  0.00  0.00    -0.302 NA
ATOM      7  C   UNL     1       9.282  -0.160  24.356  0.00  0.00    +0.088 C 
ATOM      8  C   UNL     1       9.208   1.365  24.280  0.00  0.00    +0.065 C 
ATOM      9  C   UNL     1       7.155   1.497  22.770  0.00  0.00    +0.196 C 
ATOM     10  N   UNL     1       6.592   2.653  22.047  0.00  0.00    -0.213 NA
ENDROOT
BRANCH   1  11
ATOM     11  O   UNL     1       7.433   4.775  21.758  0.00  0.00    -0.466 OA
ATOM     12  H   UNL     1       7.187   5.330  22.516  0.00  0.00    +0.297 HD
ENDBRANCH   1  11
BRANCH   6  13
ATOM     13  C   UNL     1      10.076  -2.215  23.370  0.00  0.00    +0.089 C 
BRANCH  13  14
ATOM     14  C   UNL     1       8.910  -2.786  24.198  0.00  0.00    +0.050 C 
BRANCH  14  15
ATOM     15  C   UNL     1       7.926  -3.545  23.340  0.00  0.00    -0.046 A 
ATOM     16  C   UNL     1       7.890  -4.944  23.370  0.00  0.00    +0.003 A 
ATOM     17  C   UNL     1       6.974  -5.641  22.581  0.00  0.00    +0.000 A 
ATOM     18  C   UNL     1       6.086  -4.947  21.761  0.00  0.00    +0.000 A 
ATOM     19  C   UNL     1       6.112  -3.555  21.726  0.00  0.00    +0.000 A 
ATOM     20  C   UNL     1       7.027  -2.856  22.514  0.00  0.00    +0.003 A 
ENDBRANCH  14  15
ENDBRANCH  13  14
ENDBRANCH   6  13
TORSDOF 4
ENDMDL
MODEL 6
REMARK VINA RESULT:      -6.5      2.186      3.342
REMARK  Name = 
REMARK  4 active torsions:
REMARK  status: ('A' for Active; 'I' for Inactive)
REMARK    1  A    between atoms: O_1  and  C_2
REMARK    2  A    between atoms: N_8  and  C_9
REMARK    3  A    between atoms: C_9  and  C_10
REMARK    4  A    between atoms: C_10  and  C_11
REMARK                            x       y       z     vdW  Elec       q    Type
REMARK                         _______ _______ _______ _____ _____    ______ ____
ROOT
ATOM      1  C   UNL     1       9.189  -4.772  25.379  0.00  0.00    +0.384 C 
ATOM      2  O   UNL     1       8.934  -4.448  24.096  0.00  0.00    -0.441 OA
ATOM      3  C   UNL     1       8.762  -3.033  24.151  0.00  0.00    +0.137 C 
ATOM      4  C   UNL     1      10.057  -2.361  23.691  0.00  0.00    +0.065 C 
ATOM      5  C   UNL     1       9.912  -0.844  23.616  0.00  0.00    +0.088 C 
ATOM      6  N   UNL     1       8.771  -0.421  22.789  0.00  0.00    -0.302 NA
ATOM      7  C   UNL     1       7.511  -1.073  23.190  0.00  0.00    +0.088 C 
ATOM      8  C   UNL     1       7.631  -2.596  23.224  0.00  0.00    +0.065 C 
ATOM      9  C   UNL     1       8.448  -2.785  25.634  0.00  0.00    +0.196 C 
ATOM     10  N   UNL     1       9.017  -3.944  26.346  0.00  0.00    -0.213 NA
ENDROOT
BRANCH   1  11
ATOM     11  O   UNL     1       9.646  -6.011  25.552  0.00  0.00    -0.466 OA
ATOM     12  H   UNL     1       9.994  -6.059  26.457  0.00  0.00    +0.297 HD
ENDBRANCH   1  11
BRANCH   6  13
ATOM     13  C   UNL     1       8.597   1.051  22.817  0.00  0.00    +0.089 C 
BRANCH  13  14
ATOM     14  C   UNL     1       8.906   1.701  24.178  0.00  0.00    +0.050 C 
BRANCH  14  15
ATOM     15  C   UNL     1       9.600   3.033  24.024  0.00  0.00    -0.046 A 
ATOM     16  C   UNL     1       8.979   4.211  24.455  0.00  0.00    +0.003 A 
ATOM     17  C   UNL     1       9.627   5.439  24.318  0.00  0.00    +0.000 A 
ATOM     18  C   UNL     1      10.900   5.499  23.753  0.00  0.00    +0.000 A 
ATOM     19  C   UNL     1      11.528   4.332  23.323  0.00  0.00    +0.000 A 
ATOM     20  C   UNL     1      10.881   3.103  23.459  0.00  0.00    +0.003 A 
ENDBRANCH  14  15
ENDBRANCH  13  14
ENDBRANCH   6  13
TORSDOF 4
ENDMDL
MODEL 7
REMARK VINA RESULT:      -6.5      4.214      7.481
REMARK  Name = 
REMARK  4 active torsions:
REMARK  status: ('A' for Active; 'I' for Inactive)
REMARK    1  A    between atoms: O_1  and  C_2
REMARK    2  A    between atoms: N_8  and  C_9
REMARK    3  A    between atoms: C_9  and  C_10
REMARK    4  A    between atoms: C_10  and  C_11
REMARK                            x       y       z     vdW  Elec       q    Type
REMARK                         _______ _______ _______ _____ _____    ______ ____
ROOT
ATOM      1  C   UNL     1      10.081   4.115  23.615  0.00  0.00    +0.384 C 
ATOM      2  O   UNL     1      11.002   3.141  23.481  0.00  0.00    -0.441 OA
ATOM      3  C   UNL     1      10.229   1.949  23.614  0.00  0.00    +0.137 C 
ATOM      4  C   UNL     1       9.949   1.386  22.220  0.00  0.00    +0.065 C 
ATOM      5  C   UNL     1       9.220   0.047  22.285  0.00  0.00    +0.088 C 
ATOM      6  N   UNL     1       9.916  -0.939  23.126  0.00  0.00    -0.302 NA
ATOM      7  C   UNL     1      10.224  -0.417  24.470  0.00  0.00    +0.088 C 
ATOM      8  C   UNL     1      10.996   0.902  24.417  0.00  0.00    +0.065 C 
ATOM      9  C   UNL     1       8.962   2.442  24.330  0.00  0.00    +0.196 C 
ATOM     10  N   UNL     1       8.887   3.883  24.028  0.00  0.00    -0.213 NA
ENDROOT
BRANCH   1  11
ATOM     11  O   UNL     1      10.510   5.327  23.269  0.00  0.00    -0.466 OA
ATOM     12  H   UNL     1      11.335   5.484  23.756  0.00  0.00    +0.297 HD
ENDBRANCH   1  11
BRANCH   6  13
ATOM     13  C   UNL     1       9.135  -2.193  23.251  0.00  0.00    +0.089 C 
BRANCH  13  14
ATOM     14  C   UNL     1       9.703  -3.196  24.273  0.00  0.00    +0.050 C 
BRANCH  14  15
ATOM     15  C   UNL     1       8.615  -4.009  24.931  0.00  0.00    -0.046 A 
ATOM     16  C   UNL     1       7.472  -4.379  24.213  0.00  0.00    +0.003 A 
ATOM     17  C   UNL     1       6.473  -5.138  24.824  0.00  0.00    +0.000 A 
ATOM     18  C   UNL     1       6.609  -5.536  26.152  0.00  0.00    +0.000 A 
ATOM     19  C   UNL     1       7.745  -5.176  26.875  0.00  0.00    +0.000 A 
ATOM     20  C   UNL     1       8.745  -4.417  26.266  0.00  0.00    +0.003 A 
ENDBRANCH  14  15
ENDBRANCH  13  14
ENDBRANCH   6  13
TORSDOF 4
ENDMDL
MODEL 8
REMARK VINA RESULT:      -6.5      4.420      7.507
REMARK  Name = 
REMARK  4 active torsions:
REMARK  status: ('A' for Active; 'I' for Inactive)
REMARK    1  A    between atoms: O_1  and  C_2
REMARK    2  A    between atoms: N_8  and  C_9
REMARK    3  A    between atoms: C_9  and  C_10
REMARK    4  A    between atoms: C_10  and  C_11
REMARK                            x       y       z     vdW  Elec       q    Type
REMARK                         _______ _______ _______ _____ _____    ______ ____
ROOT
ATOM      1  C   UNL     1      10.060   3.997  23.626  0.00  0.00    +0.384 C 
ATOM      2  O   UNL     1      10.968   3.011  23.497  0.00  0.00    -0.441 OA
ATOM      3  C   UNL     1      10.168   1.830  23.533  0.00  0.00    +0.137 C 
ATOM      4  C   UNL     1       9.955   1.337  22.101  0.00  0.00    +0.065 C 
ATOM      5  C   UNL     1       9.200   0.012  22.065  0.00  0.00    +0.088 C 
ATOM      6  N   UNL     1       9.830  -1.025  22.896  0.00  0.00    -0.302 NA
ATOM      7  C   UNL     1      10.073  -0.571  24.277  0.00  0.00    +0.088 C 
ATOM      8  C   UNL     1      10.870   0.732  24.327  0.00  0.00    +0.065 C 
ATOM      9  C   UNL     1       8.873   2.317  24.201  0.00  0.00    +0.196 C 
ATOM     10  N   UNL     1       8.840   3.772  23.963  0.00  0.00    -0.213 NA
ENDROOT
BRANCH   1  11
ATOM     11  O   UNL     1      10.528   5.215  23.360  0.00  0.00    -0.466 OA
ATOM     12  H   UNL     1      11.423   5.260  23.734  0.00  0.00    +0.297 HD
ENDBRANCH   1  11
BRANCH   6  13
ATOM     13  C   UNL     1       9.020  -2.267  22.920  0.00  0.00    +0.089 C 
BRANCH  13  14
ATOM     14  C   UNL     1       7.516  -2.050  22.670  0.00  0.00    +0.050 C 
BRANCH  14  15
ATOM     15  C   UNL     1       6.753  -3.351  22.645  0.00  0.00    -0.046 A 
ATOM     16  C   UNL     1       5.404  -3.391  23.017  0.00  0.00    +0.003 A 
ATOM     17  C   UNL     1       4.700  -4.595  22.985  0.00  0.00    +0.000 A 
ATOM     18  C   UNL     1       5.336  -5.767  22.579  0.00  0.00    +0.000 A 
ATOM     19  C   UNL     1       6.678  -5.738  22.204  0.00  0.00    +0.000 A 
ATOM     20  C   UNL     1       7.384  -4.534  22.235  0.00  0.00    +0.003 A 
ENDBRANCH  14  15
ENDBRANCH  13  14
ENDBRANCH   6  13
TORSDOF 4
ENDMDL
MODEL 9
REMARK VINA RESULT:      -6.4      1.697      2.724
REMARK  Name = 
REMARK  4 active torsions:
REMARK  status: ('A' for Active; 'I' for Inactive)
REMARK    1  A    between atoms: O_1  and  C_2
REMARK    2  A    between atoms: N_8  and  C_9
REMARK    3  A    between atoms: C_9  and  C_10
REMARK    4  A    between atoms: C_10  and  C_11
REMARK                            x       y       z     vdW  Elec       q    Type
REMARK                         _______ _______ _______ _____ _____    ______ ____
ROOT
ATOM      1  C   UNL     1       8.322  -5.107  26.138  0.00  0.00    +0.384 C 
ATOM      2  O   UNL     1       7.870  -3.839  26.108  0.00  0.00    -0.441 OA
ATOM      3  C   UNL     1       8.564  -3.276  24.996  0.00  0.00    +0.137 C 
ATOM      4  C   UNL     1       7.629  -3.263  23.786  0.00  0.00    +0.065 C 
ATOM      5  C   UNL     1       8.265  -2.571  22.585  0.00  0.00    +0.088 C 
ATOM      6  N   UNL     1       8.749  -1.218  22.897  0.00  0.00    -0.302 NA
ATOM      7  C   UNL     1       9.634  -1.193  24.076  0.00  0.00    +0.088 C 
ATOM      8  C   UNL     1       8.988  -1.842  25.300  0.00  0.00    +0.065 C 
ATOM      9  C   UNL     1       9.758  -4.228  24.823  0.00  0.00    +0.196 C 
ATOM     10  N   UNL     1       9.332  -5.496  25.445  0.00  0.00    -0.213 NA
ENDROOT
BRANCH   1  11
ATOM     11  O   UNL     1       7.627  -5.920  26.932  0.00  0.00    -0.466 OA
ATOM     12  H   UNL     1       7.421  -5.419  27.737  0.00  0.00    +0.297 HD
ENDBRANCH   1  11
BRANCH   6  13
ATOM     13  C   UNL     1       9.451  -0.612  21.741  0.00  0.00    +0.089 C 
BRANCH  13  14
ATOM     14  C   UNL     1       8.809   0.687  21.218  0.00  0.00    +0.050 C 
BRANCH  14  15
ATOM     15  C   UNL     1       9.110   1.866  22.111  0.00  0.00    -0.046 A 
ATOM     16  C   UNL     1       8.092   2.749  22.488  0.00  0.00    +0.003 A 
ATOM     17  C   UNL     1       8.374   3.833  23.321  0.00  0.00    +0.000 A 
ATOM     18  C   UNL     1       9.672   4.041  23.784  0.00  0.00    +0.000 A 
ATOM     19  C   UNL     1      10.692   3.167  23.415  0.00  0.00    +0.000 A 
ATOM     20  C   UNL     1      10.412   2.082  22.583  0.00  0.00    +0.003 A 
ENDBRANCH  14  15
ENDBRANCH  13  14
ENDBRANCH   6  13
TORSDOF 4
ENDMDL
