MODEL 1
REMARK VINA RESULT:      -7.0      0.000      0.000
REMARK  Name = 
REMARK  12 active torsions:
REMARK  status: ('A' for Active; 'I' for Inactive)
REMARK    1  A    between atoms: C_1  and  C_2
REMARK    2  A    between atoms: C_2  and  C_3
REMARK    3  A    between atoms: C_3  and  C_4
REMARK    4  A    between atoms: C_6  and  C_7
REMARK    5  A    between atoms: C_11  and  C_15
REMARK    6  A    between atoms: C_16  and  O_17
REMARK    7  A    between atoms: O_17  and  C_18
REMARK    8  A    between atoms: C_18  and  C_19
REMARK    9  A    between atoms: C_22  and  S_24
REMARK   10  A    between atoms: S_24  and  N_27
REMARK   11  A    between atoms: N_30  and  C_31
REMARK   12  A    between atoms: C_31  and  C_32
REMARK                            x       y       z     vdW  Elec       q    Type
REMARK                         _______ _______ _______ _____ _____    ______ ____
ROOT
ATOM      1  C   UNL     1       7.921  -2.359  23.143  0.00  0.00    +0.062 A 
ATOM      2  C   UNL     1       7.859  -1.051  22.633  0.00  0.00    +0.043 A 
ATOM      3  C   UNL     1       9.011  -0.262  22.604  0.00  0.00    +0.106 A 
ATOM      4  C   UNL     1      10.223  -0.757  23.079  0.00  0.00    +0.032 A 
ATOM      5  C   UNL     1      10.288  -2.051  23.592  0.00  0.00    +0.048 A 
ATOM      6  C   UNL     1       9.144  -2.861  23.641  0.00  0.00    +0.131 A 
ENDROOT
BRANCH   1  11
ATOM      7  C   UNL     1       3.540  -3.611  25.017  0.00  0.00    +0.130 A 
ATOM      8  N   UNL     1       4.622  -3.642  24.169  0.00  0.00    -0.232 N 
ATOM      9  N   UNL     1       5.683  -2.813  24.090  0.00  0.00    -0.274 N 
ATOM     10  H   UNL     1       5.905  -2.211  24.872  0.00  0.00    +0.189 HD
ATOM     11  C   UNL     1       6.644  -3.166  23.177  0.00  0.00    +0.161 A 
ATOM     12  N   UNL     1       6.544  -4.153  22.335  0.00  0.00    -0.188 NA
ATOM     13  C   UNL     1       5.412  -4.942  22.283  0.00  0.00    +0.299 A 
ATOM     14  O   UNL     1       5.268  -5.831  21.456  0.00  0.00    -0.263 OA
ATOM     15  C   UNL     1       4.442  -4.664  23.296  0.00  0.00    +0.152 A 
ATOM     16  C   UNL     1       3.227  -5.220  23.623  0.00  0.00    +0.071 A 
ATOM     17  C   UNL     1       2.507  -6.339  22.971  0.00  0.00    +0.068 C 
ATOM     18  N   UNL     1       2.683  -4.565  24.706  0.00  0.00    -0.235 NA
BRANCH   7  19
ATOM     19  C   UNL     1       3.374  -2.617  26.117  0.00  0.00    +0.076 C 
BRANCH  19  21
ATOM     20  C   UNL     1       4.995  -3.592  27.779  0.00  0.00    +0.004 C 
ATOM     21  C   UNL     1       3.538  -3.267  27.490  0.00  0.00    +0.004 C 
ENDBRANCH  19  21
ENDBRANCH   7  19
ENDBRANCH   1  11
BRANCH   3  22
ATOM     22  S   UNL     1       8.917   1.453  22.156  0.00  0.00    +0.061 S 
ATOM     23  O   UNL     1       7.940   1.549  21.089  0.00  0.00    -0.153 OA
ATOM     24  O   UNL     1      10.264   1.931  21.966  0.00  0.00    -0.153 OA
BRANCH  22  25
ATOM     25  N   UNL     1       8.240   2.184  23.547  0.00  0.00    -0.174 NA
ATOM     26  C   UNL     1       7.080   3.084  23.242  0.00  0.00    +0.125 C 
ATOM     27  C   UNL     1       7.567   4.423  22.657  0.00  0.00    +0.101 C 
ATOM     28  N   UNL     1       8.479   5.168  23.552  0.00  0.00    -0.300 NA
ATOM     29  C   UNL     1       9.603   4.284  23.948  0.00  0.00    +0.101 C 
ATOM     30  C   UNL     1       9.193   2.884  24.469  0.00  0.00    +0.125 C 
BRANCH  28  31
ATOM     31  C   UNL     1       7.823   5.746  24.732  0.00  0.00    +0.081 C 
ATOM     32  C   UNL     1       8.796   6.333  25.748  0.00  0.00    +0.020 C 
ENDBRANCH  28  31
ENDBRANCH  22  25
ENDBRANCH   3  22
BRANCH   6  33
ATOM     33  O   UNL     1       9.150  -4.128  24.174  0.00  0.00    -0.492 OA
BRANCH  33  34
ATOM     34  C   UNL     1       9.129  -4.237  25.600  0.00  0.00    +0.226 C 
ATOM     35  C   UNL     1       7.993  -5.159  25.998  0.00  0.00    +0.048 C 
ENDBRANCH  33  34
ENDBRANCH   6  33
TORSDOF 8
ENDMDL
MODEL 2
REMARK VINA RESULT:      -6.9      2.538      8.249
REMARK  Name = 
REMARK  12 active torsions:
REMARK  status: ('A' for Active; 'I' for Inactive)
REMARK    1  A    between atoms: C_1  and  C_2
REMARK    2  A    between atoms: C_2  and  C_3
REMARK    3  A    between atoms: C_3  and  C_4
REMARK    4  A    between atoms: C_6  and  C_7
REMARK    5  A    between atoms: C_11  and  C_15
REMARK    6  A    between atoms: C_16  and  O_17
REMARK    7  A    between atoms: O_17  and  C_18
REMARK    8  A    between atoms: C_18  and  C_19
REMARK    9  A    between atoms: C_22  and  S_24
REMARK   10  A    between atoms: S_24  and  N_27
REMARK   11  A    between atoms: N_30  and  C_31
REMARK   12  A    between atoms: C_31  and  C_32
REMARK                            x       y       z     vdW  Elec       q    Type
REMARK                         _______ _______ _______ _____ _____    ______ ____
ROOT
ATOM      1  C   UNL     1       7.802   0.245  23.109  0.00  0.00    +0.062 A 
ATOM      2  C   UNL     1       7.498  -1.043  23.578  0.00  0.00    +0.043 A 
ATOM      3  C   UNL     1       8.347  -2.111  23.276  0.00  0.00    +0.106 A 
ATOM      4  C   UNL     1       9.494  -1.911  22.511  0.00  0.00    +0.032 A 
ATOM      5  C   UNL     1       9.796  -0.636  22.038  0.00  0.00    +0.048 A 
ATOM      6  C   UNL     1       8.956   0.451  22.319  0.00  0.00    +0.131 A 
ENDROOT
BRANCH   1  11
ATOM      7  C   UNL     1       6.241   4.915  22.945  0.00  0.00    +0.130 A 
ATOM      8  N   UNL     1       6.244   3.581  23.277  0.00  0.00    -0.232 N 
ATOM      9  N   UNL     1       7.048   2.585  22.850  0.00  0.00    -0.274 N 
ATOM     10  H   UNL     1       7.933   2.810  22.416  0.00  0.00    +0.189 HD
ATOM     11  C   UNL     1       6.841   1.363  23.439  0.00  0.00    +0.161 A 
ATOM     12  N   UNL     1       5.879   1.091  24.272  0.00  0.00    -0.188 NA
ATOM     13  C   UNL     1       4.946   2.044  24.629  0.00  0.00    +0.299 A 
ATOM     14  O   UNL     1       3.995   1.793  25.356  0.00  0.00    -0.263 OA
ATOM     15  C   UNL     1       5.201   3.354  24.113  0.00  0.00    +0.152 A 
ATOM     16  C   UNL     1       4.566   4.566  24.251  0.00  0.00    +0.071 A 
ATOM     17  C   UNL     1       3.338   4.896  25.012  0.00  0.00    +0.068 C 
ATOM     18  N   UNL     1       5.232   5.533  23.530  0.00  0.00    -0.235 NA
BRANCH   7  19
ATOM     19  C   UNL     1       7.239   5.547  22.034  0.00  0.00    +0.076 C 
BRANCH  19  21
ATOM     20  C   UNL     1       9.174   6.232  23.494  0.00  0.00    +0.004 C 
ATOM     21  C   UNL     1       7.959   6.711  22.715  0.00  0.00    +0.004 C 
ENDBRANCH  19  21
ENDBRANCH   7  19
ENDBRANCH   1  11
BRANCH   3  22
ATOM     22  S   UNL     1       7.881  -3.775  23.682  0.00  0.00    +0.061 S 
ATOM     23  O   UNL     1       9.074  -4.427  24.187  0.00  0.00    -0.153 OA
ATOM     24  O   UNL     1       7.167  -4.318  22.553  0.00  0.00    -0.153 OA
BRANCH  22  25
ATOM     25  N   UNL     1       6.806  -3.570  24.997  0.00  0.00    -0.174 NA
ATOM     26  C   UNL     1       7.458  -3.762  26.334  0.00  0.00    +0.125 C 
ATOM     27  C   UNL     1       7.680  -5.257  26.624  0.00  0.00    +0.101 C 
ATOM     28  N   UNL     1       6.436  -6.056  26.622  0.00  0.00    -0.300 NA
ATOM     29  C   UNL     1       5.713  -5.831  25.345  0.00  0.00    +0.101 C 
ATOM     30  C   UNL     1       5.525  -4.346  24.944  0.00  0.00    +0.125 C 
BRANCH  28  31
ATOM     31  C   UNL     1       5.559  -5.806  27.774  0.00  0.00    +0.081 C 
ATOM     32  C   UNL     1       6.133  -6.293  29.099  0.00  0.00    +0.020 C 
ENDBRANCH  28  31
ENDBRANCH  22  25
ENDBRANCH   3  22
BRANCH   6  33
ATOM     33  O   UNL     1       9.191   1.718  21.841  0.00  0.00    -0.492 OA
BRANCH  33  34
ATOM     34  C   UNL     1      10.474   2.289  22.108  0.00  0.00    +0.226 C 
ATOM     35  C   UNL     1      10.518   2.722  23.561  0.00  0.00    +0.048 C 
ENDBRANCH  33  34
ENDBRANCH   6  33
TORSDOF 8
ENDMDL
MODEL 3
REMARK VINA RESULT:      -6.8      2.592      8.802
REMARK  Name = 
REMARK  12 active torsions:
REMARK  status: ('A' for Active; 'I' for Inactive)
REMARK    1  A    between atoms: C_1  and  C_2
REMARK    2  A    between atoms: C_2  and  C_3
REMARK    3  A    between atoms: C_3  and  C_4
REMARK    4  A    between atoms: C_6  and  C_7
REMARK    5  A    between atoms: C_11  and  C_15
REMARK    6  A    between atoms: C_16  and  O_17
REMARK    7  A    between atoms: O_17  and  C_18
REMARK    8  A    between atoms: C_18  and  C_19
REMARK    9  A    between atoms: C_22  and  S_24
REMARK   10  A    between atoms: S_24  and  N_27
REMARK   11  A    between atoms: N_30  and  C_31
REMARK   12  A    between atoms: C_31  and  C_32
REMARK                            x       y       z     vdW  Elec       q    Type
REMARK                         _______ _______ _______ _____ _____    ______ ____
ROOT
ATOM      1  C   UNL     1       8.867  -0.228  24.760  0.00  0.00    +0.062 A 
ATOM      2  C   UNL     1       8.428  -1.408  25.383  0.00  0.00    +0.043 A 
ATOM      3  C   UNL     1       8.866  -2.647  24.909  0.00  0.00    +0.106 A 
ATOM      4  C   UNL     1       9.734  -2.726  23.823  0.00  0.00    +0.032 A 
ATOM      5  C   UNL     1      10.167  -1.559  23.198  0.00  0.00    +0.048 A 
ATOM      6  C   UNL     1       9.735  -0.302  23.647  0.00  0.00    +0.131 A 
ENDROOT
BRANCH   1  11
ATOM      7  C   UNL     1       8.759   4.690  25.026  0.00  0.00    +0.130 A 
ATOM      8  N   UNL     1       8.418   3.388  25.309  0.00  0.00    -0.232 N 
ATOM      9  N   UNL     1       8.811   2.243  24.715  0.00  0.00    -0.274 N 
ATOM     10  H   UNL     1       9.643   2.239  24.140  0.00  0.00    +0.189 HD
ATOM     11  C   UNL     1       8.347   1.087  25.290  0.00  0.00    +0.161 A 
ATOM     12  N   UNL     1       7.492   1.034  26.270  0.00  0.00    -0.188 NA
ATOM     13  C   UNL     1       6.953   2.182  26.816  0.00  0.00    +0.299 A 
ATOM     14  O   UNL     1       6.098   2.156  27.690  0.00  0.00    -0.263 OA
ATOM     15  C   UNL     1       7.500   3.402  26.307  0.00  0.00    +0.152 A 
ATOM     16  C   UNL     1       7.284   4.730  26.594  0.00  0.00    +0.071 A 
ATOM     17  C   UNL     1       6.347   5.333  27.570  0.00  0.00    +0.068 C 
ATOM     18  N   UNL     1       8.085   5.521  25.800  0.00  0.00    -0.235 NA
BRANCH   7  19
ATOM     19  C   UNL     1       9.742   5.083  23.976  0.00  0.00    +0.076 C 
BRANCH  19  21
ATOM     20  C   UNL     1      12.054   6.068  24.147  0.00  0.00    +0.004 C 
ATOM     21  C   UNL     1      10.573   6.290  24.409  0.00  0.00    +0.004 C 
ENDBRANCH  19  21
ENDBRANCH   7  19
ENDBRANCH   1  11
BRANCH   3  22
ATOM     22  S   UNL     1       8.170  -4.152  25.545  0.00  0.00    +0.061 S 
ATOM     23  O   UNL     1       8.483  -4.187  26.960  0.00  0.00    -0.153 OA
ATOM     24  O   UNL     1       8.577  -5.226  24.673  0.00  0.00    -0.153 OA
BRANCH  22  25
ATOM     25  N   UNL     1       6.485  -3.897  25.392  0.00  0.00    -0.174 NA
ATOM     26  C   UNL     1       5.675  -4.647  26.408  0.00  0.00    +0.125 C 
ATOM     27  C   UNL     1       5.581  -6.139  26.039  0.00  0.00    +0.101 C 
ATOM     28  N   UNL     1       4.968  -6.388  24.717  0.00  0.00    -0.300 NA
ATOM     29  C   UNL     1       5.688  -5.597  23.688  0.00  0.00    +0.101 C 
ATOM     30  C   UNL     1       5.895  -4.100  24.029  0.00  0.00    +0.125 C 
BRANCH  28  31
ATOM     31  C   UNL     1       3.524  -6.127  24.665  0.00  0.00    +0.081 C 
ATOM     32  C   UNL     1       2.932  -6.227  23.264  0.00  0.00    +0.020 C 
ENDBRANCH  28  31
ENDBRANCH  22  25
ENDBRANCH   3  22
BRANCH   6  33
ATOM     33  O   UNL     1      10.103   0.874  23.039  0.00  0.00    -0.492 OA
BRANCH  33  34
ATOM     34  C   UNL     1       9.816   1.006  21.645  0.00  0.00    +0.226 C 
ATOM     35  C   UNL     1       8.414   1.564  21.490  0.00  0.00    +0.048 C 
ENDBRANCH  33  34
ENDBRANCH   6  33
TORSDOF 8
ENDMDL
MODEL 4
REMARK VINA RESULT:      -6.8      2.051      3.440
REMARK  Name = 
REMARK  12 active torsions:
REMARK  status: ('A' for Active; 'I' for Inactive)
REMARK    1  A    between atoms: C_1  and  C_2
REMARK    2  A    between atoms: C_2  and  C_3
REMARK    3  A    between atoms: C_3  and  C_4
REMARK    4  A    between atoms: C_6  and  C_7
REMARK    5  A    between atoms: C_11  and  C_15
REMARK    6  A    between atoms: C_16  and  O_17
REMARK    7  A    between atoms: O_17  and  C_18
REMARK    8  A    between atoms: C_18  and  C_19
REMARK    9  A    between atoms: C_22  and  S_24
REMARK   10  A    between atoms: S_24  and  N_27
REMARK   11  A    between atoms: N_30  and  C_31
REMARK   12  A    between atoms: C_31  and  C_32
REMARK                            x       y       z     vdW  Elec       q    Type
REMARK                         _______ _______ _______ _____ _____    ______ ____
ROOT
ATOM      1  C   UNL     1       7.559  -2.867  24.147  0.00  0.00    +0.062 A 
ATOM      2  C   UNL     1       7.887  -1.605  24.670  0.00  0.00    +0.043 A 
ATOM      3  C   UNL     1       8.571  -0.681  23.878  0.00  0.00    +0.106 A 
ATOM      4  C   UNL     1       8.934  -0.998  22.570  0.00  0.00    +0.032 A 
ATOM      5  C   UNL     1       8.618  -2.250  22.049  0.00  0.00    +0.048 A 
ATOM      6  C   UNL     1       7.940  -3.200  22.827  0.00  0.00    +0.131 A 
ENDROOT
BRANCH   1  11
ATOM      7  C   UNL     1       3.599  -5.359  25.691  0.00  0.00    +0.130 A 
ATOM      8  N   UNL     1       4.906  -4.930  25.658  0.00  0.00    -0.232 N 
ATOM      9  N   UNL     1       5.541  -4.160  24.751  0.00  0.00    -0.274 N 
ATOM     10  H   UNL     1       5.000  -3.590  24.115  0.00  0.00    +0.189 HD
ATOM     11  C   UNL     1       6.842  -3.843  25.050  0.00  0.00    +0.161 A 
ATOM     12  N   UNL     1       7.510  -4.315  26.062  0.00  0.00    -0.188 NA
ATOM     13  C   UNL     1       6.943  -5.219  26.939  0.00  0.00    +0.299 A 
ATOM     14  O   UNL     1       7.572  -5.727  27.856  0.00  0.00    -0.263 OA
ATOM     15  C   UNL     1       5.556  -5.483  26.712  0.00  0.00    +0.152 A 
ATOM     16  C   UNL     1       4.623  -6.265  27.354  0.00  0.00    +0.071 A 
ATOM     17  C   UNL     1       4.792  -7.134  28.541  0.00  0.00    +0.068 C 
ATOM     18  N   UNL     1       3.405  -6.166  26.717  0.00  0.00    -0.235 NA
BRANCH   7  19
ATOM     19  C   UNL     1       2.570  -4.965  24.686  0.00  0.00    +0.076 C 
BRANCH  19  21
ATOM     20  C   UNL     1       2.154  -7.089  23.397  0.00  0.00    +0.004 C 
ATOM     21  C   UNL     1       2.770  -5.699  23.361  0.00  0.00    +0.004 C 
ENDBRANCH  19  21
ENDBRANCH   7  19
ENDBRANCH   1  11
BRANCH   3  22
ATOM     22  S   UNL     1       9.172   0.835  24.578  0.00  0.00    +0.061 S 
ATOM     23  O   UNL     1      10.581   0.633  24.854  0.00  0.00    -0.153 OA
ATOM     24  O   UNL     1       8.263   1.224  25.628  0.00  0.00    -0.153 OA
BRANCH  22  25
ATOM     25  N   UNL     1       9.052   1.940  23.278  0.00  0.00    -0.174 NA
ATOM     26  C   UNL     1       9.826   3.206  23.499  0.00  0.00    +0.125 C 
ATOM     27  C   UNL     1       9.088   4.133  24.482  0.00  0.00    +0.101 C 
ATOM     28  N   UNL     1       7.732   4.519  24.034  0.00  0.00    -0.300 NA
ATOM     29  C   UNL     1       6.954   3.294  23.722  0.00  0.00    +0.101 C 
ATOM     30  C   UNL     1       7.669   2.272  22.803  0.00  0.00    +0.125 C 
BRANCH  28  31
ATOM     31  C   UNL     1       7.717   5.454  22.902  0.00  0.00    +0.081 C 
ATOM     32  C   UNL     1       8.516   6.729  23.148  0.00  0.00    +0.020 C 
ENDBRANCH  28  31
ENDBRANCH  22  25
ENDBRANCH   3  22
BRANCH   6  33
ATOM     33  O   UNL     1       7.641  -4.461  22.371  0.00  0.00    -0.492 OA
BRANCH  33  34
ATOM     34  C   UNL     1       6.557  -4.581  21.446  0.00  0.00    +0.226 C 
ATOM     35  C   UNL     1       6.067  -6.017  21.458  0.00  0.00    +0.048 C 
ENDBRANCH  33  34
ENDBRANCH   6  33
TORSDOF 8
ENDMDL
MODEL 5
REMARK VINA RESULT:      -6.6      2.602      8.422
REMARK  Name = 
REMARK  12 active torsions:
REMARK  status: ('A' for Active; 'I' for Inactive)
REMARK    1  A    between atoms: C_1  and  C_2
REMARK    2  A    between atoms: C_2  and  C_3
REMARK    3  A    between atoms: C_3  and  C_4
REMARK    4  A    between atoms: C_6  and  C_7
REMARK    5  A    between atoms: C_11  and  C_15
REMARK    6  A    between atoms: C_16  and  O_17
REMARK    7  A    between atoms: O_17  and  C_18
REMARK    8  A    between atoms: C_18  and  C_19
REMARK    9  A    between atoms: C_22  and  S_24
REMARK   10  A    between atoms: S_24  and  N_27
REMARK   11  A    between atoms: N_30  and  C_31
REMARK   12  A    between atoms: C_31  and  C_32
REMARK                            x       y       z     vdW  Elec       q    Type
REMARK                         _______ _______ _______ _____ _____    ______ ____
ROOT
ATOM      1  C   UNL     1       7.635   0.423  24.179  0.00  0.00    +0.062 A 
ATOM      2  C   UNL     1       7.163  -0.888  24.000  0.00  0.00    +0.043 A 
ATOM      3  C   UNL     1       8.054  -1.962  24.060  0.00  0.00    +0.106 A 
ATOM      4  C   UNL     1       9.411  -1.746  24.295  0.00  0.00    +0.032 A 
ATOM      5  C   UNL     1       9.884  -0.447  24.466  0.00  0.00    +0.048 A 
ATOM      6  C   UNL     1       9.012   0.649  24.401  0.00  0.00    +0.131 A 
ENDROOT
BRANCH   1  11
ATOM      7  C   UNL     1       6.220   4.958  22.873  0.00  0.00    +0.130 A 
ATOM      8  N   UNL     1       6.126   3.697  23.413  0.00  0.00    -0.232 N 
ATOM      9  N   UNL     1       6.996   2.667  23.362  0.00  0.00    -0.274 N 
ATOM     10  H   UNL     1       7.962   2.841  23.121  0.00  0.00    +0.189 HD
ATOM     11  C   UNL     1       6.638   1.553  24.079  0.00  0.00    +0.161 A 
ATOM     12  N   UNL     1       5.500   1.395  24.691  0.00  0.00    -0.188 NA
ATOM     13  C   UNL     1       4.521   2.368  24.651  0.00  0.00    +0.299 A 
ATOM     14  O   UNL     1       3.420   2.214  25.161  0.00  0.00    -0.263 OA
ATOM     15  C   UNL     1       4.909   3.582  24.001  0.00  0.00    +0.152 A 
ATOM     16  C   UNL     1       4.276   4.783  23.779  0.00  0.00    +0.071 A 
ATOM     17  C   UNL     1       2.906   5.199  24.160  0.00  0.00    +0.068 C 
ATOM     18  N   UNL     1       5.109   5.636  23.089  0.00  0.00    -0.235 NA
BRANCH   7  19
ATOM     19  C   UNL     1       7.416   5.459  22.136  0.00  0.00    +0.076 C 
BRANCH  19  21
ATOM     20  C   UNL     1       9.500   6.093  23.401  0.00  0.00    +0.004 C 
ATOM     21  C   UNL     1       8.136   6.559  22.916  0.00  0.00    +0.004 C 
ENDBRANCH  19  21
ENDBRANCH   7  19
ENDBRANCH   1  11
BRANCH   3  22
ATOM     22  S   UNL     1       7.520  -3.601  23.638  0.00  0.00    +0.061 S 
ATOM     23  O   UNL     1       8.239  -4.508  24.511  0.00  0.00    -0.153 OA
ATOM     24  O   UNL     1       7.607  -3.735  22.204  0.00  0.00    -0.153 OA
BRANCH  22  25
ATOM     25  N   UNL     1       5.879  -3.613  24.117  0.00  0.00    -0.174 NA
ATOM     26  C   UNL     1       5.626  -4.414  25.359  0.00  0.00    +0.125 C 
ATOM     27  C   UNL     1       5.647  -5.922  25.052  0.00  0.00    +0.101 C 
ATOM     28  N   UNL     1       4.644  -6.339  24.048  0.00  0.00    -0.300 NA
ATOM     29  C   UNL     1       4.803  -5.511  22.826  0.00  0.00    +0.101 C 
ATOM     30  C   UNL     1       4.874  -3.983  23.066  0.00  0.00    +0.125 C 
BRANCH  28  31
ATOM     31  C   UNL     1       3.258  -6.301  24.532  0.00  0.00    +0.081 C 
ATOM     32  C   UNL     1       3.026  -7.126  25.793  0.00  0.00    +0.020 C 
ENDBRANCH  28  31
ENDBRANCH  22  25
ENDBRANCH   3  22
BRANCH   6  33
ATOM     33  O   UNL     1       9.438   1.949  24.524  0.00  0.00    -0.492 OA
BRANCH  33  34
ATOM     34  C   UNL     1      10.597   2.330  23.777  0.00  0.00    +0.226 C 
ATOM     35  C   UNL     1      10.256   2.289  22.300  0.00  0.00    +0.048 C 
ENDBRANCH  33  34
ENDBRANCH   6  33
TORSDOF 8
ENDMDL
MODEL 6
REMARK VINA RESULT:      -6.4      2.428      3.719
REMARK  Name = 
REMARK  12 active torsions:
REMARK  status: ('A' for Active; 'I' for Inactive)
REMARK    1  A    between atoms: C_1  and  C_2
REMARK    2  A    between atoms: C_2  and  C_3
REMARK    3  A    between atoms: C_3  and  C_4
REMARK    4  A    between atoms: C_6  and  C_7
REMARK    5  A    between atoms: C_11  and  C_15
REMARK    6  A    between atoms: C_16  and  O_17
REMARK    7  A    between atoms: O_17  and  C_18
REMARK    8  A    between atoms: C_18  and  C_19
REMARK    9  A    between atoms: C_22  and  S_24
REMARK   10  A    between atoms: S_24  and  N_27
REMARK   11  A    between atoms: N_30  and  C_31
REMARK   12  A    between atoms: C_31  and  C_32
REMARK                            x       y       z     vdW  Elec       q    Type
REMARK                         _______ _______ _______ _____ _____    ______ ____
ROOT
ATOM      1  C   UNL     1       7.650   0.213  22.938  0.00  0.00    +0.062 A 
ATOM      2  C   UNL     1       7.290   1.554  23.155  0.00  0.00    +0.043 A 
ATOM      3  C   UNL     1       8.137   2.579  22.726  0.00  0.00    +0.106 A 
ATOM      4  C   UNL     1       9.339   2.286  22.085  0.00  0.00    +0.032 A 
ATOM      5  C   UNL     1       9.703   0.958  21.873  0.00  0.00    +0.048 A 
ATOM      6  C   UNL     1       8.875  -0.090  22.302  0.00  0.00    +0.131 A 
ENDROOT
BRANCH   1  11
ATOM      7  C   UNL     1       5.322  -4.116  22.618  0.00  0.00    +0.130 A 
ATOM      8  N   UNL     1       5.697  -2.904  23.148  0.00  0.00    -0.232 N 
ATOM      9  N   UNL     1       6.639  -2.032  22.733  0.00  0.00    -0.274 N 
ATOM     10  H   UNL     1       6.991  -2.092  21.787  0.00  0.00    +0.189 HD
ATOM     11  C   UNL     1       6.715  -0.860  23.442  0.00  0.00    +0.161 A 
ATOM     12  N   UNL     1       6.034  -0.596  24.519  0.00  0.00    -0.188 NA
ATOM     13  C   UNL     1       5.161  -1.517  25.062  0.00  0.00    +0.299 A 
ATOM     14  O   UNL     1       4.563  -1.317  26.110  0.00  0.00    -0.263 OA
ATOM     15  C   UNL     1       4.982  -2.704  24.284  0.00  0.00    +0.152 A 
ATOM     16  C   UNL     1       4.200  -3.825  24.431  0.00  0.00    +0.071 A 
ATOM     17  C   UNL     1       3.256  -4.167  25.521  0.00  0.00    +0.068 C 
ATOM     18  N   UNL     1       4.409  -4.690  23.380  0.00  0.00    -0.235 NA
BRANCH   7  19
ATOM     19  C   UNL     1       5.894  -4.688  21.365  0.00  0.00    +0.076 C 
BRANCH  19  21
ATOM     20  C   UNL     1       7.680  -5.663  22.850  0.00  0.00    +0.004 C 
ATOM     21  C   UNL     1       6.772  -5.906  21.655  0.00  0.00    +0.004 C 
ENDBRANCH  19  21
ENDBRANCH   7  19
ENDBRANCH   1  11
BRANCH   3  22
ATOM     22  S   UNL     1       7.805   4.266  23.168  0.00  0.00    +0.061 S 
ATOM     23  O   UNL     1       7.263   4.904  21.984  0.00  0.00    -0.153 OA
ATOM     24  O   UNL     1       8.983   4.790  23.814  0.00  0.00    -0.153 OA
BRANCH  22  25
ATOM     25  N   UNL     1       6.539   4.129  24.309  0.00  0.00    -0.174 NA
ATOM     26  C   UNL     1       5.360   5.003  23.999  0.00  0.00    +0.125 C 
ATOM     27  C   UNL     1       5.658   6.470  24.360  0.00  0.00    +0.101 C 
ATOM     28  N   UNL     1       5.995   6.676  25.785  0.00  0.00    -0.300 NA
ATOM     29  C   UNL     1       7.106   5.766  26.160  0.00  0.00    +0.101 C 
ATOM     30  C   UNL     1       6.915   4.284  25.752  0.00  0.00    +0.125 C 
BRANCH  28  31
ATOM     31  C   UNL     1       4.857   6.520  26.701  0.00  0.00    +0.081 C 
ATOM     32  C   UNL     1       5.230   6.662  28.172  0.00  0.00    +0.020 C 
ENDBRANCH  28  31
ENDBRANCH  22  25
ENDBRANCH   3  22
BRANCH   6  33
ATOM     33  O   UNL     1       9.210  -1.414  22.151  0.00  0.00    -0.492 OA
BRANCH  33  34
ATOM     34  C   UNL     1      10.365  -1.880  22.854  0.00  0.00    +0.226 C 
ATOM     35  C   UNL     1       9.909  -2.737  24.019  0.00  0.00    +0.048 C 
ENDBRANCH  33  34
ENDBRANCH   6  33
TORSDOF 8
ENDMDL
MODEL 7
REMARK VINA RESULT:      -6.4      2.408      3.840
REMARK  Name = 
REMARK  12 active torsions:
REMARK  status: ('A' for Active; 'I' for Inactive)
REMARK    1  A    between atoms: C_1  and  C_2
REMARK    2  A    between atoms: C_2  and  C_3
REMARK    3  A    between atoms: C_3  and  C_4
REMARK    4  A    between atoms: C_6  and  C_7
REMARK    5  A    between atoms: C_11  and  C_15
REMARK    6  A    between atoms: C_16  and  O_17
REMARK    7  A    between atoms: O_17  and  C_18
REMARK    8  A    between atoms: C_18  and  C_19
REMARK    9  A    between atoms: C_22  and  S_24
REMARK   10  A    between atoms: S_24  and  N_27
REMARK   11  A    between atoms: N_30  and  C_31
REMARK   12  A    between atoms: C_31  and  C_32
REMARK                            x       y       z     vdW  Elec       q    Type
REMARK                         _______ _______ _______ _____ _____    ______ ____
ROOT
ATOM      1  C   UNL     1       6.838  -3.169  24.636  0.00  0.00    +0.062 A 
ATOM      2  C   UNL     1       7.781  -2.129  24.702  0.00  0.00    +0.043 A 
ATOM      3  C   UNL     1       8.286  -1.574  23.524  0.00  0.00    +0.106 A 
ATOM      4  C   UNL     1       7.866  -2.042  22.281  0.00  0.00    +0.032 A 
ATOM      5  C   UNL     1       6.936  -3.077  22.211  0.00  0.00    +0.048 A 
ATOM      6  C   UNL     1       6.420  -3.659  23.378  0.00  0.00    +0.131 A 
ENDROOT
BRANCH   1  11
ATOM      7  C   UNL     1       3.780  -3.386  28.493  0.00  0.00    +0.130 A 
ATOM      8  N   UNL     1       4.835  -3.726  27.679  0.00  0.00    -0.232 N 
ATOM      9  N   UNL     1       5.168  -3.264  26.456  0.00  0.00    -0.274 N 
ATOM     10  H   UNL     1       4.782  -2.388  26.132  0.00  0.00    +0.189 HD
ATOM     11  C   UNL     1       6.339  -3.755  25.936  0.00  0.00    +0.161 A 
ATOM     12  N   UNL     1       7.064  -4.687  26.483  0.00  0.00    -0.188 NA
ATOM     13  C   UNL     1       6.686  -5.290  27.666  0.00  0.00    +0.299 A 
ATOM     14  O   UNL     1       7.315  -6.214  28.163  0.00  0.00    -0.263 OA
ATOM     15  C   UNL     1       5.527  -4.724  28.284  0.00  0.00    +0.152 A 
ATOM     16  C   UNL     1       4.852  -4.986  29.453  0.00  0.00    +0.071 A 
ATOM     17  C   UNL     1       5.136  -6.011  30.484  0.00  0.00    +0.068 C 
ATOM     18  N   UNL     1       3.776  -4.136  29.579  0.00  0.00    -0.235 NA
BRANCH   7  19
ATOM     19  C   UNL     1       2.784  -2.325  28.163  0.00  0.00    +0.076 C 
BRANCH  19  21
ATOM     20  C   UNL     1       3.113  -0.585  29.955  0.00  0.00    +0.004 C 
ATOM     21  C   UNL     1       3.322  -0.932  28.489  0.00  0.00    +0.004 C 
ENDBRANCH  19  21
ENDBRANCH   7  19
ENDBRANCH   1  11
BRANCH   3  22
ATOM     22  S   UNL     1       9.622  -0.406  23.580  0.00  0.00    +0.061 S 
ATOM     23  O   UNL     1      10.649  -0.911  22.690  0.00  0.00    -0.153 OA
ATOM     24  O   UNL     1       9.914  -0.140  24.967  0.00  0.00    -0.153 OA
BRANCH  22  25
ATOM     25  N   UNL     1       8.949   0.990  22.857  0.00  0.00    -0.174 NA
ATOM     26  C   UNL     1       9.981   1.955  22.352  0.00  0.00    +0.125 C 
ATOM     27  C   UNL     1      10.610   2.742  23.517  0.00  0.00    +0.101 C 
ATOM     28  N   UNL     1       9.631   3.519  24.308  0.00  0.00    -0.300 NA
ATOM     29  C   UNL     1       8.542   2.616  24.759  0.00  0.00    +0.101 C 
ATOM     30  C   UNL     1       7.917   1.729  23.654  0.00  0.00    +0.125 C 
BRANCH  28  31
ATOM     31  C   UNL     1       9.087   4.690  23.608  0.00  0.00    +0.081 C 
ATOM     32  C   UNL     1       9.970   5.929  23.706  0.00  0.00    +0.020 C 
ENDBRANCH  28  31
ENDBRANCH  22  25
ENDBRANCH   3  22
BRANCH   6  33
ATOM     33  O   UNL     1       5.532  -4.707  23.359  0.00  0.00    -0.492 OA
BRANCH  33  34
ATOM     34  C   UNL     1       5.489  -5.505  22.173  0.00  0.00    +0.226 C 
ATOM     35  C   UNL     1       6.728  -6.379  22.133  0.00  0.00    +0.048 C 
ENDBRANCH  33  34
ENDBRANCH   6  33
TORSDOF 8
ENDMDL
MODEL 8
REMARK VINA RESULT:      -6.4      1.568      2.709
REMARK  Name = 
REMARK  12 active torsions:
REMARK  status: ('A' for Active; 'I' for Inactive)
REMARK    1  A    between atoms: C_1  and  C_2
REMARK    2  A    between atoms: C_2  and  C_3
REMARK    3  A    between atoms: C_3  and  C_4
REMARK    4  A    between atoms: C_6  and  C_7
REMARK    5  A    between atoms: C_11  and  C_15
REMARK    6  A    between atoms: C_16  and  O_17
REMARK    7  A    between atoms: O_17  and  C_18
REMARK    8  A    between atoms: C_18  and  C_19
REMARK    9  A    between atoms: C_22  and  S_24
REMARK   10  A    between atoms: S_24  and  N_27
REMARK   11  A    between atoms: N_30  and  C_31
REMARK   12  A    between atoms: C_31  and  C_32
REMARK                            x       y       z     vdW  Elec       q    Type
REMARK                         _______ _______ _______ _____ _____    ______ ____
ROOT
ATOM      1  C   UNL     1       7.902  -1.850  23.969  0.00  0.00    +0.062 A 
ATOM      2  C   UNL     1       8.001  -0.472  23.714  0.00  0.00    +0.043 A 
ATOM      3  C   UNL     1       9.219   0.071  23.299  0.00  0.00    +0.106 A 
ATOM      4  C   UNL     1      10.340  -0.740  23.135  0.00  0.00    +0.032 A 
ATOM      5  C   UNL     1      10.248  -2.106  23.393  0.00  0.00    +0.048 A 
ATOM      6  C   UNL     1       9.040  -2.676  23.821  0.00  0.00    +0.131 A 
ENDROOT
BRANCH   1  11
ATOM      7  C   UNL     1       4.361  -5.266  24.221  0.00  0.00    +0.130 A 
ATOM      8  N   UNL     1       5.005  -4.074  24.458  0.00  0.00    -0.232 N 
ATOM      9  N   UNL     1       6.253  -3.685  24.128  0.00  0.00    -0.274 N 
ATOM     10  H   UNL     1       6.758  -4.184  23.408  0.00  0.00    +0.189 HD
ATOM     11  C   UNL     1       6.572  -2.388  24.441  0.00  0.00    +0.161 A 
ATOM     12  N   UNL     1       5.808  -1.575  25.113  0.00  0.00    -0.188 NA
ATOM     13  C   UNL     1       4.578  -1.976  25.594  0.00  0.00    +0.299 A 
ATOM     14  O   UNL     1       3.874  -1.253  26.285  0.00  0.00    -0.263 OA
ATOM     15  C   UNL     1       4.176  -3.288  25.190  0.00  0.00    +0.152 A 
ATOM     16  C   UNL     1       3.045  -4.041  25.404  0.00  0.00    +0.071 A 
ATOM     17  C   UNL     1       1.831  -3.700  26.182  0.00  0.00    +0.068 C 
ATOM     18  N   UNL     1       3.167  -5.265  24.783  0.00  0.00    -0.235 NA
BRANCH   7  19
ATOM     19  C   UNL     1       4.958  -6.394  23.448  0.00  0.00    +0.076 C 
BRANCH  19  21
ATOM     20  C   UNL     1       6.918  -6.203  21.878  0.00  0.00    +0.004 C 
ATOM     21  C   UNL     1       5.433  -5.938  22.069  0.00  0.00    +0.004 C 
ENDBRANCH  19  21
ENDBRANCH   7  19
ENDBRANCH   1  11
BRANCH   3  22
ATOM     22  S   UNL     1       9.424   1.829  23.167  0.00  0.00    +0.061 S 
ATOM     23  O   UNL     1       9.283   2.158  21.762  0.00  0.00    -0.153 OA
ATOM     24  O   UNL     1      10.618   2.188  23.892  0.00  0.00    -0.153 OA
BRANCH  22  25
ATOM     25  N   UNL     1       8.052   2.444  23.983  0.00  0.00    -0.174 NA
ATOM     26  C   UNL     1       7.075   3.128  23.074  0.00  0.00    +0.125 C 
ATOM     27  C   UNL     1       7.584   4.526  22.676  0.00  0.00    +0.101 C 
ATOM     28  N   UNL     1       7.818   5.424  23.828  0.00  0.00    -0.300 NA
ATOM     29  C   UNL     1       8.717   4.751  24.798  0.00  0.00    +0.101 C 
ATOM     30  C   UNL     1       8.313   3.306  25.182  0.00  0.00    +0.125 C 
BRANCH  28  31
ATOM     31  C   UNL     1       6.590   5.891  24.485  0.00  0.00    +0.081 C 
ATOM     32  C   UNL     1       6.843   6.766  25.707  0.00  0.00    +0.020 C 
ENDBRANCH  28  31
ENDBRANCH  22  25
ENDBRANCH   3  22
BRANCH   6  33
ATOM     33  O   UNL     1       8.910  -4.009  24.126  0.00  0.00    -0.492 OA
BRANCH  33  34
ATOM     34  C   UNL     1       9.679  -4.505  25.225  0.00  0.00    +0.226 C 
ATOM     35  C   UNL     1       8.731  -4.867  26.353  0.00  0.00    +0.048 C 
ENDBRANCH  33  34
ENDBRANCH   6  33
TORSDOF 8
ENDMDL
MODEL 9
REMARK VINA RESULT:      -6.4      2.363      8.514
REMARK  Name = 
REMARK  12 active torsions:
REMARK  status: ('A' for Active; 'I' for Inactive)
REMARK    1  A    between atoms: C_1  and  C_2
REMARK    2  A    between atoms: C_2  and  C_3
REMARK    3  A    between atoms: C_3  and  C_4
REMARK    4  A    between atoms: C_6  and  C_7
REMARK    5  A    between atoms: C_11  and  C_15
REMARK    6  A    between atoms: C_16  and  O_17
REMARK    7  A    between atoms: O_17  and  C_18
REMARK    8  A    between atoms: C_18  and  C_19
REMARK    9  A    between atoms: C_22  and  S_24
REMARK   10  A    between atoms: S_24  and  N_27
REMARK   11  A    between atoms: N_30  and  C_31
REMARK   12  A    between atoms: C_31  and  C_32
REMARK                            x       y       z     vdW  Elec       q    Type
REMARK                         _______ _______ _______ _____ _____    ______ ____
ROOT
ATOM      1  C   UNL     1       8.608   1.871  23.613  0.00  0.00    +0.062 A 
ATOM      2  C   UNL     1       8.261   0.513  23.507  0.00  0.00    +0.043 A 
ATOM      3  C   UNL     1       9.247  -0.467  23.644  0.00  0.00    +0.106 A 
ATOM      4  C   UNL     1      10.573  -0.113  23.883  0.00  0.00    +0.032 A 
ATOM      5  C   UNL     1      10.922   1.232  23.982  0.00  0.00    +0.048 A 
ATOM      6  C   UNL     1       9.954   2.237  23.839  0.00  0.00    +0.131 A 
ENDROOT
BRANCH   1  11
ATOM      7  C   UNL     1       6.624   6.349  24.143  0.00  0.00    +0.130 A 
ATOM      8  N   UNL     1       6.718   5.031  23.763  0.00  0.00    -0.232 N 
ATOM      9  N   UNL     1       7.768   4.186  23.823  0.00  0.00    -0.274 N 
ATOM     10  H   UNL     1       8.547   4.401  24.430  0.00  0.00    +0.189 HD
ATOM     11  C   UNL     1       7.513   2.896  23.433  0.00  0.00    +0.161 A 
ATOM     12  N   UNL     1       6.390   2.480  22.922  0.00  0.00    -0.188 NA
ATOM     13  C   UNL     1       5.333   3.343  22.710  0.00  0.00    +0.299 A 
ATOM     14  O   UNL     1       4.294   2.990  22.170  0.00  0.00    -0.263 OA
ATOM     15  C   UNL     1       5.535   4.669  23.206  0.00  0.00    +0.152 A 
ATOM     16  C   UNL     1       4.750   5.798  23.240  0.00  0.00    +0.071 A 
ATOM     17  C   UNL     1       3.375   5.994  22.724  0.00  0.00    +0.068 C 
ATOM     18  N   UNL     1       5.435   6.833  23.839  0.00  0.00    -0.235 NA
BRANCH   7  19
ATOM     19  C   UNL     1       7.733   7.108  24.791  0.00  0.00    +0.076 C 
BRANCH  19  21
ATOM     20  C   UNL     1       9.357   7.079  26.716  0.00  0.00    +0.004 C 
ATOM     21  C   UNL     1       8.006   6.601  26.207  0.00  0.00    +0.004 C 
ENDBRANCH  19  21
ENDBRANCH   7  19
ENDBRANCH   1  11
BRANCH   3  22
ATOM     22  S   UNL     1       8.874  -2.171  23.314  0.00  0.00    +0.061 S 
ATOM     23  O   UNL     1      10.016  -2.940  23.770  0.00  0.00    -0.153 OA
ATOM     24  O   UNL     1       8.421  -2.265  21.948  0.00  0.00    -0.153 OA
BRANCH  22  25
ATOM     25  N   UNL     1       7.572  -2.498  24.374  0.00  0.00    -0.174 NA
ATOM     26  C   UNL     1       7.800  -3.698  25.244  0.00  0.00    +0.125 C 
ATOM     27  C   UNL     1       7.602  -4.999  24.445  0.00  0.00    +0.101 C 
ATOM     28  N   UNL     1       6.254  -5.135  23.852  0.00  0.00    -0.300 NA
ATOM     29  C   UNL     1       5.951  -3.926  23.046  0.00  0.00    +0.101 C 
ATOM     30  C   UNL     1       6.207  -2.574  23.758  0.00  0.00    +0.125 C 
BRANCH  28  31
ATOM     31  C   UNL     1       5.190  -5.395  24.830  0.00  0.00    +0.081 C 
ATOM     32  C   UNL     1       4.535  -6.762  24.676  0.00  0.00    +0.020 C 
ENDBRANCH  28  31
ENDBRANCH  22  25
ENDBRANCH   3  22
BRANCH   6  33
ATOM     33  O   UNL     1      10.256   3.576  23.888  0.00  0.00    -0.492 OA
BRANCH  33  34
ATOM     34  C   UNL     1      11.538   3.975  23.395  0.00  0.00    +0.226 C 
ATOM     35  C   UNL     1      11.668   5.478  23.548  0.00  0.00    +0.048 C 
ENDBRANCH  33  34
ENDBRANCH   6  33
TORSDOF 8
ENDMDL
