MODEL 1
REMARK VINA RESULT:      -4.6      0.000      0.000
REMARK  Name = 
REMARK  6 active torsions:
REMARK  status: ('A' for Active; 'I' for Inactive)
REMARK    1  A    between atoms: C_1  and  O_2
REMARK    2  A    between atoms: O_2  and  C_3
REMARK    3  A    between atoms: C_6  and  C_8
REMARK    4  A    between atoms: C_9  and  O_11
REMARK    5  A    between atoms: C_12  and  O_14
REMARK    6  A    between atoms: C_15  and  O_17
REMARK                            x       y       z     vdW  Elec       q    Type
REMARK                         _______ _______ _______ _____ _____    ______ ____
ROOT
ATOM      1  C   UNL     1       6.476  -4.781  25.795  0.00  0.00    +0.281 C 
ATOM      2  C   UNL     1       7.498  -4.677  26.950  0.00  0.00    +0.201 C 
ATOM      3  C   UNL     1       8.784  -3.985  26.461  0.00  0.00    +0.179 C 
ATOM      4  C   UNL     1       9.312  -4.670  25.190  0.00  0.00    +0.174 C 
ATOM      5  C   UNL     1       8.228  -4.811  24.105  0.00  0.00    +0.149 C 
ATOM      6  C   UNL     1       7.975  -3.539  23.297  0.00  0.00    +0.041 C 
ATOM      7  O   UNL     1       7.020  -5.385  24.616  0.00  0.00    -0.343 OA
ENDROOT
BRANCH   1   9
ATOM      8  C   UNL     1       4.633  -3.520  25.011  0.00  0.00    +0.197 C 
ATOM      9  O   UNL     1       5.961  -3.470  25.523  0.00  0.00    -0.352 OA
ENDBRANCH   1   9
BRANCH   2  10
ATOM     10  O   UNL     1       7.783  -5.964  27.514  0.00  0.00    -0.384 OA
ATOM     11  H   UNL     1       8.266  -6.480  26.833  0.00  0.00    +0.210 HD
ENDBRANCH   2  10
BRANCH   3  12
ATOM     12  O   UNL     1       8.597  -2.583  26.247  0.00  0.00    -0.386 OA
ATOM     13  H   UNL     1       9.483  -2.162  26.169  0.00  0.00    +0.210 HD
ENDBRANCH   3  12
BRANCH   4  14
ATOM     14  O   UNL     1       9.769  -5.987  25.568  0.00  0.00    -0.387 OA
ATOM     15  H   UNL     1       9.719  -6.045  26.542  0.00  0.00    +0.210 HD
ENDBRANCH   4  14
TORSDOF 4
ENDMDL
MODEL 2
REMARK VINA RESULT:      -4.5      5.011      6.675
REMARK  Name = 
REMARK  6 active torsions:
REMARK  status: ('A' for Active; 'I' for Inactive)
REMARK    1  A    between atoms: C_1  and  O_2
REMARK    2  A    between atoms: O_2  and  C_3
REMARK    3  A    between atoms: C_6  and  C_8
REMARK    4  A    between atoms: C_9  and  O_11
REMARK    5  A    between atoms: C_12  and  O_14
REMARK    6  A    between atoms: C_15  and  O_17
REMARK                            x       y       z     vdW  Elec       q    Type
REMARK                         _______ _______ _______ _____ _____    ______ ____
ROOT
ATOM      1  C   UNL     1       9.874   1.755  23.834  0.00  0.00    +0.281 C 
ATOM      2  C   UNL     1       9.058   1.844  22.523  0.00  0.00    +0.201 C 
ATOM      3  C   UNL     1       8.208   0.573  22.340  0.00  0.00    +0.179 C 
ATOM      4  C   UNL     1       9.084  -0.683  22.471  0.00  0.00    +0.174 C 
ATOM      5  C   UNL     1       9.928  -0.678  23.760  0.00  0.00    +0.149 C 
ATOM      6  C   UNL     1       9.165  -1.097  25.015  0.00  0.00    +0.041 C 
ATOM      7  O   UNL     1      10.642   0.551  23.935  0.00  0.00    -0.343 OA
ENDROOT
BRANCH   1   9
ATOM      8  C   UNL     1       8.442   3.218  25.020  0.00  0.00    +0.197 C 
ATOM      9  O   UNL     1       8.975   1.899  24.941  0.00  0.00    -0.352 OA
ENDBRANCH   1   9
BRANCH   2  10
ATOM     10  O   UNL     1       9.909   2.068  21.391  0.00  0.00    -0.384 OA
ATOM     11  H   UNL     1      10.378   1.226  21.208  0.00  0.00    +0.210 HD
ENDBRANCH   2  10
BRANCH   3  12
ATOM     12  O   UNL     1       7.103   0.524  23.248  0.00  0.00    -0.386 OA
ATOM     13  H   UNL     1       6.418  -0.072  22.869  0.00  0.00    +0.210 HD
ENDBRANCH   3  12
BRANCH   4  14
ATOM     14  O   UNL     1       9.971  -0.711  21.331  0.00  0.00    -0.387 OA
ATOM     15  H   UNL     1       9.578  -0.142  20.641  0.00  0.00    +0.210 HD
ENDBRANCH   4  14
TORSDOF 4
ENDMDL
MODEL 3
REMARK VINA RESULT:      -4.4      1.403      3.052
REMARK  Name = 
REMARK  6 active torsions:
REMARK  status: ('A' for Active; 'I' for Inactive)
REMARK    1  A    between atoms: C_1  and  O_2
REMARK    2  A    between atoms: O_2  and  C_3
REMARK    3  A    between atoms: C_6  and  C_8
REMARK    4  A    between atoms: C_9  and  O_11
REMARK    5  A    between atoms: C_12  and  O_14
REMARK    6  A    between atoms: C_15  and  O_17
REMARK                            x       y       z     vdW  Elec       q    Type
REMARK                         _______ _______ _______ _____ _____    ______ ____
ROOT
ATOM      1  C   UNL     1       8.177  -2.665  25.369  0.00  0.00    +0.281 C 
ATOM      2  C   UNL     1       8.642  -3.301  24.038  0.00  0.00    +0.201 C 
ATOM      3  C   UNL     1       8.394  -4.820  24.060  0.00  0.00    +0.179 C 
ATOM      4  C   UNL     1       9.006  -5.446  25.323  0.00  0.00    +0.174 C 
ATOM      5  C   UNL     1       8.564  -4.724  26.610  0.00  0.00    +0.149 C 
ATOM      6  C   UNL     1       7.173  -5.115  27.107  0.00  0.00    +0.041 C 
ATOM      7  O   UNL     1       8.736  -3.305  26.522  0.00  0.00    -0.343 OA
ENDROOT
BRANCH   1   9
ATOM      8  C   UNL     1       6.184  -1.728  24.504  0.00  0.00    +0.197 C 
ATOM      9  O   UNL     1       6.743  -2.680  25.404  0.00  0.00    -0.352 OA
ENDBRANCH   1   9
BRANCH   2  10
ATOM     10  O   UNL     1      10.019  -3.002  23.769  0.00  0.00    -0.384 OA
ATOM     11  H   UNL     1      10.072  -2.688  22.840  0.00  0.00    +0.210 HD
ENDBRANCH   2  10
BRANCH   3  12
ATOM     12  O   UNL     1       7.005  -5.145  23.948  0.00  0.00    -0.386 OA
ATOM     13  H   UNL     1       6.482  -4.349  24.194  0.00  0.00    +0.210 HD
ENDBRANCH   3  12
BRANCH   4  14
ATOM     14  O   UNL     1      10.442  -5.348  25.202  0.00  0.00    -0.387 OA
ATOM     15  H   UNL     1      10.794  -5.108  26.081  0.00  0.00    +0.210 HD
ENDBRANCH   4  14
TORSDOF 4
ENDMDL
MODEL 4
REMARK VINA RESULT:      -4.4      3.643      5.071
REMARK  Name = 
REMARK  6 active torsions:
REMARK  status: ('A' for Active; 'I' for Inactive)
REMARK    1  A    between atoms: C_1  and  O_2
REMARK    2  A    between atoms: O_2  and  C_3
REMARK    3  A    between atoms: C_6  and  C_8
REMARK    4  A    between atoms: C_9  and  O_11
REMARK    5  A    between atoms: C_12  and  O_14
REMARK    6  A    between atoms: C_15  and  O_17
REMARK                            x       y       z     vdW  Elec       q    Type
REMARK                         _______ _______ _______ _____ _____    ______ ____
ROOT
ATOM      1  C   UNL     1       9.433  -0.947  24.460  0.00  0.00    +0.281 C 
ATOM      2  C   UNL     1      10.124  -1.904  23.460  0.00  0.00    +0.201 C 
ATOM      3  C   UNL     1       9.425  -1.835  22.090  0.00  0.00    +0.179 C 
ATOM      4  C   UNL     1       7.911  -2.050  22.249  0.00  0.00    +0.174 C 
ATOM      5  C   UNL     1       7.294  -1.120  23.311  0.00  0.00    +0.149 C 
ATOM      6  C   UNL     1       7.027   0.304  22.824  0.00  0.00    +0.041 C 
ATOM      7  O   UNL     1       8.019  -1.151  24.545  0.00  0.00    -0.343 OA
ENDROOT
BRANCH   1   9
ATOM      8  C   UNL     1      11.069   0.762  24.482  0.00  0.00    +0.197 C 
ATOM      9  O   UNL     1       9.748   0.403  24.090  0.00  0.00    -0.352 OA
ENDBRANCH   1   9
BRANCH   2  10
ATOM     10  O   UNL     1      10.158  -3.247  23.960  0.00  0.00    -0.384 OA
ATOM     11  H   UNL     1       9.663  -3.255  24.808  0.00  0.00    +0.210 HD
ENDBRANCH   2  10
BRANCH   3  12
ATOM     12  O   UNL     1       9.699  -0.612  21.401  0.00  0.00    -0.386 OA
ATOM     13  H   UNL     1       9.947  -0.828  20.474  0.00  0.00    +0.210 HD
ENDBRANCH   3  12
BRANCH   4  14
ATOM     14  O   UNL     1       7.709  -3.421  22.654  0.00  0.00    -0.387 OA
ATOM     15  H   UNL     1       7.485  -3.415  23.605  0.00  0.00    +0.210 HD
ENDBRANCH   4  14
TORSDOF 4
ENDMDL
MODEL 5
REMARK VINA RESULT:      -4.4      4.613      6.379
REMARK  Name = 
REMARK  6 active torsions:
REMARK  status: ('A' for Active; 'I' for Inactive)
REMARK    1  A    between atoms: C_1  and  O_2
REMARK    2  A    between atoms: O_2  and  C_3
REMARK    3  A    between atoms: C_6  and  C_8
REMARK    4  A    between atoms: C_9  and  O_11
REMARK    5  A    between atoms: C_12  and  O_14
REMARK    6  A    between atoms: C_15  and  O_17
REMARK                            x       y       z     vdW  Elec       q    Type
REMARK                         _______ _______ _______ _____ _____    ______ ____
ROOT
ATOM      1  C   UNL     1       9.926   0.238  24.428  0.00  0.00    +0.281 C 
ATOM      2  C   UNL     1       9.054   1.502  24.238  0.00  0.00    +0.201 C 
ATOM      3  C   UNL     1       8.195   1.367  22.967  0.00  0.00    +0.179 C 
ATOM      4  C   UNL     1       9.074   1.001  21.761  0.00  0.00    +0.174 C 
ATOM      5  C   UNL     1       9.972  -0.220  22.038  0.00  0.00    +0.149 C 
ATOM      6  C   UNL     1       9.262  -1.567  21.912  0.00  0.00    +0.041 C 
ATOM      7  O   UNL     1      10.695  -0.093  23.267  0.00  0.00    -0.343 OA
ENDROOT
BRANCH   1   9
ATOM      8  C   UNL     1       8.795  -0.820  26.218  0.00  0.00    +0.197 C 
ATOM      9  O   UNL     1       9.074  -0.847  24.822  0.00  0.00    -0.352 OA
ENDBRANCH   1   9
BRANCH   2  10
ATOM     10  O   UNL     1       9.857   2.690  24.200  0.00  0.00    -0.384 OA
ATOM     11  H   UNL     1       9.691   3.125  23.336  0.00  0.00    +0.210 HD
ENDBRANCH   2  10
BRANCH   3  12
ATOM     12  O   UNL     1       7.130   0.426  23.130  0.00  0.00    -0.386 OA
ATOM     13  H   UNL     1       7.516  -0.427  23.430  0.00  0.00    +0.210 HD
ENDBRANCH   3  12
BRANCH   4  14
ATOM     14  O   UNL     1       9.911   2.142  21.474  0.00  0.00    -0.387 OA
ATOM     15  H   UNL     1      10.834   1.824  21.429  0.00  0.00    +0.210 HD
ENDBRANCH   4  14
TORSDOF 4
ENDMDL
MODEL 6
REMARK VINA RESULT:      -4.4      3.361      5.001
REMARK  Name = 
REMARK  6 active torsions:
REMARK  status: ('A' for Active; 'I' for Inactive)
REMARK    1  A    between atoms: C_1  and  O_2
REMARK    2  A    between atoms: O_2  and  C_3
REMARK    3  A    between atoms: C_6  and  C_8
REMARK    4  A    between atoms: C_9  and  O_11
REMARK    5  A    between atoms: C_12  and  O_14
REMARK    6  A    between atoms: C_15  and  O_17
REMARK                            x       y       z     vdW  Elec       q    Type
REMARK                         _______ _______ _______ _____ _____    ______ ____
ROOT
ATOM      1  C   UNL     1       7.797  -1.544  22.639  0.00  0.00    +0.281 C 
ATOM      2  C   UNL     1       9.203  -1.749  22.028  0.00  0.00    +0.201 C 
ATOM      3  C   UNL     1      10.260  -1.832  23.146  0.00  0.00    +0.179 C 
ATOM      4  C   UNL     1      10.135  -0.627  24.093  0.00  0.00    +0.174 C 
ATOM      5  C   UNL     1       8.697  -0.432  24.608  0.00  0.00    +0.149 C 
ATOM      6  C   UNL     1       8.307  -1.359  25.759  0.00  0.00    +0.041 C 
ATOM      7  O   UNL     1       7.735  -0.439  23.547  0.00  0.00    -0.343 OA
ENDROOT
BRANCH   1   9
ATOM      8  C   UNL     1       7.090  -3.779  22.314  0.00  0.00    +0.197 C 
ATOM      9  O   UNL     1       7.392  -2.767  23.269  0.00  0.00    -0.352 OA
ENDBRANCH   1   9
BRANCH   2  10
ATOM     10  O   UNL     1       9.521  -0.714  21.088  0.00  0.00    -0.384 OA
ATOM     11  H   UNL     1       9.483   0.140  21.571  0.00  0.00    +0.210 HD
ENDBRANCH   2  10
BRANCH   3  12
ATOM     12  O   UNL     1      10.187  -3.063  23.870  0.00  0.00    -0.386 OA
ATOM     13  H   UNL     1       9.346  -3.072  24.380  0.00  0.00    +0.210 HD
ENDBRANCH   3  12
BRANCH   4  14
ATOM     14  O   UNL     1      10.530   0.547  23.351  0.00  0.00    -0.387 OA
ATOM     15  H   UNL     1       9.733   0.893  22.904  0.00  0.00    +0.210 HD
ENDBRANCH   4  14
TORSDOF 4
ENDMDL
MODEL 7
REMARK VINA RESULT:      -4.4      3.959      5.581
REMARK  Name = 
REMARK  6 active torsions:
REMARK  status: ('A' for Active; 'I' for Inactive)
REMARK    1  A    between atoms: C_1  and  O_2
REMARK    2  A    between atoms: O_2  and  C_3
REMARK    3  A    between atoms: C_6  and  C_8
REMARK    4  A    between atoms: C_9  and  O_11
REMARK    5  A    between atoms: C_12  and  O_14
REMARK    6  A    between atoms: C_15  and  O_17
REMARK                            x       y       z     vdW  Elec       q    Type
REMARK                         _______ _______ _______ _____ _____    ______ ____
ROOT
ATOM      1  C   UNL     1       9.815   0.372  22.801  0.00  0.00    +0.281 C 
ATOM      2  C   UNL     1       9.278  -0.837  22.001  0.00  0.00    +0.201 C 
ATOM      3  C   UNL     1       8.342  -1.684  22.884  0.00  0.00    +0.179 C 
ATOM      4  C   UNL     1       9.034  -2.042  24.209  0.00  0.00    +0.174 C 
ATOM      5  C   UNL     1       9.613  -0.805  24.922  0.00  0.00    +0.149 C 
ATOM      6  C   UNL     1       8.584   0.016  25.697  0.00  0.00    +0.041 C 
ATOM      7  O   UNL     1      10.412  -0.001  24.048  0.00  0.00    -0.343 OA
ENDROOT
BRANCH   1   9
ATOM      8  C   UNL     1       8.401   1.969  21.777  0.00  0.00    +0.197 C 
ATOM      9  O   UNL     1       8.744   1.307  22.990  0.00  0.00    -0.352 OA
ENDBRANCH   1   9
BRANCH   2  10
ATOM     10  O   UNL     1      10.348  -1.629  21.467  0.00  0.00    -0.384 OA
ATOM     11  H   UNL     1       9.940  -2.380  20.984  0.00  0.00    +0.210 HD
ENDBRANCH   2  10
BRANCH   3  12
ATOM     12  O   UNL     1       7.087  -1.039  23.118  0.00  0.00    -0.386 OA
ATOM     13  H   UNL     1       6.688  -1.427  23.929  0.00  0.00    +0.210 HD
ENDBRANCH   3  12
BRANCH   4  14
ATOM     14  O   UNL     1      10.112  -2.952  23.902  0.00  0.00    -0.387 OA
ATOM     15  H   UNL     1      10.947  -2.451  23.973  0.00  0.00    +0.210 HD
ENDBRANCH   4  14
TORSDOF 4
ENDMDL
MODEL 8
REMARK VINA RESULT:      -4.4      4.688      6.211
REMARK  Name = 
REMARK  6 active torsions:
REMARK  status: ('A' for Active; 'I' for Inactive)
REMARK    1  A    between atoms: C_1  and  O_2
REMARK    2  A    between atoms: O_2  and  C_3
REMARK    3  A    between atoms: C_6  and  C_8
REMARK    4  A    between atoms: C_9  and  O_11
REMARK    5  A    between atoms: C_12  and  O_14
REMARK    6  A    between atoms: C_15  and  O_17
REMARK                            x       y       z     vdW  Elec       q    Type
REMARK                         _______ _______ _______ _____ _____    ______ ____
ROOT
ATOM      1  C   UNL     1       8.321  -0.574  23.192  0.00  0.00    +0.281 C 
ATOM      2  C   UNL     1       9.802  -0.670  22.756  0.00  0.00    +0.201 C 
ATOM      3  C   UNL     1      10.603   0.510  23.338  0.00  0.00    +0.179 C 
ATOM      4  C   UNL     1       9.915   1.843  23.003  0.00  0.00    +0.174 C 
ATOM      5  C   UNL     1       8.425   1.849  23.393  0.00  0.00    +0.149 C 
ATOM      6  C   UNL     1       8.162   2.102  24.877  0.00  0.00    +0.041 C 
ATOM      7  O   UNL     1       7.731   0.698  22.901  0.00  0.00    -0.343 OA
ENDROOT
BRANCH   1   9
ATOM      8  C   UNL     1       8.461  -2.270  24.836  0.00  0.00    +0.197 C 
ATOM      9  O   UNL     1       8.236  -0.886  24.589  0.00  0.00    -0.352 OA
ENDBRANCH   1   9
BRANCH   2  10
ATOM     10  O   UNL     1       9.924  -0.728  21.329  0.00  0.00    -0.384 OA
ATOM     11  H   UNL     1      10.443  -1.534  21.114  0.00  0.00    +0.210 HD
ENDBRANCH   2  10
BRANCH   3  12
ATOM     12  O   UNL     1      10.812   0.380  24.748  0.00  0.00    -0.386 OA
ATOM     13  H   UNL     1      11.779   0.423  24.922  0.00  0.00    +0.210 HD
ENDBRANCH   3  12
BRANCH   4  14
ATOM     14  O   UNL     1      10.027   2.040  21.577  0.00  0.00    -0.387 OA
ATOM     15  H   UNL     1       9.631   2.909  21.370  0.00  0.00    +0.210 HD
ENDBRANCH   4  14
TORSDOF 4
ENDMDL
MODEL 9
REMARK VINA RESULT:      -4.3      1.291      3.235
REMARK  Name = 
REMARK  6 active torsions:
REMARK  status: ('A' for Active; 'I' for Inactive)
REMARK    1  A    between atoms: C_1  and  O_2
REMARK    2  A    between atoms: O_2  and  C_3
REMARK    3  A    between atoms: C_6  and  C_8
REMARK    4  A    between atoms: C_9  and  O_11
REMARK    5  A    between atoms: C_12  and  O_14
REMARK    6  A    between atoms: C_15  and  O_17
REMARK                            x       y       z     vdW  Elec       q    Type
REMARK                         _______ _______ _______ _____ _____    ______ ____
ROOT
ATOM      1  C   UNL     1       9.062  -3.638  25.038  0.00  0.00    +0.281 C 
ATOM      2  C   UNL     1       8.825  -5.148  24.801  0.00  0.00    +0.201 C 
ATOM      3  C   UNL     1       7.377  -5.523  25.170  0.00  0.00    +0.179 C 
ATOM      4  C   UNL     1       7.041  -5.031  26.587  0.00  0.00    +0.174 C 
ATOM      5  C   UNL     1       7.368  -3.539  26.784  0.00  0.00    +0.149 C 
ATOM      6  C   UNL     1       6.318  -2.583  26.218  0.00  0.00    +0.041 C 
ATOM      7  O   UNL     1       8.695  -3.213  26.356  0.00  0.00    -0.343 OA
ENDROOT
BRANCH   1   9
ATOM      8  C   UNL     1       9.239  -2.173  23.189  0.00  0.00    +0.197 C 
ATOM      9  O   UNL     1       8.353  -2.902  24.032  0.00  0.00    -0.352 OA
ENDBRANCH   1   9
BRANCH   2  10
ATOM     10  O   UNL     1       9.770  -5.946  25.525  0.00  0.00    -0.384 OA
ATOM     11  H   UNL     1      10.097  -5.402  26.275  0.00  0.00    +0.210 HD
ENDBRANCH   2  10
BRANCH   3  12
ATOM     12  O   UNL     1       6.430  -5.031  24.218  0.00  0.00    -0.386 OA
ATOM     13  H   UNL     1       5.949  -4.275  24.624  0.00  0.00    +0.210 HD
ENDBRANCH   3  12
BRANCH   4  14
ATOM     14  O   UNL     1       7.830  -5.809  27.513  0.00  0.00    -0.387 OA
ATOM     15  H   UNL     1       7.325  -6.620  27.718  0.00  0.00    +0.210 HD
ENDBRANCH   4  14
TORSDOF 4
ENDMDL
