MODEL 1
REMARK VINA RESULT:      -5.6      0.000      0.000
REMARK  Name = 
REMARK  15 active torsions:
REMARK  status: ('A' for Active; 'I' for Inactive)
REMARK    1  A    between atoms: C_2  and  O_3
REMARK    2  A    between atoms: C_7  and  C_9
REMARK    3  A    between atoms: C_9  and  C_10
REMARK    4  A    between atoms: C_11  and  C_12
REMARK    5  A    between atoms: C_12  and  C_13
REMARK    6  A    between atoms: C_13  and  C_14
REMARK    7  A    between atoms: C_14  and  C_15
REMARK    8  A    between atoms: C_15  and  O_16
REMARK    9  A    between atoms: C_18  and  C_20
REMARK   10  A    between atoms: C_21  and  C_22
REMARK   11  A    between atoms: C_22  and  C_24
REMARK   12  A    between atoms: C_24  and  C_25
REMARK   13  A    between atoms: C_25  and  C_26
REMARK   14  A    between atoms: C_26  and  C_27
REMARK   15  A    between atoms: C_27  and  C_28
REMARK                            x       y       z     vdW  Elec       q    Type
REMARK                         _______ _______ _______ _____ _____    ______ ____
ROOT
ATOM      1  C   UNL     1       9.320  -0.719  21.579  0.00  0.00    +0.129 C 
ATOM      2  C   UNL     1       8.287  -1.213  22.621  0.00  0.00    +0.051 C 
ATOM      3  C   UNL     1       8.582  -0.432  23.923  0.00  0.00    +0.068 C 
ATOM      4  C   UNL     1       9.584   0.604  23.472  0.00  0.00    +0.140 C 
ATOM      5  O   UNL     1      10.174   1.360  24.235  0.00  0.00    -0.297 OA
ATOM      6  C   UNL     1       9.670   0.704  21.980  0.00  0.00    +0.106 C 
ENDROOT
BRANCH   2   7
ATOM      7  C   UNL     1       8.336  -2.708  22.841  0.00  0.00    -0.017 C 
ATOM      8  C   UNL     1       7.266  -3.507  22.962  0.00  0.00    +0.042 C 
BRANCH   8   9
ATOM      9  C   UNL     1       7.447  -4.978  23.139  0.00  0.00    +0.156 C 
ATOM     10  O   UNL     1       8.479  -5.440  23.619  0.00  0.00    -0.293 OA
BRANCH   9  11
ATOM     11  C   UNL     1       6.319  -5.858  22.632  0.00  0.00    +0.079 C 
BRANCH  11  12
ATOM     12  C   UNL     1       4.958  -5.189  22.813  0.00  0.00    +0.008 C 
BRANCH  12  13
ATOM     13  C   UNL     1       4.456  -5.323  24.250  0.00  0.00    +0.000 C 
BRANCH  13  14
ATOM     14  C   UNL     1       4.737  -6.722  24.800  0.00  0.00    -0.003 C 
ATOM     15  C   UNL     1       4.210  -6.882  26.215  0.00  0.00    +0.004 C 
ENDBRANCH  13  14
ENDBRANCH  12  13
ENDBRANCH  11  12
ENDBRANCH   9  11
ENDBRANCH   8   9
ENDBRANCH   2   7
BRANCH   1  16
ATOM     16  O   UNL     1      10.509  -1.502  21.592  0.00  0.00    -0.391 OA
ATOM     17  H   UNL     1      10.471  -2.098  22.362  0.00  0.00    +0.210 HD
ENDBRANCH   1  16
BRANCH   3  18
ATOM     18  C   UNL     1       7.358   0.317  24.466  0.00  0.00    +0.038 C 
BRANCH  18  19
ATOM     19  C   UNL     1       6.258  -0.603  24.903  0.00  0.00    -0.030 C 
ATOM     20  C   UNL     1       6.371  -1.435  25.948  0.00  0.00    -0.031 C 
BRANCH  20  21
ATOM     21  C   UNL     1       5.281  -2.368  26.387  0.00  0.00    +0.027 C 
BRANCH  21  22
ATOM     22  C   UNL     1       5.821  -3.573  27.160  0.00  0.00    +0.015 C 
BRANCH  22  23
ATOM     23  C   UNL     1       7.228  -3.978  26.717  0.00  0.00    +0.121 C 
BRANCH  23  24
ATOM     24  C   UNL     1       7.589  -5.371  27.180  0.00  0.00    +0.305 C 
ATOM     25  O   UNL     1       7.082  -5.960  28.121  0.00  0.00    -0.251 OA
BRANCH  24  26
ATOM     26  O   UNL     1       8.566  -5.919  26.423  0.00  0.00    -0.481 OA
ATOM     27  H   UNL     1       9.290  -5.302  26.211  0.00  0.00    +0.295 HD
ENDBRANCH  24  26
ENDBRANCH  23  24
ENDBRANCH  22  23
ENDBRANCH  21  22
ENDBRANCH  20  21
ENDBRANCH  18  19
ENDBRANCH   3  18
TORSDOF 14
ENDMDL
MODEL 2
REMARK VINA RESULT:      -5.4      1.844      2.845
REMARK  Name = 
REMARK  15 active torsions:
REMARK  status: ('A' for Active; 'I' for Inactive)
REMARK    1  A    between atoms: C_2  and  O_3
REMARK    2  A    between atoms: C_7  and  C_9
REMARK    3  A    between atoms: C_9  and  C_10
REMARK    4  A    between atoms: C_11  and  C_12
REMARK    5  A    between atoms: C_12  and  C_13
REMARK    6  A    between atoms: C_13  and  C_14
REMARK    7  A    between atoms: C_14  and  C_15
REMARK    8  A    between atoms: C_15  and  O_16
REMARK    9  A    between atoms: C_18  and  C_20
REMARK   10  A    between atoms: C_21  and  C_22
REMARK   11  A    between atoms: C_22  and  C_24
REMARK   12  A    between atoms: C_24  and  C_25
REMARK   13  A    between atoms: C_25  and  C_26
REMARK   14  A    between atoms: C_26  and  C_27
REMARK   15  A    between atoms: C_27  and  C_28
REMARK                            x       y       z     vdW  Elec       q    Type
REMARK                         _______ _______ _______ _____ _____    ______ ____
ROOT
ATOM      1  C   UNL     1       9.574  -0.561  21.763  0.00  0.00    +0.129 C 
ATOM      2  C   UNL     1       8.297  -1.039  22.497  0.00  0.00    +0.051 C 
ATOM      3  C   UNL     1       8.527  -0.743  23.997  0.00  0.00    +0.068 C 
ATOM      4  C   UNL     1       9.790   0.085  23.986  0.00  0.00    +0.140 C 
ATOM      5  O   UNL     1      10.389   0.430  24.997  0.00  0.00    -0.297 OA
ATOM      6  C   UNL     1      10.148   0.561  22.611  0.00  0.00    +0.106 C 
ENDROOT
BRANCH   2   7
ATOM      7  C   UNL     1       7.986  -2.499  22.256  0.00  0.00    -0.017 C 
ATOM      8  C   UNL     1       6.758  -3.038  22.254  0.00  0.00    +0.042 C 
BRANCH   8   9
ATOM      9  C   UNL     1       6.579  -4.491  21.964  0.00  0.00    +0.156 C 
ATOM     10  O   UNL     1       5.716  -4.883  21.183  0.00  0.00    -0.293 OA
BRANCH   9  11
ATOM     11  C   UNL     1       7.473  -5.443  22.736  0.00  0.00    +0.079 C 
BRANCH  11  12
ATOM     12  C   UNL     1       7.452  -5.145  24.234  0.00  0.00    +0.008 C 
BRANCH  12  13
ATOM     13  C   UNL     1       8.863  -4.937  24.782  0.00  0.00    +0.000 C 
BRANCH  13  14
ATOM     14  C   UNL     1       8.830  -4.641  26.281  0.00  0.00    -0.003 C 
ATOM     15  C   UNL     1       7.620  -5.272  26.949  0.00  0.00    +0.004 C 
ENDBRANCH  13  14
ENDBRANCH  12  13
ENDBRANCH  11  12
ENDBRANCH   9  11
ENDBRANCH   8   9
ENDBRANCH   2   7
BRANCH   1  16
ATOM     16  O   UNL     1      10.547  -1.595  21.655  0.00  0.00    -0.391 OA
ATOM     17  H   UNL     1      11.183  -1.490  22.386  0.00  0.00    +0.210 HD
ENDBRANCH   1  16
BRANCH   3  18
ATOM     18  C   UNL     1       7.418   0.117  24.617  0.00  0.00    +0.038 C 
BRANCH  18  19
ATOM     19  C   UNL     1       6.246  -0.691  25.085  0.00  0.00    -0.030 C 
ATOM     20  C   UNL     1       6.359  -1.939  25.562  0.00  0.00    -0.031 C 
BRANCH  20  21
ATOM     21  C   UNL     1       5.192  -2.761  26.022  0.00  0.00    +0.027 C 
BRANCH  21  22
ATOM     22  C   UNL     1       4.284  -3.183  24.865  0.00  0.00    +0.015 C 
BRANCH  22  23
ATOM     23  C   UNL     1       3.530  -4.483  25.149  0.00  0.00    +0.121 C 
BRANCH  23  24
ATOM     24  C   UNL     1       3.758  -5.518  24.071  0.00  0.00    +0.305 C 
ATOM     25  O   UNL     1       4.337  -6.583  24.221  0.00  0.00    -0.251 OA
BRANCH  24  26
ATOM     26  O   UNL     1       3.241  -5.135  22.882  0.00  0.00    -0.481 OA
ATOM     27  H   UNL     1       3.835  -5.298  22.126  0.00  0.00    +0.295 HD
ENDBRANCH  24  26
ENDBRANCH  23  24
ENDBRANCH  22  23
ENDBRANCH  21  22
ENDBRANCH  20  21
ENDBRANCH  18  19
ENDBRANCH   3  18
TORSDOF 14
ENDMDL
MODEL 3
REMARK VINA RESULT:      -5.3      1.614      3.134
REMARK  Name = 
REMARK  15 active torsions:
REMARK  status: ('A' for Active; 'I' for Inactive)
REMARK    1  A    between atoms: C_2  and  O_3
REMARK    2  A    between atoms: C_7  and  C_9
REMARK    3  A    between atoms: C_9  and  C_10
REMARK    4  A    between atoms: C_11  and  C_12
REMARK    5  A    between atoms: C_12  and  C_13
REMARK    6  A    between atoms: C_13  and  C_14
REMARK    7  A    between atoms: C_14  and  C_15
REMARK    8  A    between atoms: C_15  and  O_16
REMARK    9  A    between atoms: C_18  and  C_20
REMARK   10  A    between atoms: C_21  and  C_22
REMARK   11  A    between atoms: C_22  and  C_24
REMARK   12  A    between atoms: C_24  and  C_25
REMARK   13  A    between atoms: C_25  and  C_26
REMARK   14  A    between atoms: C_26  and  C_27
REMARK   15  A    between atoms: C_27  and  C_28
REMARK                            x       y       z     vdW  Elec       q    Type
REMARK                         _______ _______ _______ _____ _____    ______ ____
ROOT
ATOM      1  C   UNL     1       9.346  -1.328  21.688  0.00  0.00    +0.129 C 
ATOM      2  C   UNL     1       8.429  -1.782  22.849  0.00  0.00    +0.051 C 
ATOM      3  C   UNL     1       8.331  -0.578  23.816  0.00  0.00    +0.068 C 
ATOM      4  C   UNL     1       8.987   0.534  23.033  0.00  0.00    +0.140 C 
ATOM      5  O   UNL     1       9.227   1.644  23.494  0.00  0.00    -0.297 OA
ATOM      6  C   UNL     1       9.181   0.179  21.591  0.00  0.00    +0.106 C 
ENDROOT
BRANCH   2   7
ATOM      7  C   UNL     1       8.931  -3.023  23.551  0.00  0.00    -0.017 C 
ATOM      8  C   UNL     1       8.974  -3.197  24.880  0.00  0.00    +0.042 C 
BRANCH   8   9
ATOM      9  C   UNL     1       9.458  -4.489  25.451  0.00  0.00    +0.156 C 
ATOM     10  O   UNL     1      10.354  -5.129  24.907  0.00  0.00    -0.293 OA
BRANCH   9  11
ATOM     11  C   UNL     1       8.736  -4.986  26.689  0.00  0.00    +0.079 C 
BRANCH  11  12
ATOM     12  C   UNL     1       7.259  -5.254  26.410  0.00  0.00    +0.008 C 
BRANCH  12  13
ATOM     13  C   UNL     1       6.506  -5.617  27.690  0.00  0.00    +0.000 C 
BRANCH  13  14
ATOM     14  C   UNL     1       5.002  -5.710  27.432  0.00  0.00    -0.003 C 
ATOM     15  C   UNL     1       4.677  -6.770  26.393  0.00  0.00    +0.004 C 
ENDBRANCH  13  14
ENDBRANCH  12  13
ENDBRANCH  11  12
ENDBRANCH   9  11
ENDBRANCH   8   9
ENDBRANCH   2   7
BRANCH   1  16
ATOM     16  O   UNL     1      10.715  -1.622  21.941  0.00  0.00    -0.391 OA
ATOM     17  H   UNL     1      11.093  -0.886  22.456  0.00  0.00    +0.210 HD
ENDBRANCH   1  16
BRANCH   3  18
ATOM     18  C   UNL     1       6.884  -0.150  24.099  0.00  0.00    +0.038 C 
BRANCH  18  19
ATOM     19  C   UNL     1       5.904  -1.275  23.953  0.00  0.00    -0.030 C 
ATOM     20  C   UNL     1       5.516  -2.046  24.978  0.00  0.00    -0.031 C 
BRANCH  20  21
ATOM     21  C   UNL     1       4.545  -3.181  24.842  0.00  0.00    +0.027 C 
BRANCH  21  22
ATOM     22  C   UNL     1       4.532  -3.771  23.430  0.00  0.00    +0.015 C 
BRANCH  22  23
ATOM     23  C   UNL     1       5.572  -4.876  23.240  0.00  0.00    +0.121 C 
BRANCH  23  24
ATOM     24  C   UNL     1       6.248  -4.794  21.891  0.00  0.00    +0.305 C 
ATOM     25  O   UNL     1       7.155  -5.516  21.507  0.00  0.00    -0.251 OA
BRANCH  24  26
ATOM     26  O   UNL     1       5.733  -3.806  21.125  0.00  0.00    -0.481 OA
ATOM     27  H   UNL     1       4.770  -3.691  21.231  0.00  0.00    +0.295 HD
ENDBRANCH  24  26
ENDBRANCH  23  24
ENDBRANCH  22  23
ENDBRANCH  21  22
ENDBRANCH  20  21
ENDBRANCH  18  19
ENDBRANCH   3  18
TORSDOF 14
ENDMDL
MODEL 4
REMARK VINA RESULT:      -5.3      1.942      5.587
REMARK  Name = 
REMARK  15 active torsions:
REMARK  status: ('A' for Active; 'I' for Inactive)
REMARK    1  A    between atoms: C_2  and  O_3
REMARK    2  A    between atoms: C_7  and  C_9
REMARK    3  A    between atoms: C_9  and  C_10
REMARK    4  A    between atoms: C_11  and  C_12
REMARK    5  A    between atoms: C_12  and  C_13
REMARK    6  A    between atoms: C_13  and  C_14
REMARK    7  A    between atoms: C_14  and  C_15
REMARK    8  A    between atoms: C_15  and  O_16
REMARK    9  A    between atoms: C_18  and  C_20
REMARK   10  A    between atoms: C_21  and  C_22
REMARK   11  A    between atoms: C_22  and  C_24
REMARK   12  A    between atoms: C_24  and  C_25
REMARK   13  A    between atoms: C_25  and  C_26
REMARK   14  A    between atoms: C_26  and  C_27
REMARK   15  A    between atoms: C_27  and  C_28
REMARK                            x       y       z     vdW  Elec       q    Type
REMARK                         _______ _______ _______ _____ _____    ______ ____
ROOT
ATOM      1  C   UNL     1       8.486  -3.351  24.344  0.00  0.00    +0.129 C 
ATOM      2  C   UNL     1       7.405  -2.636  23.498  0.00  0.00    +0.051 C 
ATOM      3  C   UNL     1       6.926  -3.668  22.451  0.00  0.00    +0.068 C 
ATOM      4  C   UNL     1       7.579  -4.947  22.917  0.00  0.00    +0.140 C 
ATOM      5  O   UNL     1       7.553  -5.997  22.286  0.00  0.00    -0.297 OA
ATOM      6  C   UNL     1       8.139  -4.830  24.301  0.00  0.00    +0.106 C 
ENDROOT
BRANCH   2   7
ATOM      7  C   UNL     1       7.905  -1.367  22.846  0.00  0.00    -0.017 C 
ATOM      8  C   UNL     1       7.246  -0.200  22.818  0.00  0.00    +0.042 C 
BRANCH   8   9
ATOM      9  C   UNL     1       7.867   0.995  22.173  0.00  0.00    +0.156 C 
ATOM     10  O   UNL     1       7.225   2.026  21.992  0.00  0.00    -0.293 OA
BRANCH   9  11
ATOM     11  C   UNL     1       9.300   0.832  21.701  0.00  0.00    +0.079 C 
BRANCH  11  12
ATOM     12  C   UNL     1      10.181   1.989  22.167  0.00  0.00    +0.008 C 
BRANCH  12  13
ATOM     13  C   UNL     1      10.346   1.989  23.686  0.00  0.00    +0.000 C 
BRANCH  13  14
ATOM     14  C   UNL     1      10.915   0.658  24.176  0.00  0.00    -0.003 C 
ATOM     15  C   UNL     1      10.076   0.069  25.297  0.00  0.00    +0.004 C 
ENDBRANCH  13  14
ENDBRANCH  12  13
ENDBRANCH  11  12
ENDBRANCH   9  11
ENDBRANCH   8   9
ENDBRANCH   2   7
BRANCH   1  16
ATOM     16  O   UNL     1       9.791  -3.173  23.805  0.00  0.00    -0.391 OA
ATOM     17  H   UNL     1      10.174  -2.369  24.199  0.00  0.00    +0.210 HD
ENDBRANCH   1  16
BRANCH   3  18
ATOM     18  C   UNL     1       5.408  -3.891  22.476  0.00  0.00    +0.038 C 
BRANCH  18  19
ATOM     19  C   UNL     1       4.788  -3.535  23.794  0.00  0.00    -0.030 C 
ATOM     20  C   UNL     1       4.312  -4.450  24.651  0.00  0.00    -0.031 C 
BRANCH  20  21
ATOM     21  C   UNL     1       3.680  -4.105  25.966  0.00  0.00    +0.027 C 
BRANCH  21  22
ATOM     22  C   UNL     1       4.144  -5.026  27.096  0.00  0.00    +0.015 C 
BRANCH  22  23
ATOM     23  C   UNL     1       5.515  -5.649  26.827  0.00  0.00    +0.121 C 
BRANCH  23  24
ATOM     24  C   UNL     1       5.997  -6.485  27.990  0.00  0.00    +0.305 C 
ATOM     25  O   UNL     1       7.020  -6.291  28.628  0.00  0.00    -0.251 OA
BRANCH  24  26
ATOM     26  O   UNL     1       5.155  -7.506  28.264  0.00  0.00    -0.481 OA
ATOM     27  H   UNL     1       4.720  -7.877  27.473  0.00  0.00    +0.295 HD
ENDBRANCH  24  26
ENDBRANCH  23  24
ENDBRANCH  22  23
ENDBRANCH  21  22
ENDBRANCH  20  21
ENDBRANCH  18  19
ENDBRANCH   3  18
TORSDOF 14
ENDMDL
MODEL 5
REMARK VINA RESULT:      -5.3      1.555      2.192
REMARK  Name = 
REMARK  15 active torsions:
REMARK  status: ('A' for Active; 'I' for Inactive)
REMARK    1  A    between atoms: C_2  and  O_3
REMARK    2  A    between atoms: C_7  and  C_9
REMARK    3  A    between atoms: C_9  and  C_10
REMARK    4  A    between atoms: C_11  and  C_12
REMARK    5  A    between atoms: C_12  and  C_13
REMARK    6  A    between atoms: C_13  and  C_14
REMARK    7  A    between atoms: C_14  and  C_15
REMARK    8  A    between atoms: C_15  and  O_16
REMARK    9  A    between atoms: C_18  and  C_20
REMARK   10  A    between atoms: C_21  and  C_22
REMARK   11  A    between atoms: C_22  and  C_24
REMARK   12  A    between atoms: C_24  and  C_25
REMARK   13  A    between atoms: C_25  and  C_26
REMARK   14  A    between atoms: C_26  and  C_27
REMARK   15  A    between atoms: C_27  and  C_28
REMARK                            x       y       z     vdW  Elec       q    Type
REMARK                         _______ _______ _______ _____ _____    ______ ____
ROOT
ATOM      1  C   UNL     1       9.185  -0.586  21.911  0.00  0.00    +0.129 C 
ATOM      2  C   UNL     1       8.104  -1.272  22.781  0.00  0.00    +0.051 C 
ATOM      3  C   UNL     1       8.606  -1.180  24.241  0.00  0.00    +0.068 C 
ATOM      4  C   UNL     1       9.794  -0.255  24.130  0.00  0.00    +0.140 C 
ATOM      5  O   UNL     1      10.560  -0.013  25.056  0.00  0.00    -0.297 OA
ATOM      6  C   UNL     1       9.851   0.445  22.807  0.00  0.00    +0.106 C 
ENDROOT
BRANCH   2   7
ATOM      7  C   UNL     1       7.832  -2.701  22.372  0.00  0.00    -0.017 C 
ATOM      8  C   UNL     1       6.637  -3.188  22.009  0.00  0.00    +0.042 C 
BRANCH   8   9
ATOM      9  C   UNL     1       6.506  -4.614  21.588  0.00  0.00    +0.156 C 
ATOM     10  O   UNL     1       5.886  -4.925  20.574  0.00  0.00    -0.293 OA
BRANCH   9  11
ATOM     11  C   UNL     1       7.119  -5.646  22.516  0.00  0.00    +0.079 C 
BRANCH  11  12
ATOM     12  C   UNL     1       6.267  -5.857  23.766  0.00  0.00    +0.008 C 
BRANCH  12  13
ATOM     13  C   UNL     1       6.835  -5.098  24.965  0.00  0.00    +0.000 C 
BRANCH  13  14
ATOM     14  C   UNL     1       8.361  -5.185  24.994  0.00  0.00    -0.003 C 
ATOM     15  C   UNL     1       8.942  -4.421  26.171  0.00  0.00    +0.004 C 
ENDBRANCH  13  14
ENDBRANCH  12  13
ENDBRANCH  11  12
ENDBRANCH   9  11
ENDBRANCH   8   9
ENDBRANCH   2   7
BRANCH   1  16
ATOM     16  O   UNL     1      10.174  -1.506  21.462  0.00  0.00    -0.391 OA
ATOM     17  H   UNL     1      10.899  -0.998  21.057  0.00  0.00    +0.210 HD
ENDBRANCH   1  16
BRANCH   3  18
ATOM     18  C   UNL     1       7.593  -0.517  25.185  0.00  0.00    +0.038 C 
BRANCH  18  19
ATOM     19  C   UNL     1       6.421  -1.397  25.495  0.00  0.00    -0.030 C 
ATOM     20  C   UNL     1       6.196  -1.917  26.709  0.00  0.00    -0.031 C 
BRANCH  20  21
ATOM     21  C   UNL     1       5.032  -2.809  27.028  0.00  0.00    +0.027 C 
BRANCH  21  22
ATOM     22  C   UNL     1       5.357  -3.820  28.130  0.00  0.00    +0.015 C 
BRANCH  22  23
ATOM     23  C   UNL     1       4.805  -5.215  27.835  0.00  0.00    +0.121 C 
BRANCH  23  24
ATOM     24  C   UNL     1       5.729  -6.307  28.323  0.00  0.00    +0.305 C 
ATOM     25  O   UNL     1       6.938  -6.203  28.462  0.00  0.00    -0.251 OA
BRANCH  24  26
ATOM     26  O   UNL     1       5.063  -7.450  28.599  0.00  0.00    -0.481 OA
ATOM     27  H   UNL     1       4.593  -7.824  27.831  0.00  0.00    +0.295 HD
ENDBRANCH  24  26
ENDBRANCH  23  24
ENDBRANCH  22  23
ENDBRANCH  21  22
ENDBRANCH  20  21
ENDBRANCH  18  19
ENDBRANCH   3  18
TORSDOF 14
ENDMDL
MODEL 6
REMARK VINA RESULT:      -5.2      2.638      5.784
REMARK  Name = 
REMARK  15 active torsions:
REMARK  status: ('A' for Active; 'I' for Inactive)
REMARK    1  A    between atoms: C_2  and  O_3
REMARK    2  A    between atoms: C_7  and  C_9
REMARK    3  A    between atoms: C_9  and  C_10
REMARK    4  A    between atoms: C_11  and  C_12
REMARK    5  A    between atoms: C_12  and  C_13
REMARK    6  A    between atoms: C_13  and  C_14
REMARK    7  A    between atoms: C_14  and  C_15
REMARK    8  A    between atoms: C_15  and  O_16
REMARK    9  A    between atoms: C_18  and  C_20
REMARK   10  A    between atoms: C_21  and  C_22
REMARK   11  A    between atoms: C_22  and  C_24
REMARK   12  A    between atoms: C_24  and  C_25
REMARK   13  A    between atoms: C_25  and  C_26
REMARK   14  A    between atoms: C_26  and  C_27
REMARK   15  A    between atoms: C_27  and  C_28
REMARK                            x       y       z     vdW  Elec       q    Type
REMARK                         _______ _______ _______ _____ _____    ______ ____
ROOT
ATOM      1  C   UNL     1       9.283  -0.548  21.898  0.00  0.00    +0.129 C 
ATOM      2  C   UNL     1       8.493  -0.835  23.197  0.00  0.00    +0.051 C 
ATOM      3  C   UNL     1       9.285  -0.160  24.341  0.00  0.00    +0.068 C 
ATOM      4  C   UNL     1      10.319   0.652  23.599  0.00  0.00    +0.140 C 
ATOM      5  O   UNL     1      11.237   1.252  24.145  0.00  0.00    -0.297 OA
ATOM      6  C   UNL     1      10.016   0.761  22.136  0.00  0.00    +0.106 C 
ENDROOT
BRANCH   2   7
ATOM      7  C   UNL     1       8.288  -2.311  23.454  0.00  0.00    -0.017 C 
ATOM      8  C   UNL     1       8.641  -2.958  24.574  0.00  0.00    +0.042 C 
BRANCH   8   9
ATOM      9  C   UNL     1       8.349  -4.415  24.721  0.00  0.00    +0.156 C 
ATOM     10  O   UNL     1       9.063  -5.263  24.193  0.00  0.00    -0.293 OA
BRANCH   9  11
ATOM     11  C   UNL     1       7.093  -4.772  25.494  0.00  0.00    +0.079 C 
BRANCH  11  12
ATOM     12  C   UNL     1       5.836  -4.580  24.648  0.00  0.00    +0.008 C 
BRANCH  12  13
ATOM     13  C   UNL     1       5.669  -5.709  23.631  0.00  0.00    +0.000 C 
BRANCH  13  14
ATOM     14  C   UNL     1       5.706  -5.168  22.202  0.00  0.00    -0.003 C 
ATOM     15  C   UNL     1       6.853  -5.767  21.406  0.00  0.00    +0.004 C 
ENDBRANCH  13  14
ENDBRANCH  12  13
ENDBRANCH  11  12
ENDBRANCH   9  11
ENDBRANCH   8   9
ENDBRANCH   2   7
BRANCH   1  16
ATOM     16  O   UNL     1      10.242  -1.563  21.620  0.00  0.00    -0.391 OA
ATOM     17  H   UNL     1      11.090  -1.130  21.413  0.00  0.00    +0.210 HD
ENDBRANCH   1  16
BRANCH   3  18
ATOM     18  C   UNL     1       8.437   0.818  25.165  0.00  0.00    +0.038 C 
BRANCH  18  19
ATOM     19  C   UNL     1       8.307   2.164  24.519  0.00  0.00    -0.030 C 
ATOM     20  C   UNL     1       8.275   3.310  25.215  0.00  0.00    -0.031 C 
BRANCH  20  21
ATOM     21  C   UNL     1       8.133   4.662  24.580  0.00  0.00    +0.027 C 
BRANCH  21  22
ATOM     22  C   UNL     1       9.292   5.597  24.934  0.00  0.00    +0.015 C 
BRANCH  22  23
ATOM     23  C   UNL     1      10.084   6.049  23.706  0.00  0.00    +0.121 C 
BRANCH  23  24
ATOM     24  C   UNL     1      11.405   5.325  23.585  0.00  0.00    +0.305 C 
ATOM     25  O   UNL     1      12.496   5.784  23.887  0.00  0.00    -0.251 OA
BRANCH  24  26
ATOM     26  O   UNL     1      11.255   4.076  23.089  0.00  0.00    -0.481 OA
ATOM     27  H   UNL     1      10.509   3.989  22.468  0.00  0.00    +0.295 HD
ENDBRANCH  24  26
ENDBRANCH  23  24
ENDBRANCH  22  23
ENDBRANCH  21  22
ENDBRANCH  20  21
ENDBRANCH  18  19
ENDBRANCH   3  18
TORSDOF 14
ENDMDL
MODEL 7
REMARK VINA RESULT:      -5.1      2.096      6.644
REMARK  Name = 
REMARK  15 active torsions:
REMARK  status: ('A' for Active; 'I' for Inactive)
REMARK    1  A    between atoms: C_2  and  O_3
REMARK    2  A    between atoms: C_7  and  C_9
REMARK    3  A    between atoms: C_9  and  C_10
REMARK    4  A    between atoms: C_11  and  C_12
REMARK    5  A    between atoms: C_12  and  C_13
REMARK    6  A    between atoms: C_13  and  C_14
REMARK    7  A    between atoms: C_14  and  C_15
REMARK    8  A    between atoms: C_15  and  O_16
REMARK    9  A    between atoms: C_18  and  C_20
REMARK   10  A    between atoms: C_21  and  C_22
REMARK   11  A    between atoms: C_22  and  C_24
REMARK   12  A    between atoms: C_24  and  C_25
REMARK   13  A    between atoms: C_25  and  C_26
REMARK   14  A    between atoms: C_26  and  C_27
REMARK   15  A    between atoms: C_27  and  C_28
REMARK                            x       y       z     vdW  Elec       q    Type
REMARK                         _______ _______ _______ _____ _____    ______ ____
ROOT
ATOM      1  C   UNL     1       5.698  -3.254  26.203  0.00  0.00    +0.129 C 
ATOM      2  C   UNL     1       7.114  -3.013  25.627  0.00  0.00    +0.051 C 
ATOM      3  C   UNL     1       8.044  -4.028  26.332  0.00  0.00    +0.068 C 
ATOM      4  C   UNL     1       7.071  -4.919  27.066  0.00  0.00    +0.140 C 
ATOM      5  O   UNL     1       7.408  -5.793  27.857  0.00  0.00    -0.297 OA
ATOM      6  C   UNL     1       5.657  -4.716  26.614  0.00  0.00    +0.106 C 
ENDROOT
BRANCH   2   7
ATOM      7  C   UNL     1       7.595  -1.592  25.811  0.00  0.00    -0.017 C 
ATOM      8  C   UNL     1       8.306  -0.893  24.914  0.00  0.00    +0.042 C 
BRANCH   8   9
ATOM      9  C   UNL     1       8.689   0.521  25.200  0.00  0.00    +0.156 C 
ATOM     10  O   UNL     1       7.924   1.282  25.788  0.00  0.00    -0.293 OA
BRANCH   9  11
ATOM     11  C   UNL     1      10.035   0.972  24.666  0.00  0.00    +0.079 C 
BRANCH  11  12
ATOM     12  C   UNL     1      10.329   0.365  23.296  0.00  0.00    +0.008 C 
BRANCH  12  13
ATOM     13  C   UNL     1      10.110   1.381  22.176  0.00  0.00    +0.000 C 
BRANCH  13  14
ATOM     14  C   UNL     1       8.851   1.050  21.375  0.00  0.00    -0.003 C 
ATOM     15  C   UNL     1       7.690   1.952  21.761  0.00  0.00    +0.004 C 
ENDBRANCH  13  14
ENDBRANCH  12  13
ENDBRANCH  11  12
ENDBRANCH   9  11
ENDBRANCH   8   9
ENDBRANCH   2   7
BRANCH   1  16
ATOM     16  O   UNL     1       5.443  -2.450  27.350  0.00  0.00    -0.391 OA
ATOM     17  H   UNL     1       4.619  -2.766  27.763  0.00  0.00    +0.210 HD
ENDBRANCH   1  16
BRANCH   3  18
ATOM     18  C   UNL     1       8.826  -4.911  25.350  0.00  0.00    +0.038 C 
BRANCH  18  19
ATOM     19  C   UNL     1       8.382  -4.738  23.929  0.00  0.00    -0.030 C 
ATOM     20  C   UNL     1       7.687  -5.669  23.260  0.00  0.00    -0.031 C 
BRANCH  20  21
ATOM     21  C   UNL     1       7.247  -5.511  21.835  0.00  0.00    +0.027 C 
BRANCH  21  22
ATOM     22  C   UNL     1       5.744  -5.740  21.659  0.00  0.00    +0.015 C 
BRANCH  22  23
ATOM     23  C   UNL     1       4.924  -5.223  22.842  0.00  0.00    +0.121 C 
BRANCH  23  24
ATOM     24  C   UNL     1       3.912  -6.239  23.318  0.00  0.00    +0.305 C 
ATOM     25  O   UNL     1       2.698  -6.110  23.266  0.00  0.00    -0.251 OA
BRANCH  24  26
ATOM     26  O   UNL     1       4.502  -7.343  23.828  0.00  0.00    -0.481 OA
ATOM     27  H   UNL     1       3.881  -7.950  24.272  0.00  0.00    +0.295 HD
ENDBRANCH  24  26
ENDBRANCH  23  24
ENDBRANCH  22  23
ENDBRANCH  21  22
ENDBRANCH  20  21
ENDBRANCH  18  19
ENDBRANCH   3  18
TORSDOF 14
ENDMDL
MODEL 8
REMARK VINA RESULT:      -5.1      2.868      5.887
REMARK  Name = 
REMARK  15 active torsions:
REMARK  status: ('A' for Active; 'I' for Inactive)
REMARK    1  A    between atoms: C_2  and  O_3
REMARK    2  A    between atoms: C_7  and  C_9
REMARK    3  A    between atoms: C_9  and  C_10
REMARK    4  A    between atoms: C_11  and  C_12
REMARK    5  A    between atoms: C_12  and  C_13
REMARK    6  A    between atoms: C_13  and  C_14
REMARK    7  A    between atoms: C_14  and  C_15
REMARK    8  A    between atoms: C_15  and  O_16
REMARK    9  A    between atoms: C_18  and  C_20
REMARK   10  A    between atoms: C_21  and  C_22
REMARK   11  A    between atoms: C_22  and  C_24
REMARK   12  A    between atoms: C_24  and  C_25
REMARK   13  A    between atoms: C_25  and  C_26
REMARK   14  A    between atoms: C_26  and  C_27
REMARK   15  A    between atoms: C_27  and  C_28
REMARK                            x       y       z     vdW  Elec       q    Type
REMARK                         _______ _______ _______ _____ _____    ______ ____
ROOT
ATOM      1  C   UNL     1       9.347  -0.576  21.792  0.00  0.00    +0.129 C 
ATOM      2  C   UNL     1       8.437  -0.856  23.012  0.00  0.00    +0.051 C 
ATOM      3  C   UNL     1       9.107  -0.157  24.218  0.00  0.00    +0.068 C 
ATOM      4  C   UNL     1      10.200   0.657  23.569  0.00  0.00    +0.140 C 
ATOM      5  O   UNL     1      11.054   1.275  24.194  0.00  0.00    -0.297 OA
ATOM      6  C   UNL     1      10.040   0.745  22.082  0.00  0.00    +0.106 C 
ENDROOT
BRANCH   2   7
ATOM      7  C   UNL     1       8.224  -2.331  23.267  0.00  0.00    -0.017 C 
ATOM      8  C   UNL     1       8.528  -2.971  24.406  0.00  0.00    +0.042 C 
BRANCH   8   9
ATOM      9  C   UNL     1       8.232  -4.427  24.548  0.00  0.00    +0.156 C 
ATOM     10  O   UNL     1       9.067  -5.278  24.252  0.00  0.00    -0.293 OA
BRANCH   9  11
ATOM     11  C   UNL     1       6.831  -4.784  25.008  0.00  0.00    +0.079 C 
BRANCH  11  12
ATOM     12  C   UNL     1       6.086  -5.607  23.959  0.00  0.00    +0.008 C 
BRANCH  12  13
ATOM     13  C   UNL     1       5.299  -4.711  23.002  0.00  0.00    +0.000 C 
BRANCH  13  14
ATOM     14  C   UNL     1       6.010  -4.594  21.654  0.00  0.00    -0.003 C 
ATOM     15  C   UNL     1       6.820  -5.840  21.338  0.00  0.00    +0.004 C 
ENDBRANCH  13  14
ENDBRANCH  12  13
ENDBRANCH  11  12
ENDBRANCH   9  11
ENDBRANCH   8   9
ENDBRANCH   2   7
BRANCH   1  16
ATOM     16  O   UNL     1      10.339  -1.583  21.622  0.00  0.00    -0.391 OA
ATOM     17  H   UNL     1      10.352  -2.133  22.426  0.00  0.00    +0.210 HD
ENDBRANCH   1  16
BRANCH   3  18
ATOM     18  C   UNL     1       8.173   0.821  24.942  0.00  0.00    +0.038 C 
BRANCH  18  19
ATOM     19  C   UNL     1       7.587   1.854  24.027  0.00  0.00    -0.030 C 
ATOM     20  C   UNL     1       6.330   1.794  23.565  0.00  0.00    -0.031 C 
BRANCH  20  21
ATOM     21  C   UNL     1       5.737   2.816  22.639  0.00  0.00    +0.027 C 
BRANCH  21  22
ATOM     22  C   UNL     1       6.764   3.855  22.183  0.00  0.00    +0.015 C 
BRANCH  22  23
ATOM     23  C   UNL     1       6.433   5.267  22.669  0.00  0.00    +0.121 C 
BRANCH  23  24
ATOM     24  C   UNL     1       7.425   6.289  22.161  0.00  0.00    +0.305 C 
ATOM     25  O   UNL     1       8.531   6.499  22.633  0.00  0.00    -0.251 OA
BRANCH  24  26
ATOM     26  O   UNL     1       6.949   6.972  21.097  0.00  0.00    -0.481 OA
ATOM     27  H   UNL     1       7.308   6.666  20.243  0.00  0.00    +0.295 HD
ENDBRANCH  24  26
ENDBRANCH  23  24
ENDBRANCH  22  23
ENDBRANCH  21  22
ENDBRANCH  20  21
ENDBRANCH  18  19
ENDBRANCH   3  18
TORSDOF 14
ENDMDL
MODEL 9
REMARK VINA RESULT:      -5.1      2.117      6.007
REMARK  Name = 
REMARK  15 active torsions:
REMARK  status: ('A' for Active; 'I' for Inactive)
REMARK    1  A    between atoms: C_2  and  O_3
REMARK    2  A    between atoms: C_7  and  C_9
REMARK    3  A    between atoms: C_9  and  C_10
REMARK    4  A    between atoms: C_11  and  C_12
REMARK    5  A    between atoms: C_12  and  C_13
REMARK    6  A    between atoms: C_13  and  C_14
REMARK    7  A    between atoms: C_14  and  C_15
REMARK    8  A    between atoms: C_15  and  O_16
REMARK    9  A    between atoms: C_18  and  C_20
REMARK   10  A    between atoms: C_21  and  C_22
REMARK   11  A    between atoms: C_22  and  C_24
REMARK   12  A    between atoms: C_24  and  C_25
REMARK   13  A    between atoms: C_25  and  C_26
REMARK   14  A    between atoms: C_26  and  C_27
REMARK   15  A    between atoms: C_27  and  C_28
REMARK                            x       y       z     vdW  Elec       q    Type
REMARK                         _______ _______ _______ _____ _____    ______ ____
ROOT
ATOM      1  C   UNL     1       6.076  -4.852  22.507  0.00  0.00    +0.129 C 
ATOM      2  C   UNL     1       5.755  -3.677  23.463  0.00  0.00    +0.051 C 
ATOM      3  C   UNL     1       4.230  -3.733  23.716  0.00  0.00    +0.068 C 
ATOM      4  C   UNL     1       3.836  -5.051  23.094  0.00  0.00    +0.140 C 
ATOM      5  O   UNL     1       2.676  -5.428  22.970  0.00  0.00    -0.297 OA
ATOM      6  C   UNL     1       5.021  -5.911  22.778  0.00  0.00    +0.106 C 
ENDROOT
BRANCH   2   7
ATOM      7  C   UNL     1       6.183  -2.334  22.917  0.00  0.00    -0.017 C 
ATOM      8  C   UNL     1       7.156  -1.565  23.428  0.00  0.00    +0.042 C 
BRANCH   8   9
ATOM      9  C   UNL     1       7.510  -0.273  22.771  0.00  0.00    +0.156 C 
ATOM     10  O   UNL     1       6.910   0.765  23.041  0.00  0.00    -0.293 OA
BRANCH   9  11
ATOM     11  C   UNL     1       8.597  -0.334  21.714  0.00  0.00    +0.079 C 
BRANCH  11  12
ATOM     12  C   UNL     1       9.982  -0.103  22.316  0.00  0.00    +0.008 C 
BRANCH  12  13
ATOM     13  C   UNL     1      10.251   1.384  22.544  0.00  0.00    +0.000 C 
BRANCH  13  14
ATOM     14  C   UNL     1      10.383   1.694  24.035  0.00  0.00    -0.003 C 
ATOM     15  C   UNL     1      10.758   0.457  24.832  0.00  0.00    +0.004 C 
ENDBRANCH  13  14
ENDBRANCH  12  13
ENDBRANCH  11  12
ENDBRANCH   9  11
ENDBRANCH   8   9
ENDBRANCH   2   7
BRANCH   1  16
ATOM     16  O   UNL     1       5.995  -4.465  21.139  0.00  0.00    -0.391 OA
ATOM     17  H   UNL     1       6.096  -3.498  21.091  0.00  0.00    +0.210 HD
ENDBRANCH   1  16
BRANCH   3  18
ATOM     18  C   UNL     1       3.870  -3.801  25.206  0.00  0.00    +0.038 C 
BRANCH  18  19
ATOM     19  C   UNL     1       5.075  -3.855  26.096  0.00  0.00    -0.030 C 
ATOM     20  C   UNL     1       5.568  -4.998  26.594  0.00  0.00    -0.031 C 
BRANCH  20  21
ATOM     21  C   UNL     1       6.766  -5.062  27.494  0.00  0.00    +0.027 C 
BRANCH  21  22
ATOM     22  C   UNL     1       8.066  -5.294  26.721  0.00  0.00    +0.015 C 
BRANCH  22  23
ATOM     23  C   UNL     1       8.634  -4.007  26.118  0.00  0.00    +0.121 C 
BRANCH  23  24
ATOM     24  C   UNL     1       9.556  -4.285  24.953  0.00  0.00    +0.305 C 
ATOM     25  O   UNL     1       9.979  -3.450  24.169  0.00  0.00    -0.251 OA
BRANCH  24  26
ATOM     26  O   UNL     1       9.876  -5.595  24.861  0.00  0.00    -0.481 OA
ATOM     27  H   UNL     1      10.489  -5.898  25.556  0.00  0.00    +0.295 HD
ENDBRANCH  24  26
ENDBRANCH  23  24
ENDBRANCH  22  23
ENDBRANCH  21  22
ENDBRANCH  20  21
ENDBRANCH  18  19
ENDBRANCH   3  18
TORSDOF 14
ENDMDL
