MODEL 1
REMARK VINA RESULT:      -7.2      0.000      0.000
REMARK  Name = 
REMARK  11 active torsions:
REMARK  status: ('A' for Active; 'I' for Inactive)
REMARK    1  A    between atoms: C_2  and  N_3
REMARK    2  A    between atoms: C_2  and  C_4
REMARK    3  A    between atoms: C_2  and  C_10
REMARK    4  A    between atoms: C_16  and  C_18
REMARK    5  A    between atoms: N_20  and  C_21
REMARK    6  A    between atoms: C_21  and  C_22
REMARK    7  A    between atoms: C_23  and  O_24
REMARK    8  A    between atoms: O_24  and  C_25
REMARK    9  A    between atoms: C_25  and  C_26
REMARK   10  A    between atoms: N_28  and  C_29
REMARK   11  A    between atoms: C_29  and  C_30
REMARK                            x       y       z     vdW  Elec       q    Type
REMARK                         _______ _______ _______ _____ _____    ______ ____
ROOT
ATOM      1  C   UNL     1       9.055   1.652  22.168  0.00  0.00    +0.234 C 
ATOM      2  N   UNL     1       8.329   2.731  21.729  0.00  0.00    -0.310 N 
ATOM      3  H   UNL     1       8.727   3.112  20.882  0.00  0.00    +0.149 HD
ATOM      4  O   UNL     1      10.065   1.324  21.522  0.00  0.00    -0.274 OA
ENDROOT
BRANCH   1   7
ATOM      5  C   UNL     1       7.568  -1.302  23.343  0.00  0.00    +0.233 C 
ATOM      6  N   UNL     1       8.712  -0.546  23.471  0.00  0.00    -0.289 N 
ATOM      7  C   UNL     1       8.628   0.900  23.473  0.00  0.00    +0.162 C 
ATOM      8  C   UNL     1       9.606   1.235  24.555  0.00  0.00    +0.033 C 
ATOM      9  C   UNL     1      10.180   0.006  25.185  0.00  0.00    +0.021 C 
ATOM     10  C   UNL     1       9.962  -0.981  24.095  0.00  0.00    +0.108 C 
ATOM     11  O   UNL     1       6.452  -0.817  23.151  0.00  0.00    -0.274 OA
BRANCH   5  12
ATOM     12  C   UNL     1       7.751  -2.832  23.486  0.00  0.00    +0.141 C 
BRANCH  12  13
ATOM     13  C   UNL     1       6.842  -3.362  24.639  0.00  0.00    +0.015 C 
ATOM     14  C   UNL     1       7.165  -2.667  25.976  0.00  0.00    +0.005 C 
ATOM     15  C   UNL     1       8.481  -3.155  26.559  0.00  0.00    +0.000 C 
ATOM     16  C   UNL     1       8.480  -4.676  26.687  0.00  0.00    +0.000 C 
ATOM     17  C   UNL     1       8.159  -5.378  25.368  0.00  0.00    +0.000 C 
ATOM     18  C   UNL     1       6.849  -4.880  24.787  0.00  0.00    +0.005 C 
ENDBRANCH  12  13
BRANCH  12  19
ATOM     19  N   UNL     1       7.517  -3.454  22.160  0.00  0.00    -0.320 NA
ATOM     20  H   UNL     1       7.510  -2.714  21.456  0.00  0.00    +0.119 HD
ATOM     21  H   UNL     1       8.294  -4.068  21.920  0.00  0.00    +0.119 HD
ENDBRANCH  12  19
ENDBRANCH   5  12
ENDBRANCH   1   7
BRANCH   2  22
ATOM     22  C   UNL     1       7.014   3.276  22.123  0.00  0.00    +0.143 C 
BRANCH  22  23
ATOM     23  C   UNL     1       6.879   3.719  23.579  0.00  0.00    +0.013 A 
ATOM     24  C   UNL     1       5.915   3.089  24.401  0.00  0.00    +0.028 A 
ATOM     25  C   UNL     1       6.095   3.064  25.795  0.00  0.00    +0.042 A 
ATOM     26 CL   UNL     1       5.217   1.916  26.740  0.00  0.00    -0.084 Cl
ATOM     27  C   UNL     1       7.151   3.756  26.384  0.00  0.00    +0.023 A 
ATOM     28  C   UNL     1       7.991   4.538  25.588  0.00  0.00    +0.047 A 
ATOM     29  C   UNL     1       7.839   4.548  24.191  0.00  0.00    +0.126 A 
BRANCH  29  30
ATOM     30  O   UNL     1       8.730   5.166  23.360  0.00  0.00    -0.482 OA
BRANCH  30  31
ATOM     31  C   UNL     1       9.281   6.380  23.868  0.00  0.00    +0.324 C 
BRANCH  31  32
ATOM     32  C   UNL     1      10.777   6.186  24.077  0.00  0.00    +0.251 C 
ATOM     33  N   UNL     1      11.383   5.355  23.157  0.00  0.00    -0.313 N 
ATOM     34  H   UNL     1      10.828   5.050  22.364  0.00  0.00    +0.149 HD
ATOM     35  O   UNL     1      11.372   6.705  25.019  0.00  0.00    -0.272 OA
BRANCH  33  36
ATOM     36  C   UNL     1      12.810   5.121  23.165  0.00  0.00    +0.101 C 
ATOM     37  C   UNL     1      13.485   5.717  21.943  0.00  0.00    +0.024 C 
ENDBRANCH  33  36
ENDBRANCH  31  32
ENDBRANCH  30  31
ENDBRANCH  29  30
ENDBRANCH  22  23
ENDBRANCH   2  22
TORSDOF 10
ENDMDL
MODEL 2
REMARK VINA RESULT:      -6.9      2.783      4.727
REMARK  Name = 
REMARK  11 active torsions:
REMARK  status: ('A' for Active; 'I' for Inactive)
REMARK    1  A    between atoms: C_2  and  N_3
REMARK    2  A    between atoms: C_2  and  C_4
REMARK    3  A    between atoms: C_2  and  C_10
REMARK    4  A    between atoms: C_16  and  C_18
REMARK    5  A    between atoms: N_20  and  C_21
REMARK    6  A    between atoms: C_21  and  C_22
REMARK    7  A    between atoms: C_23  and  O_24
REMARK    8  A    between atoms: O_24  and  C_25
REMARK    9  A    between atoms: C_25  and  C_26
REMARK   10  A    between atoms: N_28  and  C_29
REMARK   11  A    between atoms: C_29  and  C_30
REMARK                            x       y       z     vdW  Elec       q    Type
REMARK                         _______ _______ _______ _____ _____    ______ ____
ROOT
ATOM      1  C   UNL     1       9.752  -1.186  22.478  0.00  0.00    +0.234 C 
ATOM      2  N   UNL     1       9.815   0.076  21.943  0.00  0.00    -0.310 N 
ATOM      3  H   UNL     1      10.615   0.169  21.334  0.00  0.00    +0.149 HD
ATOM      4  O   UNL     1      10.652  -1.992  22.185  0.00  0.00    -0.274 OA
ENDROOT
BRANCH   1   7
ATOM      5  C   UNL     1       6.748  -2.985  22.716  0.00  0.00    +0.233 C 
ATOM      6  N   UNL     1       7.984  -2.867  23.312  0.00  0.00    -0.289 N 
ATOM      7  C   UNL     1       8.594  -1.562  23.463  0.00  0.00    +0.162 C 
ATOM      8  C   UNL     1       9.163  -1.679  24.842  0.00  0.00    +0.033 C 
ATOM      9  C   UNL     1       8.829  -2.993  25.472  0.00  0.00    +0.021 C 
ATOM     10  C   UNL     1       8.573  -3.814  24.259  0.00  0.00    +0.108 C 
ATOM     11  O   UNL     1       6.140  -2.033  22.223  0.00  0.00    -0.274 OA
BRANCH   5  12
ATOM     12  C   UNL     1       6.126  -4.402  22.724  0.00  0.00    +0.141 C 
BRANCH  12  13
ATOM     13  C   UNL     1       4.783  -4.380  23.516  0.00  0.00    +0.015 C 
ATOM     14  C   UNL     1       5.014  -4.092  25.012  0.00  0.00    +0.005 C 
ATOM     15  C   UNL     1       5.614  -5.289  25.729  0.00  0.00    +0.000 C 
ATOM     16  C   UNL     1       4.756  -6.531  25.509  0.00  0.00    +0.000 C 
ATOM     17  C   UNL     1       4.517  -6.829  24.029  0.00  0.00    +0.000 C 
ATOM     18  C   UNL     1       3.926  -5.626  23.318  0.00  0.00    +0.005 C 
ENDBRANCH  12  13
BRANCH  12  19
ATOM     19  N   UNL     1       6.026  -4.872  21.320  0.00  0.00    -0.320 NA
ATOM     20  H   UNL     1       6.618  -4.276  20.740  0.00  0.00    +0.119 HD
ATOM     21  H   UNL     1       6.405  -5.815  21.239  0.00  0.00    +0.119 HD
ENDBRANCH  12  19
ENDBRANCH   5  12
ENDBRANCH   1   7
BRANCH   2  22
ATOM     22  C   UNL     1       8.856   1.200  21.922  0.00  0.00    +0.143 C 
BRANCH  22  23
ATOM     23  C   UNL     1       9.141   2.345  22.892  0.00  0.00    +0.013 A 
ATOM     24  C   UNL     1      10.482   2.731  23.125  0.00  0.00    +0.028 A 
ATOM     25  C   UNL     1      10.769   4.039  23.551  0.00  0.00    +0.042 A 
ATOM     26 CL   UNL     1      12.373   4.654  23.371  0.00  0.00    -0.084 Cl
ATOM     27  C   UNL     1       9.738   4.923  23.862  0.00  0.00    +0.023 A 
ATOM     28  C   UNL     1       8.414   4.480  23.819  0.00  0.00    +0.047 A 
ATOM     29  C   UNL     1       8.114   3.184  23.367  0.00  0.00    +0.126 A 
BRANCH  29  30
ATOM     30  O   UNL     1       6.832   2.759  23.154  0.00  0.00    -0.482 OA
BRANCH  30  31
ATOM     31  C   UNL     1       5.899   3.146  24.161  0.00  0.00    +0.324 C 
BRANCH  31  32
ATOM     32  C   UNL     1       5.224   1.893  24.705  0.00  0.00    +0.251 C 
ATOM     33  N   UNL     1       6.036   0.779  24.758  0.00  0.00    -0.313 N 
ATOM     34  H   UNL     1       7.022   0.909  24.557  0.00  0.00    +0.149 HD
ATOM     35  O   UNL     1       4.038   1.885  25.029  0.00  0.00    -0.272 OA
BRANCH  33  36
ATOM     36  C   UNL     1       5.577  -0.473  25.316  0.00  0.00    +0.101 C 
ATOM     37  C   UNL     1       5.990  -0.627  26.769  0.00  0.00    +0.024 C 
ENDBRANCH  33  36
ENDBRANCH  31  32
ENDBRANCH  30  31
ENDBRANCH  29  30
ENDBRANCH  22  23
ENDBRANCH   2  22
TORSDOF 10
ENDMDL
MODEL 3
REMARK VINA RESULT:      -6.8      3.850      6.872
REMARK  Name = 
REMARK  11 active torsions:
REMARK  status: ('A' for Active; 'I' for Inactive)
REMARK    1  A    between atoms: C_2  and  N_3
REMARK    2  A    between atoms: C_2  and  C_4
REMARK    3  A    between atoms: C_2  and  C_10
REMARK    4  A    between atoms: C_16  and  C_18
REMARK    5  A    between atoms: N_20  and  C_21
REMARK    6  A    between atoms: C_21  and  C_22
REMARK    7  A    between atoms: C_23  and  O_24
REMARK    8  A    between atoms: O_24  and  C_25
REMARK    9  A    between atoms: C_25  and  C_26
REMARK   10  A    between atoms: N_28  and  C_29
REMARK   11  A    between atoms: C_29  and  C_30
REMARK                            x       y       z     vdW  Elec       q    Type
REMARK                         _______ _______ _______ _____ _____    ______ ____
ROOT
ATOM      1  C   UNL     1       9.273  -3.443  25.063  0.00  0.00    +0.234 C 
ATOM      2  N   UNL     1       9.715  -2.198  24.689  0.00  0.00    -0.310 N 
ATOM      3  H   UNL     1      10.278  -2.253  23.852  0.00  0.00    +0.149 HD
ATOM      4  O   UNL     1       9.628  -4.420  24.382  0.00  0.00    -0.274 OA
ENDROOT
BRANCH   1   7
ATOM      5  C   UNL     1       6.354  -2.267  26.618  0.00  0.00    +0.233 C 
ATOM      6  N   UNL     1       6.954  -3.431  26.191  0.00  0.00    -0.289 N 
ATOM      7  C   UNL     1       8.384  -3.606  26.342  0.00  0.00    +0.162 C 
ATOM      8  C   UNL     1       8.445  -5.035  26.783  0.00  0.00    +0.033 C 
ATOM      9  C   UNL     1       7.081  -5.628  26.933  0.00  0.00    +0.021 C 
ATOM     10  C   UNL     1       6.298  -4.730  26.044  0.00  0.00    +0.108 C 
ATOM     11  O   UNL     1       6.981  -1.306  27.067  0.00  0.00    -0.274 OA
BRANCH   5  12
ATOM     12  C   UNL     1       4.809  -2.234  26.534  0.00  0.00    +0.141 C 
BRANCH  12  13
ATOM     13  C   UNL     1       4.211  -2.068  27.965  0.00  0.00    +0.015 C 
ATOM     14  C   UNL     1       4.311  -3.376  28.774  0.00  0.00    +0.005 C 
ATOM     15  C   UNL     1       3.312  -4.413  28.291  0.00  0.00    +0.000 C 
ATOM     16  C   UNL     1       1.898  -3.840  28.299  0.00  0.00    +0.000 C 
ATOM     17  C   UNL     1       1.783  -2.541  27.502  0.00  0.00    +0.000 C 
ATOM     18  C   UNL     1       2.790  -1.513  27.983  0.00  0.00    +0.005 C 
ENDBRANCH  12  13
BRANCH  12  19
ATOM     19  N   UNL     1       4.419  -1.186  25.560  0.00  0.00    -0.320 NA
ATOM     20  H   UNL     1       5.064  -0.400  25.660  0.00  0.00    +0.119 HD
ATOM     21  H   UNL     1       4.537  -1.531  24.608  0.00  0.00    +0.119 HD
ENDBRANCH  12  19
ENDBRANCH   5  12
ENDBRANCH   1   7
BRANCH   2  22
ATOM     22  C   UNL     1       9.357  -0.837  25.135  0.00  0.00    +0.143 C 
BRANCH  22  23
ATOM     23  C   UNL     1       9.243   0.222  24.040  0.00  0.00    +0.013 A 
ATOM     24  C   UNL     1       9.836   1.490  24.246  0.00  0.00    +0.028 A 
ATOM     25  C   UNL     1      10.217   2.271  23.141  0.00  0.00    +0.042 A 
ATOM     26 CL   UNL     1      11.349   3.556  23.364  0.00  0.00    -0.084 Cl
ATOM     27  C   UNL     1       9.907   1.862  21.846  0.00  0.00    +0.023 A 
ATOM     28  C   UNL     1       9.149   0.705  21.652  0.00  0.00    +0.047 A 
ATOM     29  C   UNL     1       8.788  -0.099  22.747  0.00  0.00    +0.126 A 
BRANCH  29  30
ATOM     30  O   UNL     1       8.189  -1.319  22.596  0.00  0.00    -0.482 OA
BRANCH  30  31
ATOM     31  C   UNL     1       6.774  -1.316  22.772  0.00  0.00    +0.324 C 
BRANCH  31  32
ATOM     32  C   UNL     1       6.282  -2.758  22.779  0.00  0.00    +0.251 C 
ATOM     33  N   UNL     1       7.194  -3.679  22.305  0.00  0.00    -0.313 N 
ATOM     34  H   UNL     1       8.135  -3.351  22.115  0.00  0.00    +0.149 HD
ATOM     35  O   UNL     1       5.147  -3.054  23.145  0.00  0.00    -0.272 OA
BRANCH  33  36
ATOM     36  C   UNL     1       6.917  -5.098  22.311  0.00  0.00    +0.101 C 
ATOM     37  C   UNL     1       6.293  -5.555  21.005  0.00  0.00    +0.024 C 
ENDBRANCH  33  36
ENDBRANCH  31  32
ENDBRANCH  30  31
ENDBRANCH  29  30
ENDBRANCH  22  23
ENDBRANCH   2  22
TORSDOF 10
ENDMDL
MODEL 4
REMARK VINA RESULT:      -6.8      4.274      9.161
REMARK  Name = 
REMARK  11 active torsions:
REMARK  status: ('A' for Active; 'I' for Inactive)
REMARK    1  A    between atoms: C_2  and  N_3
REMARK    2  A    between atoms: C_2  and  C_4
REMARK    3  A    between atoms: C_2  and  C_10
REMARK    4  A    between atoms: C_16  and  C_18
REMARK    5  A    between atoms: N_20  and  C_21
REMARK    6  A    between atoms: C_21  and  C_22
REMARK    7  A    between atoms: C_23  and  O_24
REMARK    8  A    between atoms: O_24  and  C_25
REMARK    9  A    between atoms: C_25  and  C_26
REMARK   10  A    between atoms: N_28  and  C_29
REMARK   11  A    between atoms: C_29  and  C_30
REMARK                            x       y       z     vdW  Elec       q    Type
REMARK                         _______ _______ _______ _____ _____    ______ ____
ROOT
ATOM      1  C   UNL     1       6.463  -5.044  22.336  0.00  0.00    +0.234 C 
ATOM      2  N   UNL     1       5.729  -6.169  22.618  0.00  0.00    -0.310 N 
ATOM      3  H   UNL     1       5.572  -6.715  21.782  0.00  0.00    +0.149 HD
ATOM      4  O   UNL     1       6.793  -4.840  21.154  0.00  0.00    -0.274 OA
ENDROOT
BRANCH   1   7
ATOM      5  C   UNL     1       8.860  -2.687  23.344  0.00  0.00    +0.233 C 
ATOM      6  N   UNL     1       7.509  -2.817  23.108  0.00  0.00    -0.289 N 
ATOM      7  C   UNL     1       6.824  -4.037  23.480  0.00  0.00    +0.162 C 
ATOM      8  C   UNL     1       5.552  -3.482  24.041  0.00  0.00    +0.033 C 
ATOM      9  C   UNL     1       5.550  -1.987  24.039  0.00  0.00    +0.021 C 
ATOM     10  C   UNL     1       6.552  -1.719  22.974  0.00  0.00    +0.108 C 
ATOM     11  O   UNL     1       9.559  -3.593  23.799  0.00  0.00    -0.274 OA
BRANCH   5  12
ATOM     12  C   UNL     1       9.469  -1.299  23.033  0.00  0.00    +0.141 C 
BRANCH  12  13
ATOM     13  C   UNL     1      10.077  -0.690  24.334  0.00  0.00    +0.015 C 
ATOM     14  C   UNL     1       8.985  -0.384  25.378  0.00  0.00    +0.005 C 
ATOM     15  C   UNL     1       8.162   0.833  24.989  0.00  0.00    +0.000 C 
ATOM     16  C   UNL     1       9.068   2.034  24.736  0.00  0.00    +0.000 C 
ATOM     17  C   UNL     1      10.157   1.745  23.704  0.00  0.00    +0.000 C 
ATOM     18  C   UNL     1      10.969   0.524  24.093  0.00  0.00    +0.005 C 
ENDBRANCH  12  13
BRANCH  12  19
ATOM     19  N   UNL     1      10.416  -1.451  21.902  0.00  0.00    -0.320 NA
ATOM     20  H   UNL     1      10.713  -0.519  21.606  0.00  0.00    +0.119 HD
ATOM     21  H   UNL     1      11.258  -1.932  22.213  0.00  0.00    +0.119 HD
ENDBRANCH  12  19
ENDBRANCH   5  12
ENDBRANCH   1   7
BRANCH   2  22
ATOM     22  C   UNL     1       5.332  -6.809  23.888  0.00  0.00    +0.143 C 
BRANCH  22  23
ATOM     23  C   UNL     1       3.903  -6.541  24.358  0.00  0.00    +0.013 A 
ATOM     24  C   UNL     1       2.926  -6.164  23.407  0.00  0.00    +0.028 A 
ATOM     25  C   UNL     1       1.568  -6.417  23.663  0.00  0.00    +0.042 A 
ATOM     26 CL   UNL     1       0.445  -6.414  22.350  0.00  0.00    -0.084 Cl
ATOM     27  C   UNL     1       1.163  -6.927  24.895  0.00  0.00    +0.023 A 
ATOM     28  C   UNL     1       2.108  -7.117  25.905  0.00  0.00    +0.047 A 
ATOM     29  C   UNL     1       3.473  -6.895  25.652  0.00  0.00    +0.126 A 
BRANCH  29  30
ATOM     30  O   UNL     1       4.449  -7.219  26.553  0.00  0.00    -0.482 OA
BRANCH  30  31
ATOM     31  C   UNL     1       4.486  -6.397  27.717  0.00  0.00    +0.324 C 
BRANCH  31  32
ATOM     32  C   UNL     1       5.924  -5.954  27.956  0.00  0.00    +0.251 C 
ATOM     33  N   UNL     1       6.653  -5.725  26.807  0.00  0.00    -0.313 N 
ATOM     34  H   UNL     1       6.154  -5.745  25.924  0.00  0.00    +0.149 HD
ATOM     35  O   UNL     1       6.391  -5.853  29.088  0.00  0.00    -0.272 OA
BRANCH  33  36
ATOM     36  C   UNL     1       8.010  -5.230  26.851  0.00  0.00    +0.101 C 
ATOM     37  C   UNL     1       8.058  -3.713  26.809  0.00  0.00    +0.024 C 
ENDBRANCH  33  36
ENDBRANCH  31  32
ENDBRANCH  30  31
ENDBRANCH  29  30
ENDBRANCH  22  23
ENDBRANCH   2  22
TORSDOF 10
ENDMDL
MODEL 5
REMARK VINA RESULT:      -6.7      2.331      4.089
REMARK  Name = 
REMARK  11 active torsions:
REMARK  status: ('A' for Active; 'I' for Inactive)
REMARK    1  A    between atoms: C_2  and  N_3
REMARK    2  A    between atoms: C_2  and  C_4
REMARK    3  A    between atoms: C_2  and  C_10
REMARK    4  A    between atoms: C_16  and  C_18
REMARK    5  A    between atoms: N_20  and  C_21
REMARK    6  A    between atoms: C_21  and  C_22
REMARK    7  A    between atoms: C_23  and  O_24
REMARK    8  A    between atoms: O_24  and  C_25
REMARK    9  A    between atoms: C_25  and  C_26
REMARK   10  A    between atoms: N_28  and  C_29
REMARK   11  A    between atoms: C_29  and  C_30
REMARK                            x       y       z     vdW  Elec       q    Type
REMARK                         _______ _______ _______ _____ _____    ______ ____
ROOT
ATOM      1  C   UNL     1       9.471  -2.214  24.383  0.00  0.00    +0.234 C 
ATOM      2  N   UNL     1       9.382  -0.853  24.534  0.00  0.00    -0.310 N 
ATOM      3  H   UNL     1      10.090  -0.383  23.988  0.00  0.00    +0.149 HD
ATOM      4  O   UNL     1      10.377  -2.665  23.662  0.00  0.00    -0.274 OA
ENDROOT
BRANCH   1   7
ATOM      5  C   UNL     1       6.188  -3.455  24.326  0.00  0.00    +0.233 C 
ATOM      6  N   UNL     1       7.499  -3.876  24.355  0.00  0.00    -0.289 N 
ATOM      7  C   UNL     1       8.475  -3.152  25.144  0.00  0.00    +0.162 C 
ATOM      8  C   UNL     1       9.251  -4.287  25.736  0.00  0.00    +0.033 C 
ATOM      9  C   UNL     1       8.688  -5.613  25.337  0.00  0.00    +0.021 C 
ATOM     10  C   UNL     1       7.970  -5.235  24.090  0.00  0.00    +0.108 C 
ATOM     11  O   UNL     1       5.792  -2.432  24.886  0.00  0.00    -0.274 OA
BRANCH   5  12
ATOM     12  C   UNL     1       5.202  -4.371  23.562  0.00  0.00    +0.141 C 
BRANCH  12  13
ATOM     13  C   UNL     1       3.908  -4.570  24.410  0.00  0.00    +0.015 C 
ATOM     14  C   UNL     1       4.165  -5.484  25.625  0.00  0.00    +0.005 C 
ATOM     15  C   UNL     1       4.322  -6.937  25.211  0.00  0.00    +0.000 C 
ATOM     16  C   UNL     1       3.119  -7.395  24.392  0.00  0.00    +0.000 C 
ATOM     17  C   UNL     1       2.852  -6.497  23.184  0.00  0.00    +0.000 C 
ATOM     18  C   UNL     1       2.705  -5.046  23.604  0.00  0.00    +0.005 C 
ENDBRANCH  12  13
BRANCH  12  19
ATOM     19  N   UNL     1       4.991  -3.799  22.210  0.00  0.00    -0.320 NA
ATOM     20  H   UNL     1       4.234  -4.316  21.759  0.00  0.00    +0.119 HD
ATOM     21  H   UNL     1       4.672  -2.835  22.283  0.00  0.00    +0.119 HD
ENDBRANCH  12  19
ENDBRANCH   5  12
ENDBRANCH   1   7
BRANCH   2  22
ATOM     22  C   UNL     1       8.357   0.019  25.144  0.00  0.00    +0.143 C 
BRANCH  22  23
ATOM     23  C   UNL     1       7.373   0.677  24.179  0.00  0.00    +0.013 A 
ATOM     24  C   UNL     1       6.091   1.046  24.650  0.00  0.00    +0.028 A 
ATOM     25  C   UNL     1       5.382   2.078  24.011  0.00  0.00    +0.042 A 
ATOM     26 CL   UNL     1       4.080   2.849  24.843  0.00  0.00    -0.084 Cl
ATOM     27  C   UNL     1       5.877   2.659  22.846  0.00  0.00    +0.023 A 
ATOM     28  C   UNL     1       7.048   2.160  22.271  0.00  0.00    +0.047 A 
ATOM     29  C   UNL     1       7.781   1.149  22.916  0.00  0.00    +0.126 A 
BRANCH  29  30
ATOM     30  O   UNL     1       9.010   0.741  22.479  0.00  0.00    -0.482 OA
BRANCH  30  31
ATOM     31  C   UNL     1       9.808   1.767  21.893  0.00  0.00    +0.324 C 
BRANCH  31  32
ATOM     32  C   UNL     1      10.631   2.431  22.990  0.00  0.00    +0.251 C 
ATOM     33  N   UNL     1      10.999   3.734  22.724  0.00  0.00    -0.313 N 
ATOM     34  H   UNL     1      10.599   4.175  21.903  0.00  0.00    +0.149 HD
ATOM     35  O   UNL     1      10.963   1.826  24.007  0.00  0.00    -0.272 OA
BRANCH  33  36
ATOM     36  C   UNL     1      11.719   4.535  23.689  0.00  0.00    +0.101 C 
ATOM     37  C   UNL     1      13.004   5.096  23.107  0.00  0.00    +0.024 C 
ENDBRANCH  33  36
ENDBRANCH  31  32
ENDBRANCH  30  31
ENDBRANCH  29  30
ENDBRANCH  22  23
ENDBRANCH   2  22
TORSDOF 10
ENDMDL
MODEL 6
REMARK VINA RESULT:      -6.7      4.007      8.655
REMARK  Name = 
REMARK  11 active torsions:
REMARK  status: ('A' for Active; 'I' for Inactive)
REMARK    1  A    between atoms: C_2  and  N_3
REMARK    2  A    between atoms: C_2  and  C_4
REMARK    3  A    between atoms: C_2  and  C_10
REMARK    4  A    between atoms: C_16  and  C_18
REMARK    5  A    between atoms: N_20  and  C_21
REMARK    6  A    between atoms: C_21  and  C_22
REMARK    7  A    between atoms: C_23  and  O_24
REMARK    8  A    between atoms: O_24  and  C_25
REMARK    9  A    between atoms: C_25  and  C_26
REMARK   10  A    between atoms: N_28  and  C_29
REMARK   11  A    between atoms: C_29  and  C_30
REMARK                            x       y       z     vdW  Elec       q    Type
REMARK                         _______ _______ _______ _____ _____    ______ ____
ROOT
ATOM      1  C   UNL     1       4.787  -2.394  25.877  0.00  0.00    +0.234 C 
ATOM      2  N   UNL     1       4.325  -3.658  26.149  0.00  0.00    -0.310 N 
ATOM      3  H   UNL     1       3.335  -3.643  26.348  0.00  0.00    +0.149 HD
ATOM      4  O   UNL     1       3.981  -1.450  25.938  0.00  0.00    -0.274 OA
ENDROOT
BRANCH   1   7
ATOM      5  C   UNL     1       6.958  -0.779  23.641  0.00  0.00    +0.233 C 
ATOM      6  N   UNL     1       6.681  -0.889  24.986  0.00  0.00    -0.289 N 
ATOM      7  C   UNL     1       6.301  -2.169  25.545  0.00  0.00    +0.162 C 
ATOM      8  C   UNL     1       7.070  -2.152  26.829  0.00  0.00    +0.033 C 
ATOM      9  C   UNL     1       7.907  -0.920  26.959  0.00  0.00    +0.021 C 
ATOM     10  C   UNL     1       7.181  -0.004  26.038  0.00  0.00    +0.108 C 
ATOM     11  O   UNL     1       6.830  -1.711  22.845  0.00  0.00    -0.274 OA
BRANCH   5  12
ATOM     12  C   UNL     1       7.482   0.598  23.169  0.00  0.00    +0.141 C 
BRANCH  12  13
ATOM     13  C   UNL     1       8.845   0.415  22.432  0.00  0.00    +0.015 C 
ATOM     14  C   UNL     1       9.871  -0.320  23.317  0.00  0.00    +0.005 C 
ATOM     15  C   UNL     1      10.396   0.574  24.428  0.00  0.00    +0.000 C 
ATOM     16  C   UNL     1      10.959   1.871  23.852  0.00  0.00    +0.000 C 
ATOM     17  C   UNL     1       9.952   2.610  22.970  0.00  0.00    +0.000 C 
ATOM     18  C   UNL     1       9.424   1.709  21.870  0.00  0.00    +0.005 C 
ENDBRANCH  12  13
BRANCH  12  19
ATOM     19  N   UNL     1       6.415   1.253  22.373  0.00  0.00    -0.320 NA
ATOM     20  H   UNL     1       5.811   0.525  21.988  0.00  0.00    +0.119 HD
ATOM     21  H   UNL     1       5.825   1.821  22.979  0.00  0.00    +0.119 HD
ENDBRANCH  12  19
ENDBRANCH   5  12
ENDBRANCH   1   7
BRANCH   2  22
ATOM     22  C   UNL     1       4.931  -4.996  25.998  0.00  0.00    +0.143 C 
BRANCH  22  23
ATOM     23  C   UNL     1       4.220  -5.953  25.044  0.00  0.00    +0.013 A 
ATOM     24  C   UNL     1       3.555  -7.084  25.574  0.00  0.00    +0.028 A 
ATOM     25  C   UNL     1       2.493  -7.667  24.862  0.00  0.00    +0.042 A 
ATOM     26 CL   UNL     1       1.388  -8.703  25.691  0.00  0.00    -0.084 Cl
ATOM     27  C   UNL     1       2.166  -7.217  23.585  0.00  0.00    +0.023 A 
ATOM     28  C   UNL     1       2.949  -6.230  22.981  0.00  0.00    +0.047 A 
ATOM     29  C   UNL     1       3.995  -5.619  23.694  0.00  0.00    +0.126 A 
BRANCH  29  30
ATOM     30  O   UNL     1       4.683  -4.542  23.209  0.00  0.00    -0.482 OA
BRANCH  30  31
ATOM     31  C   UNL     1       5.526  -4.823  22.094  0.00  0.00    +0.324 C 
BRANCH  31  32
ATOM     32  C   UNL     1       6.868  -5.325  22.612  0.00  0.00    +0.251 C 
ATOM     33  N   UNL     1       7.399  -4.583  23.646  0.00  0.00    -0.313 N 
ATOM     34  H   UNL     1       6.813  -3.861  24.053  0.00  0.00    +0.149 HD
ATOM     35  O   UNL     1       7.436  -6.292  22.109  0.00  0.00    -0.272 OA
BRANCH  33  36
ATOM     36  C   UNL     1       8.629  -4.962  24.304  0.00  0.00    +0.101 C 
ATOM     37  C   UNL     1       9.515  -3.760  24.577  0.00  0.00    +0.024 C 
ENDBRANCH  33  36
ENDBRANCH  31  32
ENDBRANCH  30  31
ENDBRANCH  29  30
ENDBRANCH  22  23
ENDBRANCH   2  22
TORSDOF 10
ENDMDL
MODEL 7
REMARK VINA RESULT:      -6.7      3.003      8.154
REMARK  Name = 
REMARK  11 active torsions:
REMARK  status: ('A' for Active; 'I' for Inactive)
REMARK    1  A    between atoms: C_2  and  N_3
REMARK    2  A    between atoms: C_2  and  C_4
REMARK    3  A    between atoms: C_2  and  C_10
REMARK    4  A    between atoms: C_16  and  C_18
REMARK    5  A    between atoms: N_20  and  C_21
REMARK    6  A    between atoms: C_21  and  C_22
REMARK    7  A    between atoms: C_23  and  O_24
REMARK    8  A    between atoms: O_24  and  C_25
REMARK    9  A    between atoms: C_25  and  C_26
REMARK   10  A    between atoms: N_28  and  C_29
REMARK   11  A    between atoms: C_29  and  C_30
REMARK                            x       y       z     vdW  Elec       q    Type
REMARK                         _______ _______ _______ _____ _____    ______ ____
ROOT
ATOM      1  C   UNL     1       9.004  -0.862  23.452  0.00  0.00    +0.234 C 
ATOM      2  N   UNL     1       7.960  -1.748  23.547  0.00  0.00    -0.310 N 
ATOM      3  H   UNL     1       8.279  -2.644  23.886  0.00  0.00    +0.149 HD
ATOM      4  O   UNL     1      10.142  -1.264  23.748  0.00  0.00    -0.274 OA
ENDROOT
BRANCH   1   7
ATOM      5  C   UNL     1       7.816   2.290  24.437  0.00  0.00    +0.233 C 
ATOM      6  N   UNL     1       8.919   1.678  23.885  0.00  0.00    -0.289 N 
ATOM      7  C   UNL     1       8.749   0.596  22.938  0.00  0.00    +0.162 C 
ATOM      8  C   UNL     1       9.806   0.936  21.934  0.00  0.00    +0.033 C 
ATOM      9  C   UNL     1      10.509   2.209  22.277  0.00  0.00    +0.021 C 
ATOM     10  C   UNL     1      10.247   2.275  23.739  0.00  0.00    +0.108 C 
ATOM     11  O   UNL     1       6.660   1.919  24.228  0.00  0.00    -0.274 OA
BRANCH   5  12
ATOM     12  C   UNL     1       8.102   3.520  25.331  0.00  0.00    +0.141 C 
BRANCH  12  13
ATOM     13  C   UNL     1       7.391   4.776  24.739  0.00  0.00    +0.015 C 
ATOM     14  C   UNL     1       8.038   5.216  23.410  0.00  0.00    +0.005 C 
ATOM     15  C   UNL     1       9.389   5.875  23.635  0.00  0.00    +0.000 C 
ATOM     16  C   UNL     1       9.264   7.030  24.624  0.00  0.00    +0.000 C 
ATOM     17  C   UNL     1       8.622   6.609  25.945  0.00  0.00    +0.000 C 
ATOM     18  C   UNL     1       7.279   5.943  25.714  0.00  0.00    +0.005 C 
ENDBRANCH  12  13
BRANCH  12  19
ATOM     19  N   UNL     1       7.725   3.178  26.725  0.00  0.00    -0.320 NA
ATOM     20  H   UNL     1       7.704   2.161  26.810  0.00  0.00    +0.119 HD
ATOM     21  H   UNL     1       8.442   3.503  27.371  0.00  0.00    +0.119 HD
ENDBRANCH  12  19
ENDBRANCH   5  12
ENDBRANCH   1   7
BRANCH   2  22
ATOM     22  C   UNL     1       6.496  -1.577  23.458  0.00  0.00    +0.143 C 
BRANCH  22  23
ATOM     23  C   UNL     1       5.678  -2.858  23.301  0.00  0.00    +0.013 A 
ATOM     24  C   UNL     1       5.788  -3.602  22.103  0.00  0.00    +0.028 A 
ATOM     25  C   UNL     1       5.506  -4.978  22.106  0.00  0.00    +0.042 A 
ATOM     26 CL   UNL     1       6.091  -5.964  20.814  0.00  0.00    -0.084 Cl
ATOM     27  C   UNL     1       5.004  -5.594  23.250  0.00  0.00    +0.023 A 
ATOM     28  C   UNL     1       4.710  -4.821  24.376  0.00  0.00    +0.047 A 
ATOM     29  C   UNL     1       5.015  -3.449  24.394  0.00  0.00    +0.126 A 
BRANCH  29  30
ATOM     30  O   UNL     1       4.897  -2.686  25.522  0.00  0.00    -0.482 OA
BRANCH  30  31
ATOM     31  C   UNL     1       5.402  -3.291  26.710  0.00  0.00    +0.324 C 
BRANCH  31  32
ATOM     32  C   UNL     1       6.924  -3.221  26.682  0.00  0.00    +0.251 C 
ATOM     33  N   UNL     1       7.556  -4.447  26.704  0.00  0.00    -0.313 N 
ATOM     34  H   UNL     1       6.976  -5.274  26.611  0.00  0.00    +0.149 HD
ATOM     35  O   UNL     1       7.523  -2.148  26.680  0.00  0.00    -0.272 OA
BRANCH  33  36
ATOM     36  C   UNL     1       8.994  -4.565  26.609  0.00  0.00    +0.101 C 
ATOM     37  C   UNL     1       9.461  -4.609  25.165  0.00  0.00    +0.024 C 
ENDBRANCH  33  36
ENDBRANCH  31  32
ENDBRANCH  30  31
ENDBRANCH  29  30
ENDBRANCH  22  23
ENDBRANCH   2  22
TORSDOF 10
ENDMDL
MODEL 8
REMARK VINA RESULT:      -6.6      2.892      4.896
REMARK  Name = 
REMARK  11 active torsions:
REMARK  status: ('A' for Active; 'I' for Inactive)
REMARK    1  A    between atoms: C_2  and  N_3
REMARK    2  A    between atoms: C_2  and  C_4
REMARK    3  A    between atoms: C_2  and  C_10
REMARK    4  A    between atoms: C_16  and  C_18
REMARK    5  A    between atoms: N_20  and  C_21
REMARK    6  A    between atoms: C_21  and  C_22
REMARK    7  A    between atoms: C_23  and  O_24
REMARK    8  A    between atoms: O_24  and  C_25
REMARK    9  A    between atoms: C_25  and  C_26
REMARK   10  A    between atoms: N_28  and  C_29
REMARK   11  A    between atoms: C_29  and  C_30
REMARK                            x       y       z     vdW  Elec       q    Type
REMARK                         _______ _______ _______ _____ _____    ______ ____
ROOT
ATOM      1  C   UNL     1       9.893  -1.327  22.692  0.00  0.00    +0.234 C 
ATOM      2  N   UNL     1      10.181  -0.107  22.134  0.00  0.00    -0.310 N 
ATOM      3  H   UNL     1      11.093  -0.116  21.700  0.00  0.00    +0.149 HD
ATOM      4  O   UNL     1      10.753  -2.221  22.622  0.00  0.00    -0.274 OA
ENDROOT
BRANCH   1   7
ATOM      5  C   UNL     1       7.135  -3.488  22.903  0.00  0.00    +0.233 C 
ATOM      6  N   UNL     1       8.116  -2.913  23.680  0.00  0.00    -0.289 N 
ATOM      7  C   UNL     1       8.530  -1.547  23.431  0.00  0.00    +0.162 C 
ATOM      8  C   UNL     1       8.662  -1.036  24.832  0.00  0.00    +0.033 C 
ATOM      9  C   UNL     1       8.273  -2.070  25.839  0.00  0.00    +0.021 C 
ATOM     10  C   UNL     1       8.473  -3.309  25.042  0.00  0.00    +0.108 C 
ATOM     11  O   UNL     1       6.622  -2.926  21.934  0.00  0.00    -0.274 OA
BRANCH   5  12
ATOM     12  C   UNL     1       6.673  -4.900  23.335  0.00  0.00    +0.141 C 
BRANCH  12  13
ATOM     13  C   UNL     1       5.122  -4.918  23.494  0.00  0.00    +0.015 C 
ATOM     14  C   UNL     1       4.640  -3.814  24.456  0.00  0.00    +0.005 C 
ATOM     15  C   UNL     1       4.963  -4.150  25.902  0.00  0.00    +0.000 C 
ATOM     16  C   UNL     1       4.402  -5.520  26.272  0.00  0.00    +0.000 C 
ATOM     17  C   UNL     1       4.870  -6.625  25.325  0.00  0.00    +0.000 C 
ATOM     18  C   UNL     1       4.553  -6.278  23.882  0.00  0.00    +0.005 C 
ENDBRANCH  12  13
BRANCH  12  19
ATOM     19  N   UNL     1       7.222  -5.884  22.369  0.00  0.00    -0.320 NA
ATOM     20  H   UNL     1       6.463  -6.501  22.075  0.00  0.00    +0.119 HD
ATOM     21  H   UNL     1       7.543  -5.407  21.528  0.00  0.00    +0.119 HD
ENDBRANCH  12  19
ENDBRANCH   5  12
ENDBRANCH   1   7
BRANCH   2  22
ATOM     22  C   UNL     1       9.357   1.091  21.874  0.00  0.00    +0.143 C 
BRANCH  22  23
ATOM     23  C   UNL     1       9.534   2.254  22.848  0.00  0.00    +0.013 A 
ATOM     24  C   UNL     1      10.836   2.743  23.106  0.00  0.00    +0.028 A 
ATOM     25  C   UNL     1      11.012   4.069  23.536  0.00  0.00    +0.042 A 
ATOM     26 CL   UNL     1      12.565   4.808  23.386  0.00  0.00    -0.084 Cl
ATOM     27  C   UNL     1       9.910   4.870  23.828  0.00  0.00    +0.023 A 
ATOM     28  C   UNL     1       8.626   4.325  23.761  0.00  0.00    +0.047 A 
ATOM     29  C   UNL     1       8.436   3.009  23.304  0.00  0.00    +0.126 A 
BRANCH  29  30
ATOM     30  O   UNL     1       7.195   2.486  23.068  0.00  0.00    -0.482 OA
BRANCH  30  31
ATOM     31  C   UNL     1       6.329   3.319  22.301  0.00  0.00    +0.324 C 
BRANCH  31  32
ATOM     32  C   UNL     1       4.894   3.077  22.752  0.00  0.00    +0.251 C 
ATOM     33  N   UNL     1       3.932   3.541  21.879  0.00  0.00    -0.313 N 
ATOM     34  H   UNL     1       4.243   3.881  20.975  0.00  0.00    +0.149 HD
ATOM     35  O   UNL     1       4.635   2.546  23.829  0.00  0.00    -0.272 OA
BRANCH  33  36
ATOM     36  C   UNL     1       2.521   3.329  22.117  0.00  0.00    +0.101 C 
ATOM     37  C   UNL     1       1.811   2.824  20.875  0.00  0.00    +0.024 C 
ENDBRANCH  33  36
ENDBRANCH  31  32
ENDBRANCH  30  31
ENDBRANCH  29  30
ENDBRANCH  22  23
ENDBRANCH   2  22
TORSDOF 10
ENDMDL
MODEL 9
REMARK VINA RESULT:      -6.5      3.804      7.931
REMARK  Name = 
REMARK  11 active torsions:
REMARK  status: ('A' for Active; 'I' for Inactive)
REMARK    1  A    between atoms: C_2  and  N_3
REMARK    2  A    between atoms: C_2  and  C_4
REMARK    3  A    between atoms: C_2  and  C_10
REMARK    4  A    between atoms: C_16  and  C_18
REMARK    5  A    between atoms: N_20  and  C_21
REMARK    6  A    between atoms: C_21  and  C_22
REMARK    7  A    between atoms: C_23  and  O_24
REMARK    8  A    between atoms: O_24  and  C_25
REMARK    9  A    between atoms: C_25  and  C_26
REMARK   10  A    between atoms: N_28  and  C_29
REMARK   11  A    between atoms: C_29  and  C_30
REMARK                            x       y       z     vdW  Elec       q    Type
REMARK                         _______ _______ _______ _____ _____    ______ ____
ROOT
ATOM      1  C   UNL     1       8.847  -4.694  25.394  0.00  0.00    +0.234 C 
ATOM      2  N   UNL     1       8.299  -5.502  26.359  0.00  0.00    -0.310 N 
ATOM      3  H   UNL     1       8.944  -6.233  26.624  0.00  0.00    +0.149 HD
ATOM      4  O   UNL     1       9.985  -4.970  24.976  0.00  0.00    -0.274 OA
ENDROOT
BRANCH   1   7
ATOM      5  C   UNL     1       8.733  -1.189  25.251  0.00  0.00    +0.233 C 
ATOM      6  N   UNL     1       8.755  -2.301  24.439  0.00  0.00    -0.289 N 
ATOM      7  C   UNL     1       8.024  -3.491  24.821  0.00  0.00    +0.162 C 
ATOM      8  C   UNL     1       7.446  -3.899  23.501  0.00  0.00    +0.033 C 
ATOM      9  C   UNL     1       7.794  -2.928  22.419  0.00  0.00    +0.021 C 
ATOM     10  C   UNL     1       9.014  -2.306  22.999  0.00  0.00    +0.108 C 
ATOM     11  O   UNL     1       8.176  -1.163  26.349  0.00  0.00    -0.274 OA
BRANCH   5  12
ATOM     12  C   UNL     1       9.435   0.071  24.689  0.00  0.00    +0.141 C 
BRANCH  12  13
ATOM     13  C   UNL     1       8.437   1.270  24.691  0.00  0.00    +0.015 C 
ATOM     14  C   UNL     1       7.228   0.999  23.773  0.00  0.00    +0.005 C 
ATOM     15  C   UNL     1       7.606   1.094  22.305  0.00  0.00    +0.000 C 
ATOM     16  C   UNL     1       8.265   2.438  22.006  0.00  0.00    +0.000 C 
ATOM     17  C   UNL     1       9.465   2.720  22.910  0.00  0.00    +0.000 C 
ATOM     18  C   UNL     1       9.083   2.615  24.374  0.00  0.00    +0.005 C 
ENDBRANCH  12  13
BRANCH  12  19
ATOM     19  N   UNL     1      10.685   0.287  25.458  0.00  0.00    -0.320 NA
ATOM     20  H   UNL     1      11.273   0.938  24.935  0.00  0.00    +0.119 HD
ATOM     21  H   UNL     1      10.477   0.742  26.345  0.00  0.00    +0.119 HD
ENDBRANCH  12  19
ENDBRANCH   5  12
ENDBRANCH   1   7
BRANCH   2  22
ATOM     22  C   UNL     1       7.088  -5.378  27.195  0.00  0.00    +0.143 C 
BRANCH  22  23
ATOM     23  C   UNL     1       5.765  -5.233  26.446  0.00  0.00    +0.013 A 
ATOM     24  C   UNL     1       5.251  -6.345  25.738  0.00  0.00    +0.028 A 
ATOM     25  C   UNL     1       3.869  -6.442  25.499  0.00  0.00    +0.042 A 
ATOM     26 CL   UNL     1       3.189  -7.975  25.086  0.00  0.00    -0.084 Cl
ATOM     27  C   UNL     1       3.016  -5.397  25.846  0.00  0.00    +0.023 A 
ATOM     28  C   UNL     1       3.550  -4.216  26.367  0.00  0.00    +0.047 A 
ATOM     29  C   UNL     1       4.925  -4.118  26.638  0.00  0.00    +0.126 A 
BRANCH  29  30
ATOM     30  O   UNL     1       5.470  -3.050  27.294  0.00  0.00    -0.482 OA
BRANCH  30  31
ATOM     31  C   UNL     1       4.532  -2.237  27.996  0.00  0.00    +0.324 C 
BRANCH  31  32
ATOM     32  C   UNL     1       4.530  -0.847  27.372  0.00  0.00    +0.251 C 
ATOM     33  N   UNL     1       5.603  -0.056  27.726  0.00  0.00    -0.313 N 
ATOM     34  H   UNL     1       6.352  -0.492  28.256  0.00  0.00    +0.149 HD
ATOM     35  O   UNL     1       3.616  -0.465  26.644  0.00  0.00    -0.272 OA
BRANCH  33  36
ATOM     36  C   UNL     1       5.796   1.264  27.168  0.00  0.00    +0.101 C 
ATOM     37  C   UNL     1       6.781   2.082  27.983  0.00  0.00    +0.024 C 
ENDBRANCH  33  36
ENDBRANCH  31  32
ENDBRANCH  30  31
ENDBRANCH  29  30
ENDBRANCH  22  23
ENDBRANCH   2  22
TORSDOF 10
ENDMDL
