MODEL 1
REMARK VINA RESULT:      -7.0      0.000      0.000
REMARK  Name = 
REMARK  2 active torsions:
REMARK  status: ('A' for Active; 'I' for Inactive)
REMARK    1  A    between atoms: C_1  and  C_2
REMARK    2  A    between atoms: N_13  and  C_14
REMARK                            x       y       z     vdW  Elec       q    Type
REMARK                         _______ _______ _______ _____ _____    ______ ____
ROOT
ATOM      1  C   UNL     1      10.077   1.794  24.484  0.00  0.00    +0.046 C 
ATOM      2  C   UNL     1       9.621   0.852  23.416  0.00  0.00    -0.022 A 
ATOM      3  C   UNL     1       9.746   1.183  22.069  0.00  0.00    +0.025 A 
ATOM      4  C   UNL     1       9.379   0.239  21.122  0.00  0.00    +0.113 A 
ATOM      5  N   UNL     1       9.004  -1.028  21.428  0.00  0.00    -0.236 NA
ATOM      6  C   UNL     1       8.889  -1.360  22.731  0.00  0.00    +0.159 A 
ATOM      7  N   UNL     1       8.605  -2.711  23.106  0.00  0.00    -0.305 N 
ATOM      8  C   UNL     1       8.879  -3.296  24.379  0.00  0.00    +0.148 A 
ATOM      9  N   UNL     1       9.375  -4.564  24.385  0.00  0.00    -0.237 NA
ATOM     10  C   UNL     1       9.308  -5.295  25.521  0.00  0.00    +0.113 A 
ATOM     11  C   UNL     1       8.629  -4.887  26.646  0.00  0.00    +0.021 A 
ATOM     12  C   UNL     1       8.193  -3.573  26.676  0.00  0.00    +0.018 A 
ATOM     13  C   UNL     1       8.447  -2.736  25.583  0.00  0.00    +0.082 A 
ATOM     14  C   UNL     1       8.462  -1.289  25.862  0.00  0.00    +0.260 A 
ATOM     15  O   UNL     1       8.699  -0.895  26.994  0.00  0.00    -0.267 OA
ATOM     16  N   UNL     1       8.155  -0.427  24.837  0.00  0.00    -0.319 N 
ATOM     17  H   UNL     1       7.266  -0.760  24.471  0.00  0.00    +0.169 HD
ATOM     18  C   UNL     1       9.037  -0.381  23.727  0.00  0.00    +0.088 A 
ENDROOT
BRANCH   7  19
ATOM     19  C   UNL     1       7.392  -3.276  22.450  0.00  0.00    +0.091 C 
ATOM     20  C   UNL     1       6.318  -4.026  23.185  0.00  0.00    +0.027 C 
ATOM     21  C   UNL     1       6.020  -2.672  22.617  0.00  0.00    +0.027 C 
ENDBRANCH   7  19
TORSDOF 1
ENDMDL
MODEL 2
REMARK VINA RESULT:      -6.5      2.307      5.648
REMARK  Name = 
REMARK  2 active torsions:
REMARK  status: ('A' for Active; 'I' for Inactive)
REMARK    1  A    between atoms: C_1  and  C_2
REMARK    2  A    between atoms: N_13  and  C_14
REMARK                            x       y       z     vdW  Elec       q    Type
REMARK                         _______ _______ _______ _____ _____    ______ ____
ROOT
ATOM      1  C   UNL     1       4.854  -6.039  24.207  0.00  0.00    +0.046 C 
ATOM      2  C   UNL     1       5.750  -5.451  25.251  0.00  0.00    -0.022 A 
ATOM      3  C   UNL     1       5.868  -6.040  26.507  0.00  0.00    +0.025 A 
ATOM      4  C   UNL     1       6.774  -5.497  27.406  0.00  0.00    +0.113 A 
ATOM      5  N   UNL     1       7.628  -4.490  27.099  0.00  0.00    -0.236 NA
ATOM      6  C   UNL     1       7.526  -3.919  25.881  0.00  0.00    +0.159 A 
ATOM      7  N   UNL     1       8.474  -2.931  25.469  0.00  0.00    -0.305 N 
ATOM      8  C   UNL     1       8.767  -2.569  24.120  0.00  0.00    +0.148 A 
ATOM      9  N   UNL     1      10.075  -2.363  23.802  0.00  0.00    -0.237 NA
ATOM     10  C   UNL     1      10.382  -1.678  22.677  0.00  0.00    +0.113 A 
ATOM     11  C   UNL     1       9.445  -1.038  21.899  0.00  0.00    +0.021 A 
ATOM     12  C   UNL     1       8.113  -1.308  22.168  0.00  0.00    +0.018 A 
ATOM     13  C   UNL     1       7.783  -2.192  23.202  0.00  0.00    +0.082 A 
ATOM     14  C   UNL     1       6.466  -2.846  23.103  0.00  0.00    +0.260 A 
ATOM     15  O   UNL     1       5.933  -2.967  22.011  0.00  0.00    -0.267 OA
ATOM     16  N   UNL     1       5.856  -3.256  24.264  0.00  0.00    -0.319 N 
ATOM     17  H   UNL     1       5.857  -2.435  24.865  0.00  0.00    +0.169 HD
ATOM     18  C   UNL     1       6.484  -4.283  25.013  0.00  0.00    +0.088 A 
ENDROOT
BRANCH   7  19
ATOM     19  C   UNL     1       8.612  -1.793  26.423  0.00  0.00    +0.091 C 
ATOM     20  C   UNL     1       8.678  -0.353  26.002  0.00  0.00    +0.027 C 
ATOM     21  C   UNL     1       7.475  -0.855  26.741  0.00  0.00    +0.027 C 
ENDBRANCH   7  19
TORSDOF 1
ENDMDL
MODEL 3
REMARK VINA RESULT:      -6.2      2.717      5.694
REMARK  Name = 
REMARK  2 active torsions:
REMARK  status: ('A' for Active; 'I' for Inactive)
REMARK    1  A    between atoms: C_1  and  C_2
REMARK    2  A    between atoms: N_13  and  C_14
REMARK                            x       y       z     vdW  Elec       q    Type
REMARK                         _______ _______ _______ _____ _____    ______ ____
ROOT
ATOM      1  C   UNL     1       6.100  -5.869  28.516  0.00  0.00    +0.046 C 
ATOM      2  C   UNL     1       5.668  -6.089  27.101  0.00  0.00    -0.022 A 
ATOM      3  C   UNL     1       4.478  -6.752  26.811  0.00  0.00    +0.025 A 
ATOM      4  C   UNL     1       4.090  -6.857  25.483  0.00  0.00    +0.113 A 
ATOM      5  N   UNL     1       4.746  -6.261  24.457  0.00  0.00    -0.236 NA
ATOM      6  C   UNL     1       5.896  -5.610  24.730  0.00  0.00    +0.159 A 
ATOM      7  N   UNL     1       6.566  -4.874  23.704  0.00  0.00    -0.305 N 
ATOM      8  C   UNL     1       7.500  -3.815  23.914  0.00  0.00    +0.148 A 
ATOM      9  N   UNL     1       7.405  -2.732  23.095  0.00  0.00    -0.237 NA
ATOM     10  C   UNL     1       8.454  -1.885  22.993  0.00  0.00    +0.113 A 
ATOM     11  C   UNL     1       9.685  -2.131  23.557  0.00  0.00    +0.021 A 
ATOM     12  C   UNL     1       9.767  -3.184  24.453  0.00  0.00    +0.018 A 
ATOM     13  C   UNL     1       8.624  -3.943  24.734  0.00  0.00    +0.082 A 
ATOM     14  C   UNL     1       8.616  -4.652  26.025  0.00  0.00    +0.260 A 
ATOM     15  O   UNL     1       9.311  -4.243  26.943  0.00  0.00    -0.267 OA
ATOM     16  N   UNL     1       7.856  -5.791  26.136  0.00  0.00    -0.319 N 
ATOM     17  H   UNL     1       8.143  -6.376  25.353  0.00  0.00    +0.169 HD
ATOM     18  C   UNL     1       6.448  -5.659  26.021  0.00  0.00    +0.088 A 
ENDROOT
BRANCH   7  19
ATOM     19  C   UNL     1       6.852  -5.672  22.478  0.00  0.00    +0.091 C 
ATOM     20  C   UNL     1       5.814  -6.466  21.737  0.00  0.00    +0.027 C 
ATOM     21  C   UNL     1       6.402  -5.242  21.104  0.00  0.00    +0.027 C 
ENDBRANCH   7  19
TORSDOF 1
ENDMDL
MODEL 4
REMARK VINA RESULT:      -6.2      1.679      4.861
REMARK  Name = 
REMARK  2 active torsions:
REMARK  status: ('A' for Active; 'I' for Inactive)
REMARK    1  A    between atoms: C_1  and  C_2
REMARK    2  A    between atoms: N_13  and  C_14
REMARK                            x       y       z     vdW  Elec       q    Type
REMARK                         _______ _______ _______ _____ _____    ______ ____
ROOT
ATOM      1  C   UNL     1       7.058  -4.253  26.869  0.00  0.00    +0.046 C 
ATOM      2  C   UNL     1       7.326  -4.130  25.403  0.00  0.00    -0.022 A 
ATOM      3  C   UNL     1       7.182  -5.225  24.555  0.00  0.00    +0.025 A 
ATOM      4  C   UNL     1       7.368  -5.032  23.194  0.00  0.00    +0.113 A 
ATOM      5  N   UNL     1       7.578  -3.819  22.627  0.00  0.00    -0.236 NA
ATOM      6  C   UNL     1       7.710  -2.751  23.441  0.00  0.00    +0.159 A 
ATOM      7  N   UNL     1       7.822  -1.436  22.889  0.00  0.00    -0.305 N 
ATOM      8  C   UNL     1       7.533  -0.218  23.575  0.00  0.00    +0.148 A 
ATOM      9  N   UNL     1       6.867   0.744  22.878  0.00  0.00    -0.237 NA
ATOM     10  C   UNL     1       6.887   2.019  23.327  0.00  0.00    +0.113 A 
ATOM     11  C   UNL     1       7.672   2.442  24.376  0.00  0.00    +0.021 A 
ATOM     12  C   UNL     1       8.286   1.461  25.137  0.00  0.00    +0.018 A 
ATOM     13  C   UNL     1       8.097   0.113  24.810  0.00  0.00    +0.082 A 
ATOM     14  C   UNL     1       8.297  -0.855  25.902  0.00  0.00    +0.260 A 
ATOM     15  O   UNL     1       8.172  -0.491  27.061  0.00  0.00    -0.267 OA
ATOM     16  N   UNL     1       8.669  -2.137  25.574  0.00  0.00    -0.319 N 
ATOM     17  H   UNL     1       9.484  -2.028  24.975  0.00  0.00    +0.169 HD
ATOM     18  C   UNL     1       7.749  -2.923  24.835  0.00  0.00    +0.088 A 
ENDROOT
BRANCH   7  19
ATOM     19  C   UNL     1       8.911  -1.296  21.882  0.00  0.00    +0.091 C 
ATOM     20  C   UNL     1       9.783  -0.079  21.757  0.00  0.00    +0.027 C 
ATOM     21  C   UNL     1      10.373  -1.365  22.248  0.00  0.00    +0.027 C 
ENDBRANCH   7  19
TORSDOF 1
ENDMDL
MODEL 5
REMARK VINA RESULT:      -6.2      2.308      3.238
REMARK  Name = 
REMARK  2 active torsions:
REMARK  status: ('A' for Active; 'I' for Inactive)
REMARK    1  A    between atoms: C_1  and  C_2
REMARK    2  A    between atoms: N_13  and  C_14
REMARK                            x       y       z     vdW  Elec       q    Type
REMARK                         _______ _______ _______ _____ _____    ______ ____
ROOT
ATOM      1  C   UNL     1      10.956   0.447  24.463  0.00  0.00    +0.046 C 
ATOM      2  C   UNL     1       9.474   0.591  24.599  0.00  0.00    -0.022 A 
ATOM      3  C   UNL     1       8.895   1.836  24.834  0.00  0.00    +0.025 A 
ATOM      4  C   UNL     1       7.511   1.921  24.873  0.00  0.00    +0.113 A 
ATOM      5  N   UNL     1       6.684   0.884  24.592  0.00  0.00    -0.236 NA
ATOM      6  C   UNL     1       7.237  -0.324  24.356  0.00  0.00    +0.159 A 
ATOM      7  N   UNL     1       6.418  -1.422  23.947  0.00  0.00    -0.305 N 
ATOM      8  C   UNL     1       6.870  -2.588  23.258  0.00  0.00    +0.148 A 
ATOM      9  N   UNL     1       6.083  -3.059  22.252  0.00  0.00    -0.237 NA
ATOM     10  C   UNL     1       6.253  -4.329  21.818  0.00  0.00    +0.113 A 
ATOM     11  C   UNL     1       7.083  -5.236  22.437  0.00  0.00    +0.021 A 
ATOM     12  C   UNL     1       7.943  -4.745  23.405  0.00  0.00    +0.018 A 
ATOM     13  C   UNL     1       7.926  -3.380  23.714  0.00  0.00    +0.082 A 
ATOM     14  C   UNL     1       9.159  -2.834  24.308  0.00  0.00    +0.260 A 
ATOM     15  O   UNL     1      10.225  -3.396  24.110  0.00  0.00    -0.267 OA
ATOM     16  N   UNL     1       9.056  -1.725  25.114  0.00  0.00    -0.319 N 
ATOM     17  H   UNL     1       8.347  -1.967  25.803  0.00  0.00    +0.169 HD
ATOM     18  C   UNL     1       8.620  -0.514  24.518  0.00  0.00    +0.088 A 
ENDROOT
BRANCH   7  19
ATOM     19  C   UNL     1       5.270  -1.691  24.860  0.00  0.00    +0.091 C 
ATOM     20  C   UNL     1       4.819  -3.069  25.252  0.00  0.00    +0.027 C 
ATOM     21  C   UNL     1       5.454  -2.177  26.276  0.00  0.00    +0.027 C 
ENDBRANCH   7  19
TORSDOF 1
ENDMDL
MODEL 6
REMARK VINA RESULT:      -6.2      2.036      2.259
REMARK  Name = 
REMARK  2 active torsions:
REMARK  status: ('A' for Active; 'I' for Inactive)
REMARK    1  A    between atoms: C_1  and  C_2
REMARK    2  A    between atoms: N_13  and  C_14
REMARK                            x       y       z     vdW  Elec       q    Type
REMARK                         _______ _______ _______ _____ _____    ______ ____
ROOT
ATOM      1  C   UNL     1       7.398   1.462  23.714  0.00  0.00    +0.046 C 
ATOM      2  C   UNL     1       7.956   0.273  22.999  0.00  0.00    -0.022 A 
ATOM      3  C   UNL     1       8.973   0.415  22.058  0.00  0.00    +0.025 A 
ATOM      4  C   UNL     1       9.504  -0.730  21.485  0.00  0.00    +0.113 A 
ATOM      5  N   UNL     1       9.166  -1.988  21.862  0.00  0.00    -0.236 NA
ATOM      6  C   UNL     1       8.187  -2.135  22.779  0.00  0.00    +0.159 A 
ATOM      7  N   UNL     1       7.871  -3.432  23.291  0.00  0.00    -0.305 N 
ATOM      8  C   UNL     1       7.209  -3.701  24.527  0.00  0.00    +0.148 A 
ATOM      9  N   UNL     1       7.684  -4.736  25.274  0.00  0.00    -0.237 NA
ATOM     10  C   UNL     1       6.903  -5.267  26.241  0.00  0.00    +0.113 A 
ATOM     11  C   UNL     1       5.583  -4.923  26.424  0.00  0.00    +0.021 A 
ATOM     12  C   UNL     1       5.117  -3.820  25.726  0.00  0.00    +0.018 A 
ATOM     13  C   UNL     1       5.985  -3.124  24.877  0.00  0.00    +0.082 A 
ATOM     14  C   UNL     1       5.636  -1.720  24.600  0.00  0.00    +0.260 A 
ATOM     15  O   UNL     1       4.944  -1.103  25.395  0.00  0.00    -0.267 OA
ATOM     16  N   UNL     1       6.068  -1.163  23.420  0.00  0.00    -0.319 N 
ATOM     17  H   UNL     1       5.757  -1.808  22.697  0.00  0.00    +0.169 HD
ATOM     18  C   UNL     1       7.466  -1.017  23.231  0.00  0.00    +0.088 A 
ENDROOT
BRANCH   7  19
ATOM     19  C   UNL     1       7.571  -4.440  22.235  0.00  0.00    +0.091 C 
ATOM     20  C   UNL     1       6.695  -5.642  22.452  0.00  0.00    +0.027 C 
ATOM     21  C   UNL     1       6.226  -4.534  21.559  0.00  0.00    +0.027 C 
ENDBRANCH   7  19
TORSDOF 1
ENDMDL
MODEL 7
REMARK VINA RESULT:      -6.1      2.591      3.415
REMARK  Name = 
REMARK  2 active torsions:
REMARK  status: ('A' for Active; 'I' for Inactive)
REMARK    1  A    between atoms: C_1  and  C_2
REMARK    2  A    between atoms: N_13  and  C_14
REMARK                            x       y       z     vdW  Elec       q    Type
REMARK                         _______ _______ _______ _____ _____    ______ ____
ROOT
ATOM      1  C   UNL     1       7.515   0.233  25.258  0.00  0.00    +0.046 C 
ATOM      2  C   UNL     1       8.134  -0.984  24.648  0.00  0.00    -0.022 A 
ATOM      3  C   UNL     1       9.453  -0.967  24.199  0.00  0.00    +0.025 A 
ATOM      4  C   UNL     1       9.998  -2.147  23.714  0.00  0.00    +0.113 A 
ATOM      5  N   UNL     1       9.359  -3.342  23.749  0.00  0.00    -0.236 NA
ATOM      6  C   UNL     1       8.084  -3.369  24.190  0.00  0.00    +0.159 A 
ATOM      7  N   UNL     1       7.405  -4.617  24.349  0.00  0.00    -0.305 N 
ATOM      8  C   UNL     1       6.271  -4.847  25.185  0.00  0.00    +0.148 A 
ATOM      9  N   UNL     1       6.251  -6.006  25.899  0.00  0.00    -0.237 NA
ATOM     10  C   UNL     1       5.079  -6.450  26.406  0.00  0.00    +0.113 A 
ATOM     11  C   UNL     1       3.862  -5.876  26.117  0.00  0.00    +0.021 A 
ATOM     12  C   UNL     1       3.881  -4.657  25.461  0.00  0.00    +0.018 A 
ATOM     13  C   UNL     1       5.108  -4.076  25.118  0.00  0.00    +0.082 A 
ATOM     14  C   UNL     1       5.106  -2.614  24.935  0.00  0.00    +0.260 A 
ATOM     15  O   UNL     1       4.250  -1.938  25.483  0.00  0.00    -0.267 OA
ATOM     16  N   UNL     1       6.051  -2.064  24.103  0.00  0.00    -0.319 N 
ATOM     17  H   UNL     1       5.967  -2.582  23.231  0.00  0.00    +0.169 HD
ATOM     18  C   UNL     1       7.412  -2.171  24.486  0.00  0.00    +0.088 A 
ENDROOT
BRANCH   7  19
ATOM     19  C   UNL     1       7.413  -5.468  23.125  0.00  0.00    +0.091 C 
ATOM     20  C   UNL     1       6.183  -6.103  22.542  0.00  0.00    +0.027 C 
ATOM     21  C   UNL     1       6.867  -4.994  21.802  0.00  0.00    +0.027 C 
ENDBRANCH   7  19
TORSDOF 1
ENDMDL
MODEL 8
REMARK VINA RESULT:      -6.0      2.079      5.334
REMARK  Name = 
REMARK  2 active torsions:
REMARK  status: ('A' for Active; 'I' for Inactive)
REMARK    1  A    between atoms: C_1  and  C_2
REMARK    2  A    between atoms: N_13  and  C_14
REMARK                            x       y       z     vdW  Elec       q    Type
REMARK                         _______ _______ _______ _____ _____    ______ ____
ROOT
ATOM      1  C   UNL     1       5.451  -3.642  25.328  0.00  0.00    +0.046 C 
ATOM      2  C   UNL     1       6.894  -3.474  24.970  0.00  0.00    -0.022 A 
ATOM      3  C   UNL     1       7.761  -4.563  24.962  0.00  0.00    +0.025 A 
ATOM      4  C   UNL     1       9.068  -4.361  24.545  0.00  0.00    +0.113 A 
ATOM      5  N   UNL     1       9.526  -3.187  24.045  0.00  0.00    -0.236 NA
ATOM      6  C   UNL     1       8.690  -2.128  24.041  0.00  0.00    +0.159 A 
ATOM      7  N   UNL     1       9.087  -0.901  23.425  0.00  0.00    -0.305 N 
ATOM      8  C   UNL     1       8.206   0.121  22.959  0.00  0.00    +0.148 A 
ATOM      9  N   UNL     1       8.508   0.707  21.768  0.00  0.00    -0.237 NA
ATOM     10  C   UNL     1       7.948   1.897  21.455  0.00  0.00    +0.113 A 
ATOM     11  C   UNL     1       7.197   2.637  22.340  0.00  0.00    +0.021 A 
ATOM     12  C   UNL     1       6.819   2.016  23.518  0.00  0.00    +0.018 A 
ATOM     13  C   UNL     1       7.216   0.695  23.760  0.00  0.00    +0.082 A 
ATOM     14  C   UNL     1       6.384  -0.071  24.705  0.00  0.00    +0.260 A 
ATOM     15  O   UNL     1       5.220   0.253  24.883  0.00  0.00    -0.267 OA
ATOM     16  N   UNL     1       6.969  -1.104  25.396  0.00  0.00    -0.319 N 
ATOM     17  H   UNL     1       7.798  -0.697  25.824  0.00  0.00    +0.169 HD
ATOM     18  C   UNL     1       7.428  -2.220  24.651  0.00  0.00    +0.088 A 
ENDROOT
BRANCH   7  19
ATOM     19  C   UNL     1      10.388  -0.369  23.923  0.00  0.00    +0.091 C 
ATOM     20  C   UNL     1      10.738   1.091  23.949  0.00  0.00    +0.027 C 
ATOM     21  C   UNL     1      10.520   0.358  25.237  0.00  0.00    +0.027 C 
ENDBRANCH   7  19
TORSDOF 1
ENDMDL
MODEL 9
REMARK VINA RESULT:      -6.0      2.589      4.538
REMARK  Name = 
REMARK  2 active torsions:
REMARK  status: ('A' for Active; 'I' for Inactive)
REMARK    1  A    between atoms: C_1  and  C_2
REMARK    2  A    between atoms: N_13  and  C_14
REMARK                            x       y       z     vdW  Elec       q    Type
REMARK                         _______ _______ _______ _____ _____    ______ ____
ROOT
ATOM      1  C   UNL     1       9.449  -1.620  22.093  0.00  0.00    +0.046 C 
ATOM      2  C   UNL     1       9.014  -1.710  23.521  0.00  0.00    -0.022 A 
ATOM      3  C   UNL     1       9.506  -0.823  24.475  0.00  0.00    +0.025 A 
ATOM      4  C   UNL     1       9.007  -0.903  25.767  0.00  0.00    +0.113 A 
ATOM      5  N   UNL     1       7.993  -1.725  26.133  0.00  0.00    -0.236 NA
ATOM      6  C   UNL     1       7.505  -2.582  25.212  0.00  0.00    +0.159 A 
ATOM      7  N   UNL     1       6.364  -3.390  25.515  0.00  0.00    -0.305 N 
ATOM      8  C   UNL     1       5.491  -3.989  24.558  0.00  0.00    +0.148 A 
ATOM      9  N   UNL     1       4.156  -3.953  24.828  0.00  0.00    -0.237 NA
ATOM     10  C   UNL     1       3.327  -4.798  24.175  0.00  0.00    +0.113 A 
ATOM     11  C   UNL     1       3.768  -5.810  23.353  0.00  0.00    +0.021 A 
ATOM     12  C   UNL     1       5.111  -5.803  23.012  0.00  0.00    +0.018 A 
ATOM     13  C   UNL     1       5.945  -4.797  23.513  0.00  0.00    +0.082 A 
ATOM     14  C   UNL     1       7.164  -4.516  22.734  0.00  0.00    +0.260 A 
ATOM     15  O   UNL     1       7.197  -4.792  21.545  0.00  0.00    -0.267 OA
ATOM     16  N   UNL     1       8.250  -3.991  23.394  0.00  0.00    -0.319 N 
ATOM     17  H   UNL     1       8.407  -4.618  24.180  0.00  0.00    +0.169 HD
ATOM     18  C   UNL     1       8.119  -2.695  23.954  0.00  0.00    +0.088 A 
ENDROOT
BRANCH   7  19
ATOM     19  C   UNL     1       6.510  -4.197  26.760  0.00  0.00    +0.091 C 
ATOM     20  C   UNL     1       6.110  -5.640  26.872  0.00  0.00    +0.027 C 
ATOM     21  C   UNL     1       7.561  -5.267  26.917  0.00  0.00    +0.027 C 
ENDBRANCH   7  19
TORSDOF 1
ENDMDL
