MODEL 1
REMARK VINA RESULT:      -6.0      0.000      0.000
REMARK  Name = 
REMARK  26 active torsions:
REMARK  status: ('A' for Active; 'I' for Inactive)
REMARK    1  A    between atoms: C_1  and  O_2
REMARK    2  A    between atoms: O_2  and  C_3
REMARK    3  A    between atoms: C_6  and  O_8
REMARK    4  A    between atoms: O_8  and  C_9
REMARK    5  A    between atoms: C_11  and  C_13
REMARK    6  A    between atoms: C_14  and  O_16
REMARK    7  A    between atoms: O_16  and  C_17
REMARK    8  A    between atoms: C_20  and  C_22
REMARK    9  A    between atoms: C_24  and  N_32
REMARK   10  A    between atoms: C_26  and  O_28
REMARK   11  A    between atoms: O_28  and  C_29
REMARK   12  A    between atoms: C_29  and  C_30
REMARK   13  A    between atoms: N_32  and  C_33
REMARK   14  A    between atoms: N_32  and  C_34
REMARK   15  A    between atoms: C_35  and  C_37
REMARK   16  A    between atoms: C_44  and  C_46
REMARK   17  A    between atoms: C_47  and  O_49
REMARK   18  A    between atoms: O_49  and  C_50
REMARK   19  A    between atoms: C_50  and  C_51
REMARK   20  A    between atoms: C_53  and  C_55
REMARK   21  A    between atoms: C_56  and  C_58
REMARK   22  A    between atoms: C_62  and  C_64
REMARK   23  A    between atoms: C_66  and  C_68
REMARK   24  A    between atoms: C_69  and  O_71
REMARK   25  A    between atoms: O_71  and  C_72
REMARK   26  A    between atoms: C_72  and  C_73
REMARK                            x       y       z     vdW  Elec       q    Type
REMARK                         _______ _______ _______ _____ _____    ______ ____
ROOT
ATOM      1  C   UNL     1       8.377  -1.468  24.946  0.00  0.00    +0.140 C 
ATOM      2  C   UNL     1       9.199  -0.261  24.367  0.00  0.00    +0.124 C 
ATOM      3  C   UNL     1      10.506   0.087  25.090  0.00  0.00    +0.022 C 
ATOM      4  C   UNL     1       9.341  -0.165  22.851  0.00  0.00    +0.313 C 
ATOM      5  O   UNL     1      10.070  -0.899  22.198  0.00  0.00    -0.250 OA
ATOM      6  O   UNL     1       8.838   0.998  22.309  0.00  0.00    -0.461 OA
ATOM      7  C   UNL     1       7.425   1.406  22.166  0.00  0.00    +0.180 C 
ATOM      8  C   UNL     1       6.413   0.310  22.494  0.00  0.00    +0.052 C 
ATOM      9  C   UNL     1       7.098   2.910  22.638  0.00  0.00    +0.068 C 
ATOM     10  C   UNL     1       8.271   3.539  23.441  0.00  0.00    +0.015 C 
ATOM     11  C   UNL     1       5.613   3.141  23.212  0.00  0.00    +0.193 C 
ATOM     12  C   UNL     1       5.543   3.349  24.750  0.00  0.00    +0.096 C 
ATOM     13  C   UNL     1       5.628   4.795  25.233  0.00  0.00    +0.019 C 
ATOM     14  C   UNL     1       4.405   2.562  25.430  0.00  0.00    +0.173 C 
ATOM     15  O   UNL     1       3.397   2.214  24.827  0.00  0.00    -0.294 OA
ATOM     16  C   UNL     1       4.597   2.098  26.864  0.00  0.00    +0.151 C 
ATOM     17  O   UNL     1       3.595   2.647  27.751  0.00  0.00    -0.360 OA
ATOM     18  C   UNL     1       4.931   3.074  27.986  0.00  0.00    +0.204 C 
ATOM     19  C   UNL     1       4.877   0.617  27.147  0.00  0.00    +0.051 C 
ATOM     20  C   UNL     1       6.394   0.284  27.292  0.00  0.00    +0.018 C 
ATOM     21  C   UNL     1       7.220   1.252  26.448  0.00  0.00    +0.010 C 
ATOM     22  C   UNL     1       6.724  -1.195  26.922  0.00  0.00    +0.130 C 
ATOM     23  C   UNL     1       8.246  -1.449  26.529  0.00  0.00    +0.045 C 
ATOM     24  C   UNL     1       9.067  -2.551  27.218  0.00  0.00    +0.013 C 
ENDROOT
BRANCH   1  25
ATOM     25  O   UNL     1       8.753  -2.769  24.471  0.00  0.00    -0.347 OA
BRANCH  25  31
ATOM     26  C   UNL     1       6.838  -5.572  22.734  0.00  0.00    +0.166 C 
ATOM     27  C   UNL     1       5.476  -5.051  23.194  0.00  0.00    +0.233 C 
ATOM     28  C   UNL     1       5.418  -3.512  23.094  0.00  0.00    +0.161 C 
ATOM     29  C   UNL     1       5.351  -2.990  21.653  0.00  0.00    +0.042 C 
ATOM     30  O   UNL     1       6.483  -2.914  23.857  0.00  0.00    -0.345 OA
ATOM     31  C   UNL     1       7.805  -3.359  23.531  0.00  0.00    +0.254 C 
ATOM     32  C   UNL     1       7.926  -4.886  23.555  0.00  0.00    +0.096 C 
BRANCH  26  34
ATOM     33  C   UNL     1       6.240  -6.027  20.460  0.00  0.00    +0.194 C 
ATOM     34  O   UNL     1       7.104  -5.328  21.348  0.00  0.00    -0.376 OA
ENDBRANCH  26  34
BRANCH  27  35
ATOM     35  O   UNL     1       5.348  -5.450  24.579  0.00  0.00    -0.456 OA
BRANCH  35  36
ATOM     36  C   UNL     1       4.511  -6.482  24.842  0.00  0.00    +0.304 C 
ATOM     37  O   UNL     1       4.661  -7.305  25.730  0.00  0.00    -0.251 OA
ATOM     38  C   UNL     1       3.380  -6.480  23.855  0.00  0.00    +0.136 C 
ENDBRANCH  35  36
ENDBRANCH  27  35
ENDBRANCH  25  31
ENDBRANCH   1  25
BRANCH  11  39
ATOM     39  O   UNL     1       4.927   4.272  22.608  0.00  0.00    -0.460 OA
BRANCH  39  40
ATOM     40  C   UNL     1       3.619   4.035  22.269  0.00  0.00    +0.304 C 
ATOM     41  O   UNL     1       3.227   3.062  21.634  0.00  0.00    -0.251 OA
ATOM     42  C   UNL     1       2.683   5.073  22.818  0.00  0.00    +0.136 C 
ENDBRANCH  39  40
ENDBRANCH  11  39
BRANCH  22  43
ATOM     43  O   UNL     1       6.084  -2.140  27.761  0.00  0.00    -0.344 OA
BRANCH  43  44
ATOM     44  C   UNL     1       5.293  -3.187  27.183  0.00  0.00    +0.293 C 
ATOM     45  C   UNL     1       4.961  -4.135  28.357  0.00  0.00    +0.249 C 
ATOM     46  C   UNL     1       3.757  -5.086  28.076  0.00  0.00    +0.104 C 
ATOM     47  C   UNL     1       2.639  -4.262  27.394  0.00  0.00    +0.054 C 
ATOM     48  C   UNL     1       3.137  -3.468  26.200  0.00  0.00    +0.120 C 
ATOM     49  C   UNL     1       2.022  -2.578  25.653  0.00  0.00    +0.038 C 
ATOM     50  O   UNL     1       4.160  -2.592  26.606  0.00  0.00    -0.345 OA
BRANCH  46  51
ATOM     51  N   UNL     1       3.208  -5.716  29.322  0.00  0.00    -0.302 NA
ATOM     52  C   UNL     1       2.800  -7.109  29.138  0.00  0.00    +0.105 C 
ATOM     53  C   UNL     1       2.099  -4.963  29.914  0.00  0.00    +0.105 C 
ENDBRANCH  46  51
BRANCH  45  54
ATOM     54  O   UNL     1       6.158  -4.809  28.848  0.00  0.00    -0.455 OA
BRANCH  54  55
ATOM     55  C   UNL     1       6.585  -5.972  28.290  0.00  0.00    +0.304 C 
ATOM     56  O   UNL     1       6.296  -7.091  28.684  0.00  0.00    -0.251 OA
ATOM     57  C   UNL     1       7.497  -5.686  27.132  0.00  0.00    +0.136 C 
ENDBRANCH  54  55
ENDBRANCH  45  54
ENDBRANCH  43  44
ENDBRANCH  22  43
TORSDOF 12
ENDMDL
MODEL 2
REMARK VINA RESULT:      -5.2      1.260      2.439
REMARK  Name = 
REMARK  26 active torsions:
REMARK  status: ('A' for Active; 'I' for Inactive)
REMARK    1  A    between atoms: C_1  and  O_2
REMARK    2  A    between atoms: O_2  and  C_3
REMARK    3  A    between atoms: C_6  and  O_8
REMARK    4  A    between atoms: O_8  and  C_9
REMARK    5  A    between atoms: C_11  and  C_13
REMARK    6  A    between atoms: C_14  and  O_16
REMARK    7  A    between atoms: O_16  and  C_17
REMARK    8  A    between atoms: C_20  and  C_22
REMARK    9  A    between atoms: C_24  and  N_32
REMARK   10  A    between atoms: C_26  and  O_28
REMARK   11  A    between atoms: O_28  and  C_29
REMARK   12  A    between atoms: C_29  and  C_30
REMARK   13  A    between atoms: N_32  and  C_33
REMARK   14  A    between atoms: N_32  and  C_34
REMARK   15  A    between atoms: C_35  and  C_37
REMARK   16  A    between atoms: C_44  and  C_46
REMARK   17  A    between atoms: C_47  and  O_49
REMARK   18  A    between atoms: O_49  and  C_50
REMARK   19  A    between atoms: C_50  and  C_51
REMARK   20  A    between atoms: C_53  and  C_55
REMARK   21  A    between atoms: C_56  and  C_58
REMARK   22  A    between atoms: C_62  and  C_64
REMARK   23  A    between atoms: C_66  and  C_68
REMARK   24  A    between atoms: C_69  and  O_71
REMARK   25  A    between atoms: O_71  and  C_72
REMARK   26  A    between atoms: C_72  and  C_73
REMARK                            x       y       z     vdW  Elec       q    Type
REMARK                         _______ _______ _______ _____ _____    ______ ____
ROOT
ATOM      1  C   UNL     1       8.227  -1.407  25.032  0.00  0.00    +0.140 C 
ATOM      2  C   UNL     1       9.061  -0.092  25.238  0.00  0.00    +0.124 C 
ATOM      3  C   UNL     1      10.101  -0.111  26.367  0.00  0.00    +0.022 C 
ATOM      4  C   UNL     1       9.582   0.618  23.993  0.00  0.00    +0.313 C 
ATOM      5  O   UNL     1      10.518   0.199  23.324  0.00  0.00    -0.250 OA
ATOM      6  O   UNL     1       9.137   1.914  23.852  0.00  0.00    -0.461 OA
ATOM      7  C   UNL     1       7.779   2.383  23.508  0.00  0.00    +0.180 C 
ATOM      8  C   UNL     1       6.817   1.279  23.075  0.00  0.00    +0.052 C 
ATOM      9  C   UNL     1       7.210   3.568  24.439  0.00  0.00    +0.068 C 
ATOM     10  C   UNL     1       8.074   3.775  25.713  0.00  0.00    +0.015 C 
ATOM     11  C   UNL     1       5.612   3.582  24.629  0.00  0.00    +0.193 C 
ATOM     12  C   UNL     1       5.128   3.138  26.036  0.00  0.00    +0.096 C 
ATOM     13  C   UNL     1       4.957   4.252  27.067  0.00  0.00    +0.019 C 
ATOM     14  C   UNL     1       3.926   2.172  26.002  0.00  0.00    +0.173 C 
ATOM     15  O   UNL     1       3.143   2.133  25.060  0.00  0.00    -0.294 OA
ATOM     16  C   UNL     1       3.780   1.153  27.119  0.00  0.00    +0.151 C 
ATOM     17  O   UNL     1       2.538   1.314  27.842  0.00  0.00    -0.360 OA
ATOM     18  C   UNL     1       3.725   1.568  28.584  0.00  0.00    +0.204 C 
ATOM     19  C   UNL     1       4.107  -0.321  26.844  0.00  0.00    +0.051 C 
ATOM     20  C   UNL     1       5.557  -0.725  27.248  0.00  0.00    +0.018 C 
ATOM     21  C   UNL     1       6.485   0.481  27.129  0.00  0.00    +0.010 C 
ATOM     22  C   UNL     1       6.101  -1.929  26.417  0.00  0.00    +0.130 C 
ATOM     23  C   UNL     1       7.689  -2.040  26.386  0.00  0.00    +0.045 C 
ATOM     24  C   UNL     1       8.398  -3.350  26.765  0.00  0.00    +0.013 C 
ENDROOT
BRANCH   1  25
ATOM     25  O   UNL     1       8.826  -2.405  24.193  0.00  0.00    -0.347 OA
BRANCH  25  31
ATOM     26  C   UNL     1       6.940  -5.457  22.899  0.00  0.00    +0.166 C 
ATOM     27  C   UNL     1       5.576  -4.901  23.307  0.00  0.00    +0.233 C 
ATOM     28  C   UNL     1       5.485  -3.392  22.995  0.00  0.00    +0.161 C 
ATOM     29  C   UNL     1       5.386  -3.078  21.496  0.00  0.00    +0.042 C 
ATOM     30  O   UNL     1       6.550  -2.675  23.647  0.00  0.00    -0.345 OA
ATOM     31  C   UNL     1       7.875  -3.138  23.362  0.00  0.00    +0.254 C 
ATOM     32  C   UNL     1       8.027  -4.644  23.597  0.00  0.00    +0.096 C 
BRANCH  26  34
ATOM     33  C   UNL     1       6.241  -6.141  20.713  0.00  0.00    +0.194 C 
ATOM     34  O   UNL     1       7.179  -5.404  21.488  0.00  0.00    -0.376 OA
ENDBRANCH  26  34
BRANCH  27  35
ATOM     35  O   UNL     1       5.477  -5.104  24.737  0.00  0.00    -0.456 OA
BRANCH  35  36
ATOM     36  C   UNL     1       4.984  -6.296  25.151  0.00  0.00    +0.304 C 
ATOM     37  O   UNL     1       5.294  -6.868  26.182  0.00  0.00    -0.251 OA
ATOM     38  C   UNL     1       4.015  -6.823  24.134  0.00  0.00    +0.136 C 
ENDBRANCH  35  36
ENDBRANCH  27  35
ENDBRANCH  25  31
ENDBRANCH   1  25
BRANCH  11  39
ATOM     39  O   UNL     1       5.009   4.880  24.372  0.00  0.00    -0.460 OA
BRANCH  39  40
ATOM     40  C   UNL     1       4.829   5.177  23.045  0.00  0.00    +0.304 C 
ATOM     41  O   UNL     1       5.526   5.952  22.402  0.00  0.00    -0.251 OA
ATOM     42  C   UNL     1       3.707   4.393  22.425  0.00  0.00    +0.136 C 
ENDBRANCH  39  40
ENDBRANCH  11  39
BRANCH  22  43
ATOM     43  O   UNL     1       5.351  -3.117  26.593  0.00  0.00    -0.344 OA
BRANCH  43  44
ATOM     44  C   UNL     1       4.874  -3.471  27.897  0.00  0.00    +0.293 C 
ATOM     45  C   UNL     1       3.393  -3.866  27.690  0.00  0.00    +0.249 C 
ATOM     46  C   UNL     1       2.797  -4.706  28.861  0.00  0.00    +0.104 C 
ATOM     47  C   UNL     1       3.841  -5.771  29.273  0.00  0.00    +0.054 C 
ATOM     48  C   UNL     1       5.216  -5.181  29.527  0.00  0.00    +0.120 C 
ATOM     49  C   UNL     1       6.228  -6.293  29.799  0.00  0.00    +0.038 C 
ATOM     50  O   UNL     1       5.672  -4.525  28.368  0.00  0.00    -0.345 OA
BRANCH  46  51
ATOM     51  N   UNL     1       1.516  -5.395  28.491  0.00  0.00    -0.302 NA
ATOM     52  C   UNL     1       0.668  -5.703  29.642  0.00  0.00    +0.105 C 
ATOM     53  C   UNL     1       1.719  -6.613  27.701  0.00  0.00    +0.105 C 
ENDBRANCH  46  51
BRANCH  45  54
ATOM     54  O   UNL     1       2.587  -2.712  27.307  0.00  0.00    -0.455 OA
BRANCH  54  55
ATOM     55  C   UNL     1       1.837  -2.726  26.174  0.00  0.00    +0.304 C 
ATOM     56  O   UNL     1       0.938  -1.942  25.915  0.00  0.00    -0.251 OA
ATOM     57  C   UNL     1       2.250  -3.870  25.294  0.00  0.00    +0.136 C 
ENDBRANCH  54  55
ENDBRANCH  45  54
ENDBRANCH  43  44
ENDBRANCH  22  43
TORSDOF 12
ENDMDL
MODEL 3
REMARK VINA RESULT:      -4.5      2.747      6.427
REMARK  Name = 
REMARK  26 active torsions:
REMARK  status: ('A' for Active; 'I' for Inactive)
REMARK    1  A    between atoms: C_1  and  O_2
REMARK    2  A    between atoms: O_2  and  C_3
REMARK    3  A    between atoms: C_6  and  O_8
REMARK    4  A    between atoms: O_8  and  C_9
REMARK    5  A    between atoms: C_11  and  C_13
REMARK    6  A    between atoms: C_14  and  O_16
REMARK    7  A    between atoms: O_16  and  C_17
REMARK    8  A    between atoms: C_20  and  C_22
REMARK    9  A    between atoms: C_24  and  N_32
REMARK   10  A    between atoms: C_26  and  O_28
REMARK   11  A    between atoms: O_28  and  C_29
REMARK   12  A    between atoms: C_29  and  C_30
REMARK   13  A    between atoms: N_32  and  C_33
REMARK   14  A    between atoms: N_32  and  C_34
REMARK   15  A    between atoms: C_35  and  C_37
REMARK   16  A    between atoms: C_44  and  C_46
REMARK   17  A    between atoms: C_47  and  O_49
REMARK   18  A    between atoms: O_49  and  C_50
REMARK   19  A    between atoms: C_50  and  C_51
REMARK   20  A    between atoms: C_53  and  C_55
REMARK   21  A    between atoms: C_56  and  C_58
REMARK   22  A    between atoms: C_62  and  C_64
REMARK   23  A    between atoms: C_66  and  C_68
REMARK   24  A    between atoms: C_69  and  O_71
REMARK   25  A    between atoms: O_71  and  C_72
REMARK   26  A    between atoms: C_72  and  C_73
REMARK                            x       y       z     vdW  Elec       q    Type
REMARK                         _______ _______ _______ _____ _____    ______ ____
ROOT
ATOM      1  C   UNL     1       6.835   1.970  27.165  0.00  0.00    +0.140 C 
ATOM      2  C   UNL     1       6.656   2.830  28.468  0.00  0.00    +0.124 C 
ATOM      3  C   UNL     1       7.415   2.354  29.713  0.00  0.00    +0.022 C 
ATOM      4  C   UNL     1       6.692   4.348  28.323  0.00  0.00    +0.313 C 
ATOM      5  O   UNL     1       7.720   4.979  28.118  0.00  0.00    -0.250 OA
ATOM      6  O   UNL     1       5.545   4.984  28.747  0.00  0.00    -0.461 OA
ATOM      7  C   UNL     1       4.212   4.990  28.108  0.00  0.00    +0.180 C 
ATOM      8  C   UNL     1       4.173   4.366  26.715  0.00  0.00    +0.052 C 
ATOM      9  C   UNL     1       2.978   4.708  29.104  0.00  0.00    +0.068 C 
ATOM     10  C   UNL     1       3.451   4.177  30.485  0.00  0.00    +0.015 C 
ATOM     11  C   UNL     1       1.712   3.976  28.434  0.00  0.00    +0.193 C 
ATOM     12  C   UNL     1       1.530   2.492  28.854  0.00  0.00    +0.096 C 
ATOM     13  C   UNL     1       0.644   2.246  30.074  0.00  0.00    +0.019 C 
ATOM     14  C   UNL     1       1.195   1.551  27.679  0.00  0.00    +0.173 C 
ATOM     15  O   UNL     1       0.662   1.952  26.651  0.00  0.00    -0.294 OA
ATOM     16  C   UNL     1       1.652   0.104  27.752  0.00  0.00    +0.151 C 
ATOM     17  O   UNL     1       0.542  -0.819  27.691  0.00  0.00    -0.360 OA
ATOM     18  C   UNL     1       1.267  -0.802  28.915  0.00  0.00    +0.204 C 
ATOM     19  C   UNL     1       2.840  -0.356  26.896  0.00  0.00    +0.051 C 
ATOM     20  C   UNL     1       4.201  -0.338  27.657  0.00  0.00    +0.018 C 
ATOM     21  C   UNL     1       4.182   0.746  28.732  0.00  0.00    +0.010 C 
ATOM     22  C   UNL     1       5.422  -0.151  26.703  0.00  0.00    +0.130 C 
ATOM     23  C   UNL     1       6.733   0.405  27.416  0.00  0.00    +0.045 C 
ATOM     24  C   UNL     1       8.080  -0.321  27.272  0.00  0.00    +0.013 C 
ENDROOT
BRANCH   1  25
ATOM     25  O   UNL     1       7.972   2.292  26.351  0.00  0.00    -0.347 OA
BRANCH  25  31
ATOM     26  C   UNL     1       8.534   3.865  22.923  0.00  0.00    +0.166 C 
ATOM     27  C   UNL     1       8.399   2.532  22.188  0.00  0.00    +0.233 C 
ATOM     28  C   UNL     1       7.254   1.690  22.789  0.00  0.00    +0.161 C 
ATOM     29  C   UNL     1       5.855   2.234  22.468  0.00  0.00    +0.042 C 
ATOM     30  O   UNL     1       7.463   1.482  24.198  0.00  0.00    -0.345 OA
ATOM     31  C   UNL     1       7.639   2.669  24.981  0.00  0.00    +0.254 C 
ATOM     32  C   UNL     1       8.726   3.585  24.411  0.00  0.00    +0.096 C 
BRANCH  26  34
ATOM     33  C   UNL     1       7.682   6.103  22.923  0.00  0.00    +0.194 C 
ATOM     34  O   UNL     1       7.394   4.718  22.773  0.00  0.00    -0.376 OA
ENDBRANCH  26  34
BRANCH  27  35
ATOM     35  O   UNL     1       9.657   1.844  22.383  0.00  0.00    -0.456 OA
BRANCH  35  36
ATOM     36  C   UNL     1       9.693   0.531  22.049  0.00  0.00    +0.304 C 
ATOM     37  O   UNL     1       9.306   0.060  20.992  0.00  0.00    -0.251 OA
ATOM     38  C   UNL     1      10.255  -0.266  23.190  0.00  0.00    +0.136 C 
ENDBRANCH  35  36
ENDBRANCH  27  35
ENDBRANCH  25  31
ENDBRANCH   1  25
BRANCH  11  39
ATOM     39  O   UNL     1       0.447   4.642  28.704  0.00  0.00    -0.460 OA
BRANCH  39  40
ATOM     40  C   UNL     1       0.443   5.990  28.453  0.00  0.00    +0.304 C 
ATOM     41  O   UNL     1       0.447   6.862  29.315  0.00  0.00    -0.251 OA
ATOM     42  C   UNL     1       0.500   6.305  26.985  0.00  0.00    +0.136 C 
ENDBRANCH  39  40
ENDBRANCH  11  39
BRANCH  22  43
ATOM     43  O   UNL     1       5.567  -1.202  25.765  0.00  0.00    -0.344 OA
BRANCH  43  44
ATOM     44  C   UNL     1       5.538  -2.564  26.210  0.00  0.00    +0.293 C 
ATOM     45  C   UNL     1       4.746  -3.326  25.122  0.00  0.00    +0.249 C 
ATOM     46  C   UNL     1       4.965  -4.870  25.151  0.00  0.00    +0.104 C 
ATOM     47  C   UNL     1       6.474  -5.140  25.355  0.00  0.00    +0.054 C 
ATOM     48  C   UNL     1       7.057  -4.377  26.530  0.00  0.00    +0.120 C 
ATOM     49  C   UNL     1       8.570  -4.581  26.598  0.00  0.00    +0.038 C 
ATOM     50  O   UNL     1       6.867  -2.995  26.339  0.00  0.00    -0.345 OA
BRANCH  46  51
ATOM     51  N   UNL     1       4.513  -5.547  23.890  0.00  0.00    -0.302 NA
ATOM     52  C   UNL     1       4.110  -6.939  24.089  0.00  0.00    +0.105 C 
ATOM     53  C   UNL     1       5.500  -5.480  22.809  0.00  0.00    +0.105 C 
ENDBRANCH  46  51
BRANCH  45  54
ATOM     54  O   UNL     1       3.345  -2.918  25.104  0.00  0.00    -0.455 OA
BRANCH  54  55
ATOM     55  C   UNL     1       2.357  -3.789  25.434  0.00  0.00    +0.304 C 
ATOM     56  O   UNL     1       1.639  -4.374  24.638  0.00  0.00    -0.251 OA
ATOM     57  C   UNL     1       2.249  -3.909  26.926  0.00  0.00    +0.136 C 
ENDBRANCH  54  55
ENDBRANCH  45  54
ENDBRANCH  43  44
ENDBRANCH  22  43
TORSDOF 12
ENDMDL
MODEL 4
REMARK VINA RESULT:      -4.4      2.855      9.276
REMARK  Name = 
REMARK  26 active torsions:
REMARK  status: ('A' for Active; 'I' for Inactive)
REMARK    1  A    between atoms: C_1  and  O_2
REMARK    2  A    between atoms: O_2  and  C_3
REMARK    3  A    between atoms: C_6  and  O_8
REMARK    4  A    between atoms: O_8  and  C_9
REMARK    5  A    between atoms: C_11  and  C_13
REMARK    6  A    between atoms: C_14  and  O_16
REMARK    7  A    between atoms: O_16  and  C_17
REMARK    8  A    between atoms: C_20  and  C_22
REMARK    9  A    between atoms: C_24  and  N_32
REMARK   10  A    between atoms: C_26  and  O_28
REMARK   11  A    between atoms: O_28  and  C_29
REMARK   12  A    between atoms: C_29  and  C_30
REMARK   13  A    between atoms: N_32  and  C_33
REMARK   14  A    between atoms: N_32  and  C_34
REMARK   15  A    between atoms: C_35  and  C_37
REMARK   16  A    between atoms: C_44  and  C_46
REMARK   17  A    between atoms: C_47  and  O_49
REMARK   18  A    between atoms: O_49  and  C_50
REMARK   19  A    between atoms: C_50  and  C_51
REMARK   20  A    between atoms: C_53  and  C_55
REMARK   21  A    between atoms: C_56  and  C_58
REMARK   22  A    between atoms: C_62  and  C_64
REMARK   23  A    between atoms: C_66  and  C_68
REMARK   24  A    between atoms: C_69  and  O_71
REMARK   25  A    between atoms: O_71  and  C_72
REMARK   26  A    between atoms: C_72  and  C_73
REMARK                            x       y       z     vdW  Elec       q    Type
REMARK                         _______ _______ _______ _____ _____    ______ ____
ROOT
ATOM      1  C   UNL     1       5.180   1.441  27.307  0.00  0.00    +0.140 C 
ATOM      2  C   UNL     1       5.326   0.475  28.537  0.00  0.00    +0.124 C 
ATOM      3  C   UNL     1       6.605   0.618  29.372  0.00  0.00    +0.022 C 
ATOM      4  C   UNL     1       4.095   0.251  29.410  0.00  0.00    +0.313 C 
ATOM      5  O   UNL     1       3.666   1.088  30.193  0.00  0.00    -0.250 OA
ATOM      6  O   UNL     1       3.688  -1.064  29.486  0.00  0.00    -0.461 OA
ATOM      7  C   UNL     1       3.051  -1.887  28.437  0.00  0.00    +0.180 C 
ATOM      8  C   UNL     1       2.631  -1.112  27.190  0.00  0.00    +0.052 C 
ATOM      9  C   UNL     1       3.683  -3.355  28.245  0.00  0.00    +0.068 C 
ATOM     10  C   UNL     1       5.040  -3.509  28.985  0.00  0.00    +0.015 C 
ATOM     11  C   UNL     1       3.593  -3.949  26.752  0.00  0.00    +0.193 C 
ATOM     12  C   UNL     1       4.948  -3.989  25.993  0.00  0.00    +0.096 C 
ATOM     13  C   UNL     1       5.755  -5.278  26.133  0.00  0.00    +0.019 C 
ATOM     14  C   UNL     1       4.855  -3.503  24.533  0.00  0.00    +0.173 C 
ATOM     15  O   UNL     1       3.810  -3.543  23.894  0.00  0.00    -0.294 OA
ATOM     16  C   UNL     1       6.071  -2.840  23.908  0.00  0.00    +0.151 C 
ATOM     17  O   UNL     1       6.539  -3.555  22.741  0.00  0.00    -0.360 OA
ATOM     18  C   UNL     1       7.426  -3.536  23.854  0.00  0.00    +0.204 C 
ATOM     19  C   UNL     1       6.079  -1.320  23.701  0.00  0.00    +0.051 C 
ATOM     20  C   UNL     1       6.782  -0.537  24.852  0.00  0.00    +0.018 C 
ATOM     21  C   UNL     1       6.642  -1.306  26.164  0.00  0.00    +0.010 C 
ATOM     22  C   UNL     1       6.245   0.920  25.004  0.00  0.00    +0.130 C 
ATOM     23  C   UNL     1       6.503   1.568  26.436  0.00  0.00    +0.045 C 
ATOM     24  C   UNL     1       7.189   2.937  26.573  0.00  0.00    +0.013 C 
ENDROOT
BRANCH   1  25
ATOM     25  O   UNL     1       4.616   2.731  27.585  0.00  0.00    -0.347 OA
BRANCH  25  31
ATOM     26  C   UNL     1       2.027   4.383  25.325  0.00  0.00    +0.166 C 
ATOM     27  C   UNL     1       1.742   3.094  24.554  0.00  0.00    +0.233 C 
ATOM     28  C   UNL     1       1.690   1.885  25.512  0.00  0.00    +0.161 C 
ATOM     29  C   UNL     1       0.443   1.860  26.406  0.00  0.00    +0.042 C 
ATOM     30  O   UNL     1       2.916   1.778  26.261  0.00  0.00    -0.345 OA
ATOM     31  C   UNL     1       3.298   2.948  26.995  0.00  0.00    +0.254 C 
ATOM     32  C   UNL     1       3.318   4.203  26.118  0.00  0.00    +0.096 C 
BRANCH  26  34
ATOM     33  C   UNL     1       1.058   6.086  26.703  0.00  0.00    +0.194 C 
ATOM     34  O   UNL     1       0.986   4.742  26.242  0.00  0.00    -0.376 OA
ENDBRANCH  26  34
BRANCH  27  35
ATOM     35  O   UNL     1       2.846   2.932  23.633  0.00  0.00    -0.456 OA
BRANCH  35  36
ATOM     36  C   UNL     1       2.617   3.269  22.341  0.00  0.00    +0.304 C 
ATOM     37  O   UNL     1       3.405   3.847  21.612  0.00  0.00    -0.251 OA
ATOM     38  C   UNL     1       1.232   2.848  21.947  0.00  0.00    +0.136 C 
ENDBRANCH  35  36
ENDBRANCH  27  35
ENDBRANCH  25  31
ENDBRANCH   1  25
BRANCH  11  39
ATOM     39  O   UNL     1       3.045  -5.295  26.695  0.00  0.00    -0.460 OA
BRANCH  39  40
ATOM     40  C   UNL     1       1.942  -5.432  25.891  0.00  0.00    +0.304 C 
ATOM     41  O   UNL     1       1.704  -6.411  25.192  0.00  0.00    -0.251 OA
ATOM     42  C   UNL     1       1.000  -4.267  26.000  0.00  0.00    +0.136 C 
ENDBRANCH  39  40
ENDBRANCH  11  39
BRANCH  22  43
ATOM     43  O   UNL     1       6.467   1.722  23.858  0.00  0.00    -0.344 OA
BRANCH  43  44
ATOM     44  C   UNL     1       7.787   1.829  23.308  0.00  0.00    +0.293 C 
ATOM     45  C   UNL     1       8.109   3.341  23.328  0.00  0.00    +0.249 C 
ATOM     46  C   UNL     1       9.631   3.660  23.205  0.00  0.00    +0.104 C 
ATOM     47  C   UNL     1      10.406   2.682  24.119  0.00  0.00    +0.054 C 
ATOM     48  C   UNL     1      10.023   1.232  23.889  0.00  0.00    +0.120 C 
ATOM     49  C   UNL     1      10.722   0.331  24.908  0.00  0.00    +0.038 C 
ATOM     50  O   UNL     1       8.644   1.064  24.114  0.00  0.00    -0.345 OA
BRANCH  46  51
ATOM     51  N   UNL     1       9.965   5.069  23.601  0.00  0.00    -0.302 NA
ATOM     52  C   UNL     1      11.402   5.347  23.603  0.00  0.00    +0.105 C 
ATOM     53  C   UNL     1       9.397   5.459  24.894  0.00  0.00    +0.105 C 
ENDBRANCH  46  51
BRANCH  45  54
ATOM     54  O   UNL     1       7.264   4.074  22.392  0.00  0.00    -0.455 OA
BRANCH  54  55
ATOM     55  C   UNL     1       6.544   5.153  22.796  0.00  0.00    +0.304 C 
ATOM     56  O   UNL     1       5.675   5.140  23.654  0.00  0.00    -0.251 OA
ATOM     57  C   UNL     1       6.946   6.368  22.011  0.00  0.00    +0.136 C 
ENDBRANCH  54  55
ENDBRANCH  45  54
ENDBRANCH  43  44
ENDBRANCH  22  43
TORSDOF 12
ENDMDL
MODEL 5
REMARK VINA RESULT:      -4.3      2.649      6.769
REMARK  Name = 
REMARK  26 active torsions:
REMARK  status: ('A' for Active; 'I' for Inactive)
REMARK    1  A    between atoms: C_1  and  O_2
REMARK    2  A    between atoms: O_2  and  C_3
REMARK    3  A    between atoms: C_6  and  O_8
REMARK    4  A    between atoms: O_8  and  C_9
REMARK    5  A    between atoms: C_11  and  C_13
REMARK    6  A    between atoms: C_14  and  O_16
REMARK    7  A    between atoms: O_16  and  C_17
REMARK    8  A    between atoms: C_20  and  C_22
REMARK    9  A    between atoms: C_24  and  N_32
REMARK   10  A    between atoms: C_26  and  O_28
REMARK   11  A    between atoms: O_28  and  C_29
REMARK   12  A    between atoms: C_29  and  C_30
REMARK   13  A    between atoms: N_32  and  C_33
REMARK   14  A    between atoms: N_32  and  C_34
REMARK   15  A    between atoms: C_35  and  C_37
REMARK   16  A    between atoms: C_44  and  C_46
REMARK   17  A    between atoms: C_47  and  O_49
REMARK   18  A    between atoms: O_49  and  C_50
REMARK   19  A    between atoms: C_50  and  C_51
REMARK   20  A    between atoms: C_53  and  C_55
REMARK   21  A    between atoms: C_56  and  C_58
REMARK   22  A    between atoms: C_62  and  C_64
REMARK   23  A    between atoms: C_66  and  C_68
REMARK   24  A    between atoms: C_69  and  O_71
REMARK   25  A    between atoms: O_71  and  C_72
REMARK   26  A    between atoms: C_72  and  C_73
REMARK                            x       y       z     vdW  Elec       q    Type
REMARK                         _______ _______ _______ _____ _____    ______ ____
ROOT
ATOM      1  C   UNL     1       7.144   0.788  26.743  0.00  0.00    +0.140 C 
ATOM      2  C   UNL     1       6.929   1.769  27.951  0.00  0.00    +0.124 C 
ATOM      3  C   UNL     1       7.803   1.532  29.189  0.00  0.00    +0.022 C 
ATOM      4  C   UNL     1       6.775   3.254  27.636  0.00  0.00    +0.313 C 
ATOM      5  O   UNL     1       7.708   3.969  27.296  0.00  0.00    -0.250 OA
ATOM      6  O   UNL     1       5.583   3.801  28.060  0.00  0.00    -0.461 OA
ATOM      7  C   UNL     1       4.228   3.580  27.512  0.00  0.00    +0.180 C 
ATOM      8  C   UNL     1       4.193   2.797  26.202  0.00  0.00    +0.052 C 
ATOM      9  C   UNL     1       3.090   3.279  28.610  0.00  0.00    +0.068 C 
ATOM     10  C   UNL     1       3.693   2.972  30.008  0.00  0.00    +0.015 C 
ATOM     11  C   UNL     1       1.888   2.335  28.109  0.00  0.00    +0.193 C 
ATOM     12  C   UNL     1       1.908   0.899  28.702  0.00  0.00    +0.096 C 
ATOM     13  C   UNL     1       1.122   0.700  29.996  0.00  0.00    +0.019 C 
ATOM     14  C   UNL     1       1.629  -0.205  27.663  0.00  0.00    +0.173 C 
ATOM     15  O   UNL     1       1.000   0.008  26.633  0.00  0.00    -0.294 OA
ATOM     16  C   UNL     1       2.260  -1.572  27.866  0.00  0.00    +0.151 C 
ATOM     17  O   UNL     1       1.267  -2.617  27.980  0.00  0.00    -0.360 OA
ATOM     18  C   UNL     1       2.047  -2.373  29.145  0.00  0.00    +0.204 C 
ATOM     19  C   UNL     1       3.450  -1.992  26.992  0.00  0.00    +0.051 C 
ATOM     20  C   UNL     1       4.835  -1.730  27.657  0.00  0.00    +0.018 C 
ATOM     21  C   UNL     1       4.740  -0.536  28.604  0.00  0.00    +0.010 C 
ATOM     22  C   UNL     1       5.974  -1.520  26.611  0.00  0.00    +0.130 C 
ATOM     23  C   UNL     1       7.244  -0.738  27.172  0.00  0.00    +0.045 C 
ATOM     24  C   UNL     1       8.659  -1.318  27.023  0.00  0.00    +0.013 C 
ENDROOT
BRANCH   1  25
ATOM     25  O   UNL     1       8.191   1.139  25.827  0.00  0.00    -0.347 OA
BRANCH  25  31
ATOM     26  C   UNL     1       6.406   3.456  23.379  0.00  0.00    +0.166 C 
ATOM     27  C   UNL     1       7.685   3.771  22.602  0.00  0.00    +0.233 C 
ATOM     28  C   UNL     1       8.540   2.499  22.421  0.00  0.00    +0.161 C 
ATOM     29  C   UNL     1       7.947   1.493  21.425  0.00  0.00    +0.042 C 
ATOM     30  O   UNL     1       8.845   1.907  23.697  0.00  0.00    -0.345 OA
ATOM     31  C   UNL     1       7.717   1.603  24.526  0.00  0.00    +0.254 C 
ATOM     32  C   UNL     1       6.788   2.808  24.707  0.00  0.00    +0.096 C 
BRANCH  26  34
ATOM     33  C   UNL     1       4.262   3.143  22.359  0.00  0.00    +0.194 C 
ATOM     34  O   UNL     1       5.521   2.568  22.687  0.00  0.00    -0.376 OA
ENDBRANCH  26  34
BRANCH  27  35
ATOM     35  O   UNL     1       8.410   4.729  23.407  0.00  0.00    -0.456 OA
BRANCH  35  36
ATOM     36  C   UNL     1       7.965   6.008  23.383  0.00  0.00    +0.304 C 
ATOM     37  O   UNL     1       7.934   6.764  24.340  0.00  0.00    -0.251 OA
ATOM     38  C   UNL     1       7.484   6.350  22.003  0.00  0.00    +0.136 C 
ENDBRANCH  35  36
ENDBRANCH  27  35
ENDBRANCH  25  31
ENDBRANCH   1  25
BRANCH  11  39
ATOM     39  O   UNL     1       0.568   2.879  28.384  0.00  0.00    -0.460 OA
BRANCH  39  40
ATOM     40  C   UNL     1       0.465   4.239  28.232  0.00  0.00    +0.304 C 
ATOM     41  O   UNL     1       0.443   5.046  29.154  0.00  0.00    -0.251 OA
ATOM     42  C   UNL     1       0.445   4.658  26.789  0.00  0.00    +0.136 C 
ENDBRANCH  39  40
ENDBRANCH  11  39
BRANCH  22  43
ATOM     43  O   UNL     1       6.196  -2.650  25.788  0.00  0.00    -0.344 OA
BRANCH  43  44
ATOM     44  C   UNL     1       5.466  -2.794  24.562  0.00  0.00    +0.293 C 
ATOM     45  C   UNL     1       6.481  -3.385  23.557  0.00  0.00    +0.249 C 
ATOM     46  C   UNL     1       5.817  -4.042  22.307  0.00  0.00    +0.104 C 
ATOM     47  C   UNL     1       4.609  -4.881  22.787  0.00  0.00    +0.054 C 
ATOM     48  C   UNL     1       3.671  -4.102  23.690  0.00  0.00    +0.120 C 
ATOM     49  C   UNL     1       2.575  -5.018  24.234  0.00  0.00    +0.038 C 
ATOM     50  O   UNL     1       4.374  -3.638  24.817  0.00  0.00    -0.345 OA
BRANCH  46  51
ATOM     51  N   UNL     1       6.757  -4.930  21.546  0.00  0.00    -0.302 NA
ATOM     52  C   UNL     1       6.111  -5.665  20.458  0.00  0.00    +0.105 C 
ATOM     53  C   UNL     1       7.485  -5.872  22.400  0.00  0.00    +0.105 C 
ENDBRANCH  46  51
BRANCH  45  54
ATOM     54  O   UNL     1       7.535  -2.427  23.243  0.00  0.00    -0.455 OA
BRANCH  54  55
ATOM     55  C   UNL     1       8.841  -2.722  23.473  0.00  0.00    +0.304 C 
ATOM     56  O   UNL     1       9.244  -3.607  24.211  0.00  0.00    -0.251 OA
ATOM     57  C   UNL     1       9.726  -1.778  22.712  0.00  0.00    +0.136 C 
ENDBRANCH  54  55
ENDBRANCH  45  54
ENDBRANCH  43  44
ENDBRANCH  22  43
TORSDOF 12
ENDMDL
MODEL 6
REMARK VINA RESULT:      -4.3      3.010      9.371
REMARK  Name = 
REMARK  26 active torsions:
REMARK  status: ('A' for Active; 'I' for Inactive)
REMARK    1  A    between atoms: C_1  and  O_2
REMARK    2  A    between atoms: O_2  and  C_3
REMARK    3  A    between atoms: C_6  and  O_8
REMARK    4  A    between atoms: O_8  and  C_9
REMARK    5  A    between atoms: C_11  and  C_13
REMARK    6  A    between atoms: C_14  and  O_16
REMARK    7  A    between atoms: O_16  and  C_17
REMARK    8  A    between atoms: C_20  and  C_22
REMARK    9  A    between atoms: C_24  and  N_32
REMARK   10  A    between atoms: C_26  and  O_28
REMARK   11  A    between atoms: O_28  and  C_29
REMARK   12  A    between atoms: C_29  and  C_30
REMARK   13  A    between atoms: N_32  and  C_33
REMARK   14  A    between atoms: N_32  and  C_34
REMARK   15  A    between atoms: C_35  and  C_37
REMARK   16  A    between atoms: C_44  and  C_46
REMARK   17  A    between atoms: C_47  and  O_49
REMARK   18  A    between atoms: O_49  and  C_50
REMARK   19  A    between atoms: C_50  and  C_51
REMARK   20  A    between atoms: C_53  and  C_55
REMARK   21  A    between atoms: C_56  and  C_58
REMARK   22  A    between atoms: C_62  and  C_64
REMARK   23  A    between atoms: C_66  and  C_68
REMARK   24  A    between atoms: C_69  and  O_71
REMARK   25  A    between atoms: O_71  and  C_72
REMARK   26  A    between atoms: C_72  and  C_73
REMARK                            x       y       z     vdW  Elec       q    Type
REMARK                         _______ _______ _______ _____ _____    ______ ____
ROOT
ATOM      1  C   UNL     1       4.374   0.613  27.948  0.00  0.00    +0.140 C 
ATOM      2  C   UNL     1       3.883  -0.589  28.831  0.00  0.00    +0.124 C 
ATOM      3  C   UNL     1       4.467  -0.684  30.246  0.00  0.00    +0.022 C 
ATOM      4  C   UNL     1       2.394  -0.925  28.804  0.00  0.00    +0.313 C 
ATOM      5  O   UNL     1       1.543  -0.244  29.360  0.00  0.00    -0.250 OA
ATOM      6  O   UNL     1       2.111  -2.205  28.379  0.00  0.00    -0.461 OA
ATOM      7  C   UNL     1       2.225  -2.763  27.016  0.00  0.00    +0.180 C 
ATOM      8  C   UNL     1       2.514  -1.731  25.929  0.00  0.00    +0.052 C 
ATOM      9  C   UNL     1       2.963  -4.192  26.924  0.00  0.00    +0.068 C 
ATOM     10  C   UNL     1       3.687  -4.562  28.248  0.00  0.00    +0.015 C 
ATOM     11  C   UNL     1       3.761  -4.464  25.554  0.00  0.00    +0.193 C 
ATOM     12  C   UNL     1       5.308  -4.416  25.690  0.00  0.00    +0.096 C 
ATOM     13  C   UNL     1       5.993  -5.746  25.999  0.00  0.00    +0.019 C 
ATOM     14  C   UNL     1       6.006  -3.639  24.557  0.00  0.00    +0.173 C 
ATOM     15  O   UNL     1       5.498  -3.495  23.451  0.00  0.00    -0.294 OA
ATOM     16  C   UNL     1       7.312  -2.925  24.861  0.00  0.00    +0.151 C 
ATOM     17  O   UNL     1       8.400  -3.410  24.041  0.00  0.00    -0.360 OA
ATOM     18  C   UNL     1       8.516  -3.662  25.437  0.00  0.00    +0.204 C 
ATOM     19  C   UNL     1       7.323  -1.396  24.999  0.00  0.00    +0.051 C 
ATOM     20  C   UNL     1       7.208  -0.901  26.472  0.00  0.00    +0.018 C 
ATOM     21  C   UNL     1       6.420  -1.914  27.301  0.00  0.00    +0.010 C 
ATOM     22  C   UNL     1       6.573   0.520  26.582  0.00  0.00    +0.130 C 
ATOM     23  C   UNL     1       5.944   0.849  28.008  0.00  0.00    +0.045 C 
ATOM     24  C   UNL     1       6.336   2.124  28.771  0.00  0.00    +0.013 C 
ENDROOT
BRANCH   1  25
ATOM     25  O   UNL     1       3.657   1.846  28.111  0.00  0.00    -0.347 OA
BRANCH  25  31
ATOM     26  C   UNL     1       0.907   2.961  25.717  0.00  0.00    +0.166 C 
ATOM     27  C   UNL     1       1.409   4.404  25.666  0.00  0.00    +0.233 C 
ATOM     28  C   UNL     1       2.950   4.444  25.597  0.00  0.00    +0.161 C 
ATOM     29  C   UNL     1       3.518   3.990  24.246  0.00  0.00    +0.042 C 
ATOM     30  O   UNL     1       3.526   3.737  26.711  0.00  0.00    -0.345 OA
ATOM     31  C   UNL     1       3.095   2.380  26.874  0.00  0.00    +0.254 C 
ATOM     32  C   UNL     1       1.569   2.254  26.896  0.00  0.00    +0.096 C 
BRANCH  26  34
ATOM     33  C   UNL     1       0.443   2.618  23.392  0.00  0.00    +0.194 C 
ATOM     34  O   UNL     1       1.196   2.214  24.530  0.00  0.00    -0.376 OA
ENDBRANCH  26  34
BRANCH  27  35
ATOM     35  O   UNL     1       0.965   5.020  26.898  0.00  0.00    -0.456 OA
BRANCH  35  36
ATOM     36  C   UNL     1       1.126   6.361  27.003  0.00  0.00    +0.304 C 
ATOM     37  O   UNL     1       1.714   6.934  27.905  0.00  0.00    -0.251 OA
ATOM     38  C   UNL     1       0.443   7.043  25.854  0.00  0.00    +0.136 C 
ENDBRANCH  35  36
ENDBRANCH  27  35
ENDBRANCH  25  31
ENDBRANCH   1  25
BRANCH  11  39
ATOM     39  O   UNL     1       3.438  -5.740  24.937  0.00  0.00    -0.460 OA
BRANCH  39  40
ATOM     40  C   UNL     1       2.911  -5.651  23.674  0.00  0.00    +0.304 C 
ATOM     41  O   UNL     1       3.528  -5.883  22.641  0.00  0.00    -0.251 OA
ATOM     42  C   UNL     1       1.452  -5.294  23.681  0.00  0.00    +0.136 C 
ENDBRANCH  39  40
ENDBRANCH  11  39
BRANCH  22  43
ATOM     43  O   UNL     1       7.335   1.526  25.940  0.00  0.00    -0.344 OA
BRANCH  43  44
ATOM     44  C   UNL     1       6.874   2.090  24.705  0.00  0.00    +0.293 C 
ATOM     45  C   UNL     1       7.208   3.596  24.802  0.00  0.00    +0.249 C 
ATOM     46  C   UNL     1       7.216   4.328  23.424  0.00  0.00    +0.104 C 
ATOM     47  C   UNL     1       7.950   3.427  22.403  0.00  0.00    +0.054 C 
ATOM     48  C   UNL     1       7.420   2.005  22.384  0.00  0.00    +0.120 C 
ATOM     49  C   UNL     1       8.268   1.136  21.456  0.00  0.00    +0.038 C 
ATOM     50  O   UNL     1       7.548   1.434  23.664  0.00  0.00    -0.345 OA
BRANCH  46  51
ATOM     51  N   UNL     1       7.899   5.663  23.477  0.00  0.00    -0.302 NA
ATOM     52  C   UNL     1       7.664   6.484  22.289  0.00  0.00    +0.105 C 
ATOM     53  C   UNL     1       9.340   5.570  23.722  0.00  0.00    +0.105 C 
ENDBRANCH  46  51
BRANCH  45  54
ATOM     54  O   UNL     1       6.401   4.252  25.826  0.00  0.00    -0.455 OA
BRANCH  54  55
ATOM     55  C   UNL     1       6.929   5.219  26.620  0.00  0.00    +0.304 C 
ATOM     56  O   UNL     1       7.988   5.137  27.222  0.00  0.00    -0.251 OA
ATOM     57  C   UNL     1       6.004   6.400  26.683  0.00  0.00    +0.136 C 
ENDBRANCH  54  55
ENDBRANCH  45  54
ENDBRANCH  43  44
ENDBRANCH  22  43
TORSDOF 12
ENDMDL
MODEL 7
REMARK VINA RESULT:      -4.0      2.838      9.086
REMARK  Name = 
REMARK  26 active torsions:
REMARK  status: ('A' for Active; 'I' for Inactive)
REMARK    1  A    between atoms: C_1  and  O_2
REMARK    2  A    between atoms: O_2  and  C_3
REMARK    3  A    between atoms: C_6  and  O_8
REMARK    4  A    between atoms: O_8  and  C_9
REMARK    5  A    between atoms: C_11  and  C_13
REMARK    6  A    between atoms: C_14  and  O_16
REMARK    7  A    between atoms: O_16  and  C_17
REMARK    8  A    between atoms: C_20  and  C_22
REMARK    9  A    between atoms: C_24  and  N_32
REMARK   10  A    between atoms: C_26  and  O_28
REMARK   11  A    between atoms: O_28  and  C_29
REMARK   12  A    between atoms: C_29  and  C_30
REMARK   13  A    between atoms: N_32  and  C_33
REMARK   14  A    between atoms: N_32  and  C_34
REMARK   15  A    between atoms: C_35  and  C_37
REMARK   16  A    between atoms: C_44  and  C_46
REMARK   17  A    between atoms: C_47  and  O_49
REMARK   18  A    between atoms: O_49  and  C_50
REMARK   19  A    between atoms: C_50  and  C_51
REMARK   20  A    between atoms: C_53  and  C_55
REMARK   21  A    between atoms: C_56  and  C_58
REMARK   22  A    between atoms: C_62  and  C_64
REMARK   23  A    between atoms: C_66  and  C_68
REMARK   24  A    between atoms: C_69  and  O_71
REMARK   25  A    between atoms: O_71  and  C_72
REMARK   26  A    between atoms: C_72  and  C_73
REMARK                            x       y       z     vdW  Elec       q    Type
REMARK                         _______ _______ _______ _____ _____    ______ ____
ROOT
ATOM      1  C   UNL     1       3.579  -0.211  28.072  0.00  0.00    +0.140 C 
ATOM      2  C   UNL     1       2.722  -1.261  28.866  0.00  0.00    +0.124 C 
ATOM      3  C   UNL     1       3.038  -1.414  30.360  0.00  0.00    +0.022 C 
ATOM      4  C   UNL     1       1.222  -1.301  28.593  0.00  0.00    +0.313 C 
ATOM      5  O   UNL     1       0.443  -0.447  28.996  0.00  0.00    -0.250 OA
ATOM      6  O   UNL     1       0.763  -2.516  28.133  0.00  0.00    -0.461 OA
ATOM      7  C   UNL     1       0.985  -3.137  26.811  0.00  0.00    +0.180 C 
ATOM      8  C   UNL     1       1.645  -2.222  25.782  0.00  0.00    +0.052 C 
ATOM      9  C   UNL     1       1.429  -4.685  26.850  0.00  0.00    +0.068 C 
ATOM     10  C   UNL     1       1.840  -5.138  28.278  0.00  0.00    +0.015 C 
ATOM     11  C   UNL     1       2.369  -5.158  25.634  0.00  0.00    +0.193 C 
ATOM     12  C   UNL     1       3.852  -5.407  26.026  0.00  0.00    +0.096 C 
ATOM     13  C   UNL     1       4.200  -6.832  26.451  0.00  0.00    +0.019 C 
ATOM     14  C   UNL     1       4.865  -4.824  25.021  0.00  0.00    +0.173 C 
ATOM     15  O   UNL     1       4.583  -4.626  23.845  0.00  0.00    -0.294 OA
ATOM     16  C   UNL     1       6.220  -4.367  25.536  0.00  0.00    +0.151 C 
ATOM     17  O   UNL     1       7.308  -5.085  24.911  0.00  0.00    -0.360 OA
ATOM     18  C   UNL     1       7.143  -5.303  26.308  0.00  0.00    +0.204 C 
ATOM     19  C   UNL     1       6.511  -2.866  25.666  0.00  0.00    +0.051 C 
ATOM     20  C   UNL     1       6.258  -2.303  27.098  0.00  0.00    +0.018 C 
ATOM     21  C   UNL     1       5.161  -3.111  27.788  0.00  0.00    +0.010 C 
ATOM     22  C   UNL     1       5.908  -0.782  27.093  0.00  0.00    +0.130 C 
ATOM     23  C   UNL     1       5.133  -0.284  28.393  0.00  0.00    +0.045 C 
ATOM     24  C   UNL     1       5.642   0.918  29.204  0.00  0.00    +0.013 C 
ENDROOT
BRANCH   1  25
ATOM     25  O   UNL     1       3.105   1.143  28.108  0.00  0.00    -0.347 OA
BRANCH  25  31
ATOM     26  C   UNL     1       1.323   3.195  25.433  0.00  0.00    +0.166 C 
ATOM     27  C   UNL     1       2.478   4.186  25.293  0.00  0.00    +0.233 C 
ATOM     28  C   UNL     1       3.835   3.452  25.332  0.00  0.00    +0.161 C 
ATOM     29  C   UNL     1       4.127   2.629  24.070  0.00  0.00    +0.042 C 
ATOM     30  O   UNL     1       3.960   2.681  26.542  0.00  0.00    -0.345 OA
ATOM     31  C   UNL     1       2.907   1.743  26.792  0.00  0.00    +0.254 C 
ATOM     32  C   UNL     1       1.522   2.391  26.715  0.00  0.00    +0.096 C 
BRANCH  26  34
ATOM     33  C   UNL     1       0.464   2.763  23.239  0.00  0.00    +0.194 C 
ATOM     34  O   UNL     1       1.223   2.276  24.340  0.00  0.00    -0.376 OA
ENDBRANCH  26  34
BRANCH  27  35
ATOM     35  O   UNL     1       2.378   5.074  26.431  0.00  0.00    -0.456 OA
BRANCH  35  36
ATOM     36  C   UNL     1       2.830   6.339  26.260  0.00  0.00    +0.304 C 
ATOM     37  O   UNL     1       3.514   6.959  27.058  0.00  0.00    -0.251 OA
ATOM     38  C   UNL     1       2.337   6.880  24.950  0.00  0.00    +0.136 C 
ENDBRANCH  35  36
ENDBRANCH  27  35
ENDBRANCH  25  31
ENDBRANCH   1  25
BRANCH  11  39
ATOM     39  O   UNL     1       1.904  -6.369  24.978  0.00  0.00    -0.460 OA
BRANCH  39  40
ATOM     40  C   UNL     1       1.657  -6.236  23.635  0.00  0.00    +0.304 C 
ATOM     41  O   UNL     1       2.033  -7.023  22.774  0.00  0.00    -0.251 OA
ATOM     42  C   UNL     1       0.805  -5.040  23.321  0.00  0.00    +0.136 C 
ENDBRANCH  39  40
ENDBRANCH  11  39
BRANCH  22  43
ATOM     43  O   UNL     1       6.949   0.031  26.583  0.00  0.00    -0.344 OA
BRANCH  43  44
ATOM     44  C   UNL     1       6.898   0.484  25.224  0.00  0.00    +0.293 C 
ATOM     45  C   UNL     1       8.291   1.097  24.952  0.00  0.00    +0.249 C 
ATOM     46  C   UNL     1       8.628   1.244  23.436  0.00  0.00    +0.104 C 
ATOM     47  C   UNL     1       8.189  -0.053  22.715  0.00  0.00    +0.054 C 
ATOM     48  C   UNL     1       6.757  -0.447  23.031  0.00  0.00    +0.120 C 
ATOM     49  C   UNL     1       6.427  -1.798  22.398  0.00  0.00    +0.038 C 
ATOM     50  O   UNL     1       6.610  -0.629  24.418  0.00  0.00    -0.345 OA
BRANCH  46  51
ATOM     51  N   UNL     1      10.089   1.472  23.183  0.00  0.00    -0.302 NA
ATOM     52  C   UNL     1      10.961   0.731  24.095  0.00  0.00    +0.105 C 
ATOM     53  C   UNL     1      10.467   2.888  23.198  0.00  0.00    +0.105 C 
ENDBRANCH  46  51
BRANCH  45  54
ATOM     54  O   UNL     1       8.496   2.312  25.733  0.00  0.00    -0.455 OA
BRANCH  54  55
ATOM     55  C   UNL     1       7.642   3.363  25.631  0.00  0.00    +0.304 C 
ATOM     56  O   UNL     1       7.336   3.924  24.591  0.00  0.00    -0.251 OA
ATOM     57  C   UNL     1       7.149   3.765  26.991  0.00  0.00    +0.136 C 
ENDBRANCH  54  55
ENDBRANCH  45  54
ENDBRANCH  43  44
ENDBRANCH  22  43
TORSDOF 12
ENDMDL
MODEL 8
REMARK VINA RESULT:      -3.8      2.769      6.770
REMARK  Name = 
REMARK  26 active torsions:
REMARK  status: ('A' for Active; 'I' for Inactive)
REMARK    1  A    between atoms: C_1  and  O_2
REMARK    2  A    between atoms: O_2  and  C_3
REMARK    3  A    between atoms: C_6  and  O_8
REMARK    4  A    between atoms: O_8  and  C_9
REMARK    5  A    between atoms: C_11  and  C_13
REMARK    6  A    between atoms: C_14  and  O_16
REMARK    7  A    between atoms: O_16  and  C_17
REMARK    8  A    between atoms: C_20  and  C_22
REMARK    9  A    between atoms: C_24  and  N_32
REMARK   10  A    between atoms: C_26  and  O_28
REMARK   11  A    between atoms: O_28  and  C_29
REMARK   12  A    between atoms: C_29  and  C_30
REMARK   13  A    between atoms: N_32  and  C_33
REMARK   14  A    between atoms: N_32  and  C_34
REMARK   15  A    between atoms: C_35  and  C_37
REMARK   16  A    between atoms: C_44  and  C_46
REMARK   17  A    between atoms: C_47  and  O_49
REMARK   18  A    between atoms: O_49  and  C_50
REMARK   19  A    between atoms: C_50  and  C_51
REMARK   20  A    between atoms: C_53  and  C_55
REMARK   21  A    between atoms: C_56  and  C_58
REMARK   22  A    between atoms: C_62  and  C_64
REMARK   23  A    between atoms: C_66  and  C_68
REMARK   24  A    between atoms: C_69  and  O_71
REMARK   25  A    between atoms: O_71  and  C_72
REMARK   26  A    between atoms: C_72  and  C_73
REMARK                            x       y       z     vdW  Elec       q    Type
REMARK                         _______ _______ _______ _____ _____    ______ ____
ROOT
ATOM      1  C   UNL     1       6.726   1.417  26.959  0.00  0.00    +0.140 C 
ATOM      2  C   UNL     1       6.635   2.272  28.274  0.00  0.00    +0.124 C 
ATOM      3  C   UNL     1       7.461   1.779  29.469  0.00  0.00    +0.022 C 
ATOM      4  C   UNL     1       6.680   3.790  28.135  0.00  0.00    +0.313 C 
ATOM      5  O   UNL     1       7.701   4.410  27.873  0.00  0.00    -0.250 OA
ATOM      6  O   UNL     1       5.567   4.437  28.629  0.00  0.00    -0.461 OA
ATOM      7  C   UNL     1       4.199   4.461  28.071  0.00  0.00    +0.180 C 
ATOM      8  C   UNL     1       4.070   3.847  26.680  0.00  0.00    +0.052 C 
ATOM      9  C   UNL     1       3.023   4.188  29.137  0.00  0.00    +0.068 C 
ATOM     10  C   UNL     1       3.571   3.643  30.485  0.00  0.00    +0.015 C 
ATOM     11  C   UNL     1       1.711   3.474  28.539  0.00  0.00    +0.193 C 
ATOM     12  C   UNL     1       1.537   1.989  28.961  0.00  0.00    +0.096 C 
ATOM     13  C   UNL     1       0.723   1.746  30.230  0.00  0.00    +0.019 C 
ATOM     14  C   UNL     1       1.122   1.060  27.804  0.00  0.00    +0.173 C 
ATOM     15  O   UNL     1       0.534   1.473  26.811  0.00  0.00    -0.294 OA
ATOM     16  C   UNL     1       1.566  -0.392  27.841  0.00  0.00    +0.151 C 
ATOM     17  O   UNL     1       0.443  -1.303  27.841  0.00  0.00    -0.360 OA
ATOM     18  C   UNL     1       1.240  -1.302  29.020  0.00  0.00    +0.204 C 
ATOM     19  C   UNL     1       2.696  -0.861  26.915  0.00  0.00    +0.051 C 
ATOM     20  C   UNL     1       4.100  -0.863  27.593  0.00  0.00    +0.018 C 
ATOM     21  C   UNL     1       4.156   0.214  28.673  0.00  0.00    +0.010 C 
ATOM     22  C   UNL     1       5.264  -0.685  26.569  0.00  0.00    +0.130 C 
ATOM     23  C   UNL     1       6.621  -0.148  27.207  0.00  0.00    +0.045 C 
ATOM     24  C   UNL     1       7.949  -0.888  26.979  0.00  0.00    +0.013 C 
ENDROOT
BRANCH   1  25
ATOM     25  O   UNL     1       7.817   1.732  26.080  0.00  0.00    -0.347 OA
BRANCH  25  31
ATOM     26  C   UNL     1       6.336   3.785  23.228  0.00  0.00    +0.166 C 
ATOM     27  C   UNL     1       7.651   3.824  22.451  0.00  0.00    +0.233 C 
ATOM     28  C   UNL     1       8.361   2.455  22.509  0.00  0.00    +0.161 C 
ATOM     29  C   UNL     1       7.671   1.367  21.675  0.00  0.00    +0.042 C 
ATOM     30  O   UNL     1       8.581   2.055  23.875  0.00  0.00    -0.345 OA
ATOM     31  C   UNL     1       7.415   2.020  24.706  0.00  0.00    +0.254 C 
ATOM     32  C   UNL     1       6.625   3.331  24.656  0.00  0.00    +0.096 C 
BRANCH  26  34
ATOM     33  C   UNL     1       4.033   3.393  22.698  0.00  0.00    +0.194 C 
ATOM     34  O   UNL     1       5.365   2.895  22.665  0.00  0.00    -0.376 OA
ENDBRANCH  26  34
BRANCH  27  35
ATOM     35  O   UNL     1       8.470   4.819  23.108  0.00  0.00    -0.456 OA
BRANCH  35  36
ATOM     36  C   UNL     1       8.092   6.112  22.966  0.00  0.00    +0.304 C 
ATOM     37  O   UNL     1       7.609   6.600  21.957  0.00  0.00    -0.251 OA
ATOM     38  C   UNL     1       8.383   6.867  24.230  0.00  0.00    +0.136 C 
ENDBRANCH  35  36
ENDBRANCH  27  35
ENDBRANCH  25  31
ENDBRANCH   1  25
BRANCH  11  39
ATOM     39  O   UNL     1       0.472   4.152  28.887  0.00  0.00    -0.460 OA
BRANCH  39  40
ATOM     40  C   UNL     1       0.475   5.505  28.659  0.00  0.00    +0.304 C 
ATOM     41  O   UNL     1       0.451   6.027  27.550  0.00  0.00    -0.251 OA
ATOM     42  C   UNL     1       0.443   6.305  29.930  0.00  0.00    +0.136 C 
ENDBRANCH  39  40
ENDBRANCH  11  39
BRANCH  22  43
ATOM     43  O   UNL     1       5.340  -1.731  25.618  0.00  0.00    -0.344 OA
BRANCH  43  44
ATOM     44  C   UNL     1       5.353  -3.095  26.059  0.00  0.00    +0.293 C 
ATOM     45  C   UNL     1       4.317  -3.816  25.166  0.00  0.00    +0.249 C 
ATOM     46  C   UNL     1       4.476  -5.367  25.146  0.00  0.00    +0.104 C 
ATOM     47  C   UNL     1       5.982  -5.698  25.023  0.00  0.00    +0.054 C 
ATOM     48  C   UNL     1       6.832  -4.968  26.047  0.00  0.00    +0.120 C 
ATOM     49  C   UNL     1       8.315  -5.232  25.791  0.00  0.00    +0.038 C 
ATOM     50  O   UNL     1       6.661  -3.579  25.901  0.00  0.00    -0.345 OA
BRANCH  46  51
ATOM     51  N   UNL     1       3.739  -6.015  24.011  0.00  0.00    -0.302 NA
ATOM     52  C   UNL     1       3.372  -7.407  24.274  0.00  0.00    +0.105 C 
ATOM     53  C   UNL     1       4.455  -5.938  22.734  0.00  0.00    +0.105 C 
ENDBRANCH  46  51
BRANCH  45  54
ATOM     54  O   UNL     1       2.962  -3.354  25.447  0.00  0.00    -0.455 OA
BRANCH  54  55
ATOM     55  C   UNL     1       2.020  -4.201  25.936  0.00  0.00    +0.304 C 
ATOM     56  O   UNL     1       1.047  -4.604  25.320  0.00  0.00    -0.251 OA
ATOM     57  C   UNL     1       2.328  -4.549  27.364  0.00  0.00    +0.136 C 
ENDBRANCH  54  55
ENDBRANCH  45  54
ENDBRANCH  43  44
ENDBRANCH  22  43
TORSDOF 12
ENDMDL
MODEL 9
REMARK VINA RESULT:      -3.5      2.635      8.570
REMARK  Name = 
REMARK  26 active torsions:
REMARK  status: ('A' for Active; 'I' for Inactive)
REMARK    1  A    between atoms: C_1  and  O_2
REMARK    2  A    between atoms: O_2  and  C_3
REMARK    3  A    between atoms: C_6  and  O_8
REMARK    4  A    between atoms: O_8  and  C_9
REMARK    5  A    between atoms: C_11  and  C_13
REMARK    6  A    between atoms: C_14  and  O_16
REMARK    7  A    between atoms: O_16  and  C_17
REMARK    8  A    between atoms: C_20  and  C_22
REMARK    9  A    between atoms: C_24  and  N_32
REMARK   10  A    between atoms: C_26  and  O_28
REMARK   11  A    between atoms: O_28  and  C_29
REMARK   12  A    between atoms: C_29  and  C_30
REMARK   13  A    between atoms: N_32  and  C_33
REMARK   14  A    between atoms: N_32  and  C_34
REMARK   15  A    between atoms: C_35  and  C_37
REMARK   16  A    between atoms: C_44  and  C_46
REMARK   17  A    between atoms: C_47  and  O_49
REMARK   18  A    between atoms: O_49  and  C_50
REMARK   19  A    between atoms: C_50  and  C_51
REMARK   20  A    between atoms: C_53  and  C_55
REMARK   21  A    between atoms: C_56  and  C_58
REMARK   22  A    between atoms: C_62  and  C_64
REMARK   23  A    between atoms: C_66  and  C_68
REMARK   24  A    between atoms: C_69  and  O_71
REMARK   25  A    between atoms: O_71  and  C_72
REMARK   26  A    between atoms: C_72  and  C_73
REMARK                            x       y       z     vdW  Elec       q    Type
REMARK                         _______ _______ _______ _____ _____    ______ ____
ROOT
ATOM      1  C   UNL     1       6.972  -0.525  25.349  0.00  0.00    +0.140 C 
ATOM      2  C   UNL     1       7.046  -1.728  24.341  0.00  0.00    +0.124 C 
ATOM      3  C   UNL     1       6.552  -1.457  22.914  0.00  0.00    +0.022 C 
ATOM      4  C   UNL     1       8.308  -2.585  24.355  0.00  0.00    +0.313 C 
ATOM      5  O   UNL     1       9.379  -2.211  23.897  0.00  0.00    -0.250 OA
ATOM      6  O   UNL     1       8.084  -3.916  24.632  0.00  0.00    -0.461 OA
ATOM      7  C   UNL     1       7.695  -4.530  25.919  0.00  0.00    +0.180 C 
ATOM      8  C   UNL     1       7.736  -3.580  27.114  0.00  0.00    +0.052 C 
ATOM      9  C   UNL     1       6.487  -5.591  25.830  0.00  0.00    +0.068 C 
ATOM     10  C   UNL     1       5.757  -5.533  24.460  0.00  0.00    +0.015 C 
ATOM     11  C   UNL     1       5.565  -5.690  27.145  0.00  0.00    +0.193 C 
ATOM     12  C   UNL     1       4.151  -5.066  26.988  0.00  0.00    +0.096 C 
ATOM     13  C   UNL     1       3.051  -6.014  26.514  0.00  0.00    +0.019 C 
ATOM     14  C   UNL     1       3.715  -4.207  28.192  0.00  0.00    +0.173 C 
ATOM     15  O   UNL     1       4.174  -4.373  29.316  0.00  0.00    -0.294 OA
ATOM     16  C   UNL     1       2.776  -3.038  27.949  0.00  0.00    +0.151 C 
ATOM     17  O   UNL     1       1.540  -3.172  28.688  0.00  0.00    -0.360 OA
ATOM     18  C   UNL     1       1.424  -3.221  27.270  0.00  0.00    +0.204 C 
ATOM     19  C   UNL     1       3.327  -1.606  27.991  0.00  0.00    +0.051 C 
ATOM     20  C   UNL     1       3.700  -1.040  26.587  0.00  0.00    +0.018 C 
ATOM     21  C   UNL     1       4.116  -2.180  25.660  0.00  0.00    +0.010 C 
ATOM     22  C   UNL     1       4.811   0.053  26.655  0.00  0.00    +0.130 C 
ATOM     23  C   UNL     1       5.600   0.273  25.288  0.00  0.00    +0.045 C 
ATOM     24  C   UNL     1       5.740   1.674  24.672  0.00  0.00    +0.013 C 
ENDROOT
BRANCH   1  25
ATOM     25  O   UNL     1       8.094   0.369  25.343  0.00  0.00    -0.347 OA
BRANCH  25  31
ATOM     26  C   UNL     1       8.637   3.295  22.958  0.00  0.00    +0.166 C 
ATOM     27  C   UNL     1      10.028   2.817  22.541  0.00  0.00    +0.233 C 
ATOM     28  C   UNL     1      10.045   1.285  22.355  0.00  0.00    +0.161 C 
ATOM     29  C   UNL     1       9.289   0.807  21.107  0.00  0.00    +0.042 C 
ATOM     30  O   UNL     1       9.611   0.623  23.558  0.00  0.00    -0.345 OA
ATOM     31  C   UNL     1       8.330   1.024  24.059  0.00  0.00    +0.254 C 
ATOM     32  C   UNL     1       8.219   2.543  24.219  0.00  0.00    +0.096 C 
BRANCH  26  34
ATOM     33  C   UNL     1       6.503   3.934  22.078  0.00  0.00    +0.194 C 
ATOM     34  O   UNL     1       7.636   3.081  21.958  0.00  0.00    -0.376 OA
ENDBRANCH  26  34
BRANCH  27  35
ATOM     35  O   UNL     1      10.913   3.180  23.627  0.00  0.00    -0.456 OA
BRANCH  35  36
ATOM     36  C   UNL     1      11.591   4.346  23.498  0.00  0.00    +0.304 C 
ATOM     37  O   UNL     1      12.689   4.470  22.982  0.00  0.00    -0.251 OA
ATOM     38  C   UNL     1      10.799   5.462  24.114  0.00  0.00    +0.136 C 
ENDBRANCH  35  36
ENDBRANCH  27  35
ENDBRANCH  25  31
ENDBRANCH   1  25
BRANCH  11  39
ATOM     39  O   UNL     1       5.368  -7.053  27.614  0.00  0.00    -0.460 OA
BRANCH  39  40
ATOM     40  C   UNL     1       5.268  -7.182  28.976  0.00  0.00    +0.304 C 
ATOM     41  O   UNL     1       4.272  -7.579  29.570  0.00  0.00    -0.251 OA
ATOM     42  C   UNL     1       6.549  -6.842  29.684  0.00  0.00    +0.136 C 
ENDBRANCH  39  40
ENDBRANCH  11  39
BRANCH  22  43
ATOM     43  O   UNL     1       4.428   1.198  27.396  0.00  0.00    -0.344 OA
BRANCH  43  44
ATOM     44  C   UNL     1       5.423   2.139  27.819  0.00  0.00    +0.293 C 
ATOM     45  C   UNL     1       4.630   3.309  28.444  0.00  0.00    +0.249 C 
ATOM     46  C   UNL     1       5.488   4.228  29.367  0.00  0.00    +0.104 C 
ATOM     47  C   UNL     1       6.382   3.327  30.252  0.00  0.00    +0.054 C 
ATOM     48  C   UNL     1       7.159   2.298  29.450  0.00  0.00    +0.120 C 
ATOM     49  C   UNL     1       7.916   1.358  30.386  0.00  0.00    +0.038 C 
ATOM     50  O   UNL     1       6.264   1.483  28.732  0.00  0.00    -0.345 OA
BRANCH  46  51
ATOM     51  N   UNL     1       4.655   5.108  30.251  0.00  0.00    -0.302 NA
ATOM     52  C   UNL     1       3.307   4.589  30.485  0.00  0.00    +0.105 C 
ATOM     53  C   UNL     1       4.563   6.491  29.775  0.00  0.00    +0.105 C 
ENDBRANCH  46  51
BRANCH  45  54
ATOM     54  O   UNL     1       3.858   4.024  27.434  0.00  0.00    -0.455 OA
BRANCH  54  55
ATOM     55  C   UNL     1       4.465   4.594  26.361  0.00  0.00    +0.304 C 
ATOM     56  O   UNL     1       5.513   5.219  26.395  0.00  0.00    -0.251 OA
ATOM     57  C   UNL     1       3.644   4.375  25.124  0.00  0.00    +0.136 C 
ENDBRANCH  54  55
ENDBRANCH  45  54
ENDBRANCH  43  44
ENDBRANCH  22  43
TORSDOF 12
ENDMDL
