MODEL 1
REMARK VINA RESULT:      -3.5      0.000      0.000
REMARK  Name = 
REMARK  2 active torsions:
REMARK  status: ('A' for Active; 'I' for Inactive)
REMARK    1  A    between atoms: C_1  and  C_2
REMARK    2  A    between atoms: N_4  and  O_5
REMARK                            x       y       z     vdW  Elec       q    Type
REMARK                         _______ _______ _______ _____ _____    ______ ____
ROOT
ATOM      1  C   UNL     1      10.733   5.996  23.772  0.00  0.00    +0.111 C 
ATOM      2  C   UNL     1      11.928   5.136  23.482  0.00  0.00    +0.232 C 
ATOM      3  N   UNL     1      13.109   5.828  23.418  0.00  0.00    -0.198 N 
ATOM      4  H   UNL     1      13.217   6.827  23.550  0.00  0.00    +0.182 HD
ATOM      5  O   UNL     1      11.866   3.921  23.315  0.00  0.00    -0.274 OA
ENDROOT
BRANCH   3   6
ATOM      6  O   UNL     1      14.272   5.075  23.149  0.00  0.00    -0.295 OA
ATOM      7  H   UNL     1      13.942   4.151  23.215  0.00  0.00    +0.241 HD
ENDBRANCH   3   6
TORSDOF 1
ENDMDL
MODEL 2
REMARK VINA RESULT:      -3.0      4.499      4.933
REMARK  Name = 
REMARK  2 active torsions:
REMARK  status: ('A' for Active; 'I' for Inactive)
REMARK    1  A    between atoms: C_1  and  C_2
REMARK    2  A    between atoms: N_4  and  O_5
REMARK                            x       y       z     vdW  Elec       q    Type
REMARK                         _______ _______ _______ _____ _____    ______ ____
ROOT
ATOM      1  C   UNL     1       9.375  -0.077  21.362  0.00  0.00    +0.111 C 
ATOM      2  C   UNL     1      10.023   0.934  22.261  0.00  0.00    +0.232 C 
ATOM      3  N   UNL     1      10.110   2.188  21.717  0.00  0.00    -0.198 N 
ATOM      4  H   UNL     1       9.779   2.458  20.798  0.00  0.00    +0.182 HD
ATOM      5  O   UNL     1      10.443   0.673  23.386  0.00  0.00    -0.274 OA
ENDROOT
BRANCH   3   6
ATOM      6  O   UNL     1      10.710   3.186  22.514  0.00  0.00    -0.295 OA
ATOM      7  H   UNL     1       9.980   3.431  23.125  0.00  0.00    +0.241 HD
ENDBRANCH   3   6
TORSDOF 1
ENDMDL
MODEL 3
REMARK VINA RESULT:      -2.9      5.716      6.193
REMARK  Name = 
REMARK  2 active torsions:
REMARK  status: ('A' for Active; 'I' for Inactive)
REMARK    1  A    between atoms: C_1  and  C_2
REMARK    2  A    between atoms: N_4  and  O_5
REMARK                            x       y       z     vdW  Elec       q    Type
REMARK                         _______ _______ _______ _____ _____    ______ ____
ROOT
ATOM      1  C   UNL     1       8.720   1.664  21.512  0.00  0.00    +0.111 C 
ATOM      2  C   UNL     1       9.623   0.552  21.960  0.00  0.00    +0.232 C 
ATOM      3  N   UNL     1       9.534  -0.580  21.193  0.00  0.00    -0.198 N 
ATOM      4  H   UNL     1       8.933  -0.702  20.387  0.00  0.00    +0.182 HD
ATOM      5  O   UNL     1      10.377   0.636  22.926  0.00  0.00    -0.274 OA
ENDROOT
BRANCH   3   6
ATOM      6  O   UNL     1      10.360  -1.663  21.563  0.00  0.00    -0.295 OA
ATOM      7  H   UNL     1      11.226  -1.407  21.174  0.00  0.00    +0.241 HD
ENDBRANCH   3   6
TORSDOF 1
ENDMDL
MODEL 4
REMARK VINA RESULT:      -2.9      4.136      4.571
REMARK  Name = 
REMARK  2 active torsions:
REMARK  status: ('A' for Active; 'I' for Inactive)
REMARK    1  A    between atoms: C_1  and  C_2
REMARK    2  A    between atoms: N_4  and  O_5
REMARK                            x       y       z     vdW  Elec       q    Type
REMARK                         _______ _______ _______ _____ _____    ______ ____
ROOT
ATOM      1  C   UNL     1      10.975   3.357  23.388  0.00  0.00    +0.111 C 
ATOM      2  C   UNL     1      10.083   2.241  22.932  0.00  0.00    +0.232 C 
ATOM      3  N   UNL     1       9.891   2.201  21.576  0.00  0.00    -0.198 N 
ATOM      4  H   UNL     1      10.295   2.840  20.903  0.00  0.00    +0.182 HD
ATOM      5  O   UNL     1       9.564   1.430  23.696  0.00  0.00    -0.274 OA
ENDROOT
BRANCH   3   6
ATOM      6  O   UNL     1       9.061   1.171  21.083  0.00  0.00    -0.295 OA
ATOM      7  H   UNL     1       9.660   0.699  20.463  0.00  0.00    +0.241 HD
ENDBRANCH   3   6
TORSDOF 1
ENDMDL
MODEL 5
REMARK VINA RESULT:      -2.9     11.822     12.137
REMARK  Name = 
REMARK  2 active torsions:
REMARK  status: ('A' for Active; 'I' for Inactive)
REMARK    1  A    between atoms: C_1  and  C_2
REMARK    2  A    between atoms: N_4  and  O_5
REMARK                            x       y       z     vdW  Elec       q    Type
REMARK                         _______ _______ _______ _____ _____    ______ ____
ROOT
ATOM      1  C   UNL     1       8.505  -4.891  24.551  0.00  0.00    +0.111 C 
ATOM      2  C   UNL     1       7.621  -5.283  25.698  0.00  0.00    +0.232 C 
ATOM      3  N   UNL     1       8.302  -5.730  26.799  0.00  0.00    -0.198 N 
ATOM      4  H   UNL     1       9.309  -5.805  26.881  0.00  0.00    +0.182 HD
ATOM      5  O   UNL     1       6.394  -5.214  25.665  0.00  0.00    -0.274 OA
ENDROOT
BRANCH   3   6
ATOM      6  O   UNL     1       7.525  -6.113  27.914  0.00  0.00    -0.295 OA
ATOM      7  H   UNL     1       6.719  -5.562  27.805  0.00  0.00    +0.241 HD
ENDBRANCH   3   6
TORSDOF 1
ENDMDL
MODEL 6
REMARK VINA RESULT:      -2.8     11.233     11.300
REMARK  Name = 
REMARK  2 active torsions:
REMARK  status: ('A' for Active; 'I' for Inactive)
REMARK    1  A    between atoms: C_1  and  C_2
REMARK    2  A    between atoms: N_4  and  O_5
REMARK                            x       y       z     vdW  Elec       q    Type
REMARK                         _______ _______ _______ _____ _____    ______ ____
ROOT
ATOM      1  C   UNL     1       6.786  -5.031  25.528  0.00  0.00    +0.111 C 
ATOM      2  C   UNL     1       8.213  -5.167  25.084  0.00  0.00    +0.232 C 
ATOM      3  N   UNL     1       9.094  -5.400  26.106  0.00  0.00    -0.198 N 
ATOM      4  H   UNL     1       8.854  -5.484  27.086  0.00  0.00    +0.182 HD
ATOM      5  O   UNL     1       8.571  -5.079  23.912  0.00  0.00    -0.274 OA
ENDROOT
BRANCH   3   6
ATOM      6  O   UNL     1      10.454  -5.540  25.753  0.00  0.00    -0.295 OA
ATOM      7  H   UNL     1      10.893  -4.905  26.361  0.00  0.00    +0.241 HD
ENDBRANCH   3   6
TORSDOF 1
ENDMDL
MODEL 7
REMARK VINA RESULT:      -2.8      4.644      4.919
REMARK  Name = 
REMARK  2 active torsions:
REMARK  status: ('A' for Active; 'I' for Inactive)
REMARK    1  A    between atoms: C_1  and  C_2
REMARK    2  A    between atoms: N_4  and  O_5
REMARK                            x       y       z     vdW  Elec       q    Type
REMARK                         _______ _______ _______ _____ _____    ______ ____
ROOT
ATOM      1  C   UNL     1       6.688   2.765  22.186  0.00  0.00    +0.111 C 
ATOM      2  C   UNL     1       8.172   2.874  22.383  0.00  0.00    +0.232 C 
ATOM      3  N   UNL     1       8.908   2.172  21.467  0.00  0.00    -0.198 N 
ATOM      4  H   UNL     1       8.533   1.619  20.705  0.00  0.00    +0.182 HD
ATOM      5  O   UNL     1       8.691   3.530  23.284  0.00  0.00    -0.274 OA
ENDROOT
BRANCH   3   6
ATOM      6  O   UNL     1      10.312   2.236  21.598  0.00  0.00    -0.295 OA
ATOM      7  H   UNL     1      10.583   2.649  20.749  0.00  0.00    +0.241 HD
ENDBRANCH   3   6
TORSDOF 1
ENDMDL
MODEL 8
REMARK VINA RESULT:      -2.8      4.335      4.755
REMARK  Name = 
REMARK  2 active torsions:
REMARK  status: ('A' for Active; 'I' for Inactive)
REMARK    1  A    between atoms: C_1  and  C_2
REMARK    2  A    between atoms: N_4  and  O_5
REMARK                            x       y       z     vdW  Elec       q    Type
REMARK                         _______ _______ _______ _____ _____    ______ ____
ROOT
ATOM      1  C   UNL     1      10.758   0.596  24.635  0.00  0.00    +0.111 C 
ATOM      2  C   UNL     1      10.299   1.641  23.660  0.00  0.00    +0.232 C 
ATOM      3  N   UNL     1      10.189   1.189  22.372  0.00  0.00    -0.198 N 
ATOM      4  H   UNL     1      10.384   0.246  22.057  0.00  0.00    +0.182 HD
ATOM      5  O   UNL     1      10.044   2.800  23.977  0.00  0.00    -0.274 OA
ENDROOT
BRANCH   3   6
ATOM      6  O   UNL     1       9.761   2.125  21.406  0.00  0.00    -0.295 OA
ATOM      7  H   UNL     1       8.783   2.030  21.443  0.00  0.00    +0.241 HD
ENDBRANCH   3   6
TORSDOF 1
ENDMDL
MODEL 9
REMARK VINA RESULT:      -2.7      5.526      6.043
REMARK  Name = 
REMARK  2 active torsions:
REMARK  status: ('A' for Active; 'I' for Inactive)
REMARK    1  A    between atoms: C_1  and  C_2
REMARK    2  A    between atoms: N_4  and  O_5
REMARK                            x       y       z     vdW  Elec       q    Type
REMARK                         _______ _______ _______ _____ _____    ______ ____
ROOT
ATOM      1  C   UNL     1      10.239  -1.279  22.684  0.00  0.00    +0.111 C 
ATOM      2  C   UNL     1       9.809  -0.122  21.830  0.00  0.00    +0.232 C 
ATOM      3  N   UNL     1      10.219   1.098  22.297  0.00  0.00    -0.198 N 
ATOM      4  H   UNL     1      10.767   1.256  23.135  0.00  0.00    +0.182 HD
ATOM      5  O   UNL     1       9.147  -0.246  20.802  0.00  0.00    -0.274 OA
ENDROOT
BRANCH   3   6
ATOM      6  O   UNL     1       9.847   2.227  21.537  0.00  0.00    -0.295 OA
ATOM      7  H   UNL     1       9.210   1.844  20.894  0.00  0.00    +0.241 HD
ENDBRANCH   3   6
TORSDOF 1
ENDMDL
