MODEL 1
REMARK VINA RESULT:      -6.3      0.000      0.000
REMARK  Name = 
REMARK  5 active torsions:
REMARK  status: ('A' for Active; 'I' for Inactive)
REMARK    1  A    between atoms: N9_10  and  C1*_11
REMARK    2  A    between atoms: C4*_14  and  C5*_16
REMARK    3  A    between atoms: C5*_16  and  O5*_17
REMARK    4  A    between atoms: C3*_18  and  O3*_20
REMARK    5  A    between atoms: C2*_21  and  O2*_23
REMARK                            x       y       z     vdW  Elec       q    Type
REMARK                         _______ _______ _______ _____ _____    ______ ____
ROOT
ATOM      1  N6    A A   1       5.849  -4.960  25.088  0.00  0.00    -0.341 N 
ATOM      2  H61   A A   1       5.206  -4.605  24.389  0.00  0.00    +0.144 HD
ATOM      3  H62   A A   1       5.771  -5.935  25.349  0.00  0.00    +0.144 HD
ATOM      4  C6    A A   1       7.163  -4.563  24.894  0.00  0.00    +0.147 A 
ATOM      5  C5    A A   1       7.517  -3.445  24.121  0.00  0.00    +0.147 A 
ATOM      6  N7    A A   1       6.757  -2.550  23.402  0.00  0.00    -0.231 NA
ATOM      7  C8    A A   1       7.630  -1.718  22.884  0.00  0.00    +0.203 A 
ATOM      8  N9    A A   1       8.926  -2.028  23.239  0.00  0.00    -0.286 N 
ATOM      9  C4    A A   1       8.870  -3.153  24.010  0.00  0.00    +0.167 A 
ATOM     10  N3    A A   1       9.889  -3.850  24.550  0.00  0.00    -0.216 NA
ATOM     11  C2    A A   1       9.427  -4.904  25.264  0.00  0.00    +0.225 A 
ATOM     12  N1    A A   1       8.150  -5.294  25.456  0.00  0.00    -0.219 NA
ENDROOT
BRANCH   8  13
ATOM     13  C1*   A A   1      10.053  -1.255  22.768  0.00  0.00    +0.253 C 
ATOM     14  C2*   A A   1       9.948  -0.215  21.651  0.00  0.00    +0.195 C 
ATOM     15  C3*   A A   1       9.569   1.075  22.371  0.00  0.00    +0.178 C 
ATOM     16  C4*   A A   1      10.007   0.839  23.820  0.00  0.00    +0.177 C 
ATOM     17  O4*   A A   1      10.544  -0.506  23.904  0.00  0.00    -0.346 OA
BRANCH  14  18
ATOM     18  O2*   A A   1       9.135  -0.539  20.536  0.00  0.00    -0.385 OA
ATOM     19  H2*   A A   1       8.665  -1.377  20.734  0.00  0.00    +0.210 HD
ENDBRANCH  14  18
BRANCH  15  20
ATOM     20  O3*   A A   1      10.263   2.197  21.809  0.00  0.00    -0.386 OA
ATOM     21  H3*   A A   1      10.512   2.000  20.889  0.00  0.00    +0.210 HD
ENDBRANCH  15  20
BRANCH  16  22
ATOM     22  C5*   A A   1       8.831   0.979  24.796  0.00  0.00    +0.190 C 
BRANCH  22  23
ATOM     23  O5*   A A   1       9.061   0.192  25.961  0.00  0.00    -0.392 OA
ATOM     24  H5*   A A   1       9.732  -0.474  25.722  0.00  0.00    +0.210 HD
ENDBRANCH  22  23
ENDBRANCH  16  22
ENDBRANCH   8  13
TORSDOF 5
ENDMDL
MODEL 2
REMARK VINA RESULT:      -6.3      1.598      2.308
REMARK  Name = 
REMARK  5 active torsions:
REMARK  status: ('A' for Active; 'I' for Inactive)
REMARK    1  A    between atoms: N9_10  and  C1*_11
REMARK    2  A    between atoms: C4*_14  and  C5*_16
REMARK    3  A    between atoms: C5*_16  and  O5*_17
REMARK    4  A    between atoms: C3*_18  and  O3*_20
REMARK    5  A    between atoms: C2*_21  and  O2*_23
REMARK                            x       y       z     vdW  Elec       q    Type
REMARK                         _______ _______ _______ _____ _____    ______ ____
ROOT
ATOM      1  N6    A A   1       5.825  -5.520  24.705  0.00  0.00    -0.341 N 
ATOM      2  H61   A A   1       5.934  -5.363  25.700  0.00  0.00    +0.144 HD
ATOM      3  H62   A A   1       4.908  -5.787  24.367  0.00  0.00    +0.144 HD
ATOM      4  C6    A A   1       6.423  -4.550  23.915  0.00  0.00    +0.147 A 
ATOM      5  C5    A A   1       7.445  -3.708  24.381  0.00  0.00    +0.147 A 
ATOM      6  N7    A A   1       8.052  -3.599  25.612  0.00  0.00    -0.231 NA
ATOM      7  C8    A A   1       8.937  -2.641  25.460  0.00  0.00    +0.203 A 
ATOM      8  N9    A A   1       8.936  -2.124  24.181  0.00  0.00    -0.286 N 
ATOM      9  C4    A A   1       7.962  -2.781  23.486  0.00  0.00    +0.167 A 
ATOM     10  N3    A A   1       7.565  -2.586  22.214  0.00  0.00    -0.216 NA
ATOM     11  C2    A A   1       6.575  -3.448  21.880  0.00  0.00    +0.225 A 
ATOM     12  N1    A A   1       5.990  -4.393  22.645  0.00  0.00    -0.219 NA
ENDROOT
BRANCH   8  13
ATOM     13  C1*   A A   1       9.817  -1.047  23.792  0.00  0.00    +0.253 C 
ATOM     14  C2*   A A   1       9.982  -0.583  22.344  0.00  0.00    +0.195 C 
ATOM     15  C3*   A A   1       8.885   0.459  22.153  0.00  0.00    +0.178 C 
ATOM     16  C4*   A A   1       8.544   0.910  23.577  0.00  0.00    +0.177 C 
ATOM     17  O4*   A A   1       9.360   0.134  24.491  0.00  0.00    -0.346 OA
BRANCH  14  18
ATOM     18  O2*   A A   1      10.036  -1.585  21.342  0.00  0.00    -0.385 OA
ATOM     19  H2*   A A   1       9.860  -2.450  21.767  0.00  0.00    +0.210 HD
ENDBRANCH  14  18
BRANCH  15  20
ATOM     20  O3*   A A   1       9.360   1.565  21.373  0.00  0.00    -0.386 OA
ATOM     21  H3*   A A   1      10.328   1.629  21.452  0.00  0.00    +0.210 HD
ENDBRANCH  15  20
BRANCH  16  22
ATOM     22  C5*   A A   1       7.061   0.683  23.901  0.00  0.00    +0.190 C 
BRANCH  22  23
ATOM     23  O5*   A A   1       6.368   0.220  22.745  0.00  0.00    -0.392 OA
ATOM     24  H5*   A A   1       5.861   0.979  22.401  0.00  0.00    +0.210 HD
ENDBRANCH  22  23
ENDBRANCH  16  22
ENDBRANCH   8  13
TORSDOF 5
ENDMDL
MODEL 3
REMARK VINA RESULT:      -6.1      3.242      5.822
REMARK  Name = 
REMARK  5 active torsions:
REMARK  status: ('A' for Active; 'I' for Inactive)
REMARK    1  A    between atoms: N9_10  and  C1*_11
REMARK    2  A    between atoms: C4*_14  and  C5*_16
REMARK    3  A    between atoms: C5*_16  and  O5*_17
REMARK    4  A    between atoms: C3*_18  and  O3*_20
REMARK    5  A    between atoms: C2*_21  and  O2*_23
REMARK                            x       y       z     vdW  Elec       q    Type
REMARK                         _______ _______ _______ _____ _____    ______ ____
ROOT
ATOM      1  N6    A A   1       9.913   1.216  24.879  0.00  0.00    -0.341 N 
ATOM      2  H61   A A   1       9.793   1.220  25.886  0.00  0.00    +0.144 HD
ATOM      3  H62   A A   1      10.647   1.794  24.490  0.00  0.00    +0.144 HD
ATOM      4  C6    A A   1       9.875  -0.050  24.314  0.00  0.00    +0.147 A 
ATOM      5  C5    A A   1       9.286  -1.153  24.952  0.00  0.00    +0.147 A 
ATOM      6  N7    A A   1       8.677  -1.285  26.180  0.00  0.00    -0.231 NA
ATOM      7  C8    A A   1       8.319  -2.547  26.237  0.00  0.00    +0.203 A 
ATOM      8  N9    A A   1       8.663  -3.242  25.097  0.00  0.00    -0.286 N 
ATOM      9  C4    A A   1       9.311  -2.366  24.275  0.00  0.00    +0.167 A 
ATOM     10  N3    A A   1       9.867  -2.601  23.071  0.00  0.00    -0.216 NA
ATOM     11  C2    A A   1      10.406  -1.469  22.560  0.00  0.00    +0.225 A 
ATOM     12  N1    A A   1      10.446  -0.236  23.105  0.00  0.00    -0.219 NA
ENDROOT
BRANCH   8  13
ATOM     13  C1*   A A   1       8.381  -4.652  24.948  0.00  0.00    +0.253 C 
ATOM     14  C2*   A A   1       7.796  -5.512  26.069  0.00  0.00    +0.195 C 
ATOM     15  C3*   A A   1       6.287  -5.358  25.915  0.00  0.00    +0.178 C 
ATOM     16  C4*   A A   1       6.101  -4.905  24.463  0.00  0.00    +0.177 C 
ATOM     17  O4*   A A   1       7.420  -4.769  23.874  0.00  0.00    -0.346 OA
BRANCH  14  18
ATOM     18  O2*   A A   1       8.289  -5.295  27.380  0.00  0.00    -0.385 OA
ATOM     19  H2*   A A   1       9.079  -4.718  27.317  0.00  0.00    +0.210 HD
ENDBRANCH  14  18
BRANCH  15  20
ATOM     20  O3*   A A   1       5.619  -6.607  26.143  0.00  0.00    -0.386 OA
ATOM     21  H3*   A A   1       5.103  -6.556  26.967  0.00  0.00    +0.210 HD
ENDBRANCH  15  20
BRANCH  16  22
ATOM     22  C5*   A A   1       5.368  -3.560  24.381  0.00  0.00    +0.190 C 
BRANCH  22  23
ATOM     23  O5*   A A   1       5.794  -2.834  23.231  0.00  0.00    -0.392 OA
ATOM     24  H5*   A A   1       4.991  -2.459  22.823  0.00  0.00    +0.210 HD
ENDBRANCH  22  23
ENDBRANCH  16  22
ENDBRANCH   8  13
TORSDOF 5
ENDMDL
MODEL 4
REMARK VINA RESULT:      -6.1      2.807      5.530
REMARK  Name = 
REMARK  5 active torsions:
REMARK  status: ('A' for Active; 'I' for Inactive)
REMARK    1  A    between atoms: N9_10  and  C1*_11
REMARK    2  A    between atoms: C4*_14  and  C5*_16
REMARK    3  A    between atoms: C5*_16  and  O5*_17
REMARK    4  A    between atoms: C3*_18  and  O3*_20
REMARK    5  A    between atoms: C2*_21  and  O2*_23
REMARK                            x       y       z     vdW  Elec       q    Type
REMARK                         _______ _______ _______ _____ _____    ______ ____
ROOT
ATOM      1  N6    A A   1      10.188   2.202  21.619  0.00  0.00    -0.341 N 
ATOM      2  H61   A A   1       9.530   1.998  20.875  0.00  0.00    +0.144 HD
ATOM      3  H62   A A   1      10.255   3.160  21.940  0.00  0.00    +0.144 HD
ATOM      4  C6    A A   1      10.152   1.291  22.664  0.00  0.00    +0.147 A 
ATOM      5  C5    A A   1       9.625  -0.004  22.531  0.00  0.00    +0.147 A 
ATOM      6  N7    A A   1       9.042  -0.651  21.466  0.00  0.00    -0.231 NA
ATOM      7  C8    A A   1       8.744  -1.843  21.926  0.00  0.00    +0.203 A 
ATOM      8  N9    A A   1       9.113  -2.004  23.246  0.00  0.00    -0.286 N 
ATOM      9  C4    A A   1       9.655  -0.819  23.655  0.00  0.00    +0.167 A 
ATOM     10  N3    A A   1      10.115  -0.486  24.876  0.00  0.00    -0.216 NA
ATOM     11  C2    A A   1      10.589   0.782  24.884  0.00  0.00    +0.225 A 
ATOM     12  N1    A A   1      10.626   1.672  23.870  0.00  0.00    -0.219 NA
ENDROOT
BRANCH   8  13
ATOM     13  C1*   A A   1       8.865  -3.232  23.965  0.00  0.00    +0.253 C 
ATOM     14  C2*   A A   1       8.197  -3.277  25.341  0.00  0.00    +0.195 C 
ATOM     15  C3*   A A   1       6.705  -3.342  25.035  0.00  0.00    +0.178 C 
ATOM     16  C4*   A A   1       6.639  -3.870  23.598  0.00  0.00    +0.177 C 
ATOM     17  O4*   A A   1       8.001  -4.035  23.127  0.00  0.00    -0.346 OA
BRANCH  14  18
ATOM     18  O2*   A A   1       8.572  -2.281  26.278  0.00  0.00    -0.385 OA
ATOM     19  H2*   A A   1       9.001  -2.726  27.040  0.00  0.00    +0.210 HD
ENDBRANCH  14  18
BRANCH  15  20
ATOM     20  O3*   A A   1       6.037  -4.239  25.932  0.00  0.00    -0.386 OA
ATOM     21  H3*   A A   1       6.660  -4.539  26.618  0.00  0.00    +0.210 HD
ENDBRANCH  15  20
BRANCH  16  22
ATOM     22  C5*   A A   1       5.897  -2.897  22.672  0.00  0.00    +0.190 C 
BRANCH  22  23
ATOM     23  O5*   A A   1       5.463  -3.570  21.493  0.00  0.00    -0.392 OA
ATOM     24  H5*   A A   1       5.572  -2.941  20.756  0.00  0.00    +0.210 HD
ENDBRANCH  22  23
ENDBRANCH  16  22
ENDBRANCH   8  13
TORSDOF 5
ENDMDL
MODEL 5
REMARK VINA RESULT:      -6.1      1.969      2.797
REMARK  Name = 
REMARK  5 active torsions:
REMARK  status: ('A' for Active; 'I' for Inactive)
REMARK    1  A    between atoms: N9_10  and  C1*_11
REMARK    2  A    between atoms: C4*_14  and  C5*_16
REMARK    3  A    between atoms: C5*_16  and  O5*_17
REMARK    4  A    between atoms: C3*_18  and  O3*_20
REMARK    5  A    between atoms: C2*_21  and  O2*_23
REMARK                            x       y       z     vdW  Elec       q    Type
REMARK                         _______ _______ _______ _____ _____    ______ ____
ROOT
ATOM      1  N6    A A   1       8.769  -3.807  26.390  0.00  0.00    -0.341 N 
ATOM      2  H61   A A   1       9.657  -4.157  26.049  0.00  0.00    +0.144 HD
ATOM      3  H62   A A   1       8.619  -3.799  27.391  0.00  0.00    +0.144 HD
ATOM      4  C6    A A   1       8.358  -2.632  25.779  0.00  0.00    +0.147 A 
ATOM      5  C5    A A   1       8.844  -2.209  24.531  0.00  0.00    +0.147 A 
ATOM      6  N7    A A   1       9.772  -2.757  23.675  0.00  0.00    -0.231 NA
ATOM      7  C8    A A   1       9.820  -1.924  22.662  0.00  0.00    +0.203 A 
ATOM      8  N9    A A   1       8.959  -0.859  22.817  0.00  0.00    -0.286 N 
ATOM      9  C4    A A   1       8.346  -1.014  24.028  0.00  0.00    +0.167 A 
ATOM     10  N3    A A   1       7.457  -0.199  24.628  0.00  0.00    -0.216 NA
ATOM     11  C2    A A   1       7.067  -0.706  25.821  0.00  0.00    +0.225 A 
ATOM     12  N1    A A   1       7.465  -1.848  26.420  0.00  0.00    -0.219 NA
ENDROOT
BRANCH   8  13
ATOM     13  C1*   A A   1       8.857   0.193  21.831  0.00  0.00    +0.253 C 
ATOM     14  C2*   A A   1       7.829   1.323  21.915  0.00  0.00    +0.195 C 
ATOM     15  C3*   A A   1       8.513   2.396  22.755  0.00  0.00    +0.178 C 
ATOM     16  C4*   A A   1      10.006   2.073  22.633  0.00  0.00    +0.177 C 
ATOM     17  O4*   A A   1      10.132   0.876  21.824  0.00  0.00    -0.346 OA
BRANCH  14  18
ATOM     18  O2*   A A   1       6.519   0.980  22.334  0.00  0.00    -0.385 OA
ATOM     19  H2*   A A   1       5.885   1.336  21.676  0.00  0.00    +0.210 HD
ENDBRANCH  14  18
BRANCH  15  20
ATOM     20  O3*   A A   1       8.236   3.704  22.239  0.00  0.00    -0.386 OA
ATOM     21  H3*   A A   1       8.840   3.900  21.501  0.00  0.00    +0.210 HD
ENDBRANCH  15  20
BRANCH  16  22
ATOM     22  C5*   A A   1      10.645   1.827  24.006  0.00  0.00    +0.190 C 
BRANCH  22  23
ATOM     23  O5*   A A   1       9.647   1.832  25.024  0.00  0.00    -0.392 OA
ATOM     24  H5*   A A   1       8.786   1.894  24.570  0.00  0.00    +0.210 HD
ENDBRANCH  22  23
ENDBRANCH  16  22
ENDBRANCH   8  13
TORSDOF 5
ENDMDL
MODEL 6
REMARK VINA RESULT:      -6.1      3.145      5.313
REMARK  Name = 
REMARK  5 active torsions:
REMARK  status: ('A' for Active; 'I' for Inactive)
REMARK    1  A    between atoms: N9_10  and  C1*_11
REMARK    2  A    between atoms: C4*_14  and  C5*_16
REMARK    3  A    between atoms: C5*_16  and  O5*_17
REMARK    4  A    between atoms: C3*_18  and  O3*_20
REMARK    5  A    between atoms: C2*_21  and  O2*_23
REMARK                            x       y       z     vdW  Elec       q    Type
REMARK                         _______ _______ _______ _____ _____    ______ ____
ROOT
ATOM      1  N6    A A   1       8.359   0.663  22.096  0.00  0.00    -0.341 N 
ATOM      2  H61   A A   1       7.561   0.487  21.496  0.00  0.00    +0.144 HD
ATOM      3  H62   A A   1       8.450   1.586  22.501  0.00  0.00    +0.144 HD
ATOM      4  C6    A A   1       8.604  -0.348  23.013  0.00  0.00    +0.147 A 
ATOM      5  C5    A A   1       8.125  -1.658  22.852  0.00  0.00    +0.147 A 
ATOM      6  N7    A A   1       7.350  -2.237  21.873  0.00  0.00    -0.231 NA
ATOM      7  C8    A A   1       7.222  -3.488  22.249  0.00  0.00    +0.203 A 
ATOM      8  N9    A A   1       7.885  -3.752  23.428  0.00  0.00    -0.286 N 
ATOM      9  C4    A A   1       8.447  -2.578  23.842  0.00  0.00    +0.167 A 
ATOM     10  N3    A A   1       9.153  -2.336  24.963  0.00  0.00    -0.216 NA
ATOM     11  C2    A A   1       9.554  -1.044  25.011  0.00  0.00    +0.225 A 
ATOM     12  N1    A A   1       9.318  -0.056  24.122  0.00  0.00    -0.219 NA
ENDROOT
BRANCH   8  13
ATOM     13  C1*   A A   1       7.866  -5.061  24.040  0.00  0.00    +0.253 C 
ATOM     14  C2*   A A   1       8.758  -5.446  25.221  0.00  0.00    +0.195 C 
ATOM     15  C3*   A A   1       7.956  -5.036  26.451  0.00  0.00    +0.178 C 
ATOM     16  C4*   A A   1       6.509  -4.967  25.950  0.00  0.00    +0.177 C 
ATOM     17  O4*   A A   1       6.521  -5.268  24.531  0.00  0.00    -0.346 OA
BRANCH  14  18
ATOM     18  O2*   A A   1      10.099  -4.985  25.201  0.00  0.00    -0.385 OA
ATOM     19  H2*   A A   1      10.420  -5.024  24.275  0.00  0.00    +0.210 HD
ENDBRANCH  14  18
BRANCH  15  20
ATOM     20  O3*   A A   1       8.082  -6.012  27.494  0.00  0.00    -0.386 OA
ATOM     21  H3*   A A   1       7.217  -6.151  27.919  0.00  0.00    +0.210 HD
ENDBRANCH  15  20
BRANCH  16  22
ATOM     22  C5*   A A   1       5.902  -3.575  26.168  0.00  0.00    +0.190 C 
BRANCH  22  23
ATOM     23  O5*   A A   1       6.817  -2.742  26.875  0.00  0.00    -0.392 OA
ATOM     24  H5*   A A   1       7.657  -3.234  26.932  0.00  0.00    +0.210 HD
ENDBRANCH  22  23
ENDBRANCH  16  22
ENDBRANCH   8  13
TORSDOF 5
ENDMDL
MODEL 7
REMARK VINA RESULT:      -6.1      3.048      5.308
REMARK  Name = 
REMARK  5 active torsions:
REMARK  status: ('A' for Active; 'I' for Inactive)
REMARK    1  A    between atoms: N9_10  and  C1*_11
REMARK    2  A    between atoms: C4*_14  and  C5*_16
REMARK    3  A    between atoms: C5*_16  and  O5*_17
REMARK    4  A    between atoms: C3*_18  and  O3*_20
REMARK    5  A    between atoms: C2*_21  and  O2*_23
REMARK                            x       y       z     vdW  Elec       q    Type
REMARK                         _______ _______ _______ _____ _____    ______ ____
ROOT
ATOM      1  N6    A A   1       8.791   4.858  23.246  0.00  0.00    -0.341 N 
ATOM      2  H61   A A   1       7.786   4.945  23.350  0.00  0.00    +0.144 HD
ATOM      3  H62   A A   1       9.376   5.485  23.783  0.00  0.00    +0.144 HD
ATOM      4  C6    A A   1       9.245   3.548  23.273  0.00  0.00    +0.147 A 
ATOM      5  C5    A A   1       8.416   2.446  23.007  0.00  0.00    +0.147 A 
ATOM      6  N7    A A   1       7.076   2.359  22.709  0.00  0.00    -0.231 NA
ATOM      7  C8    A A   1       6.853   1.074  22.562  0.00  0.00    +0.203 A 
ATOM      8  N9    A A   1       7.992   0.319  22.747  0.00  0.00    -0.286 N 
ATOM      9  C4    A A   1       8.999   1.187  23.062  0.00  0.00    +0.167 A 
ATOM     10  N3    A A   1      10.280   0.907  23.370  0.00  0.00    -0.216 NA
ATOM     11  C2    A A   1      10.977   2.043  23.611  0.00  0.00    +0.225 A 
ATOM     12  N1    A A   1      10.539   3.319  23.587  0.00  0.00    -0.219 NA
ENDROOT
BRANCH   8  13
ATOM     13  C1*   A A   1       7.979  -1.123  22.651  0.00  0.00    +0.253 C 
ATOM     14  C2*   A A   1       9.250  -1.973  22.634  0.00  0.00    +0.195 C 
ATOM     15  C3*   A A   1       9.551  -2.234  24.106  0.00  0.00    +0.178 C 
ATOM     16  C4*   A A   1       8.208  -2.011  24.809  0.00  0.00    +0.177 C 
ATOM     17  O4*   A A   1       7.246  -1.606  23.800  0.00  0.00    -0.346 OA
BRANCH  14  18
ATOM     18  O2*   A A   1      10.346  -1.488  21.876  0.00  0.00    -0.385 OA
ATOM     19  H2*   A A   1      10.175  -0.547  21.661  0.00  0.00    +0.210 HD
ENDBRANCH  14  18
BRANCH  15  20
ATOM     20  O3*   A A   1      10.008  -3.578  24.305  0.00  0.00    -0.386 OA
ATOM     21  H3*   A A   1      10.853  -3.568  24.788  0.00  0.00    +0.210 HD
ENDBRANCH  15  20
BRANCH  16  22
ATOM     22  C5*   A A   1       8.306  -0.920  25.883  0.00  0.00    +0.190 C 
BRANCH  22  23
ATOM     23  O5*   A A   1       9.633  -0.402  25.941  0.00  0.00    -0.392 OA
ATOM     24  H5*   A A   1       9.676   0.169  26.730  0.00  0.00    +0.210 HD
ENDBRANCH  22  23
ENDBRANCH  16  22
ENDBRANCH   8  13
TORSDOF 5
ENDMDL
MODEL 8
REMARK VINA RESULT:      -6.0      3.408      5.071
REMARK  Name = 
REMARK  5 active torsions:
REMARK  status: ('A' for Active; 'I' for Inactive)
REMARK    1  A    between atoms: N9_10  and  C1*_11
REMARK    2  A    between atoms: C4*_14  and  C5*_16
REMARK    3  A    between atoms: C5*_16  and  O5*_17
REMARK    4  A    between atoms: C3*_18  and  O3*_20
REMARK    5  A    between atoms: C2*_21  and  O2*_23
REMARK                            x       y       z     vdW  Elec       q    Type
REMARK                         _______ _______ _______ _____ _____    ______ ____
ROOT
ATOM      1  N6    A A   1       5.318  -7.517  28.259  0.00  0.00    -0.341 N 
ATOM      2  H61   A A   1       4.601  -8.072  27.805  0.00  0.00    +0.144 HD
ATOM      3  H62   A A   1       6.030  -8.007  28.787  0.00  0.00    +0.144 HD
ATOM      4  C6    A A   1       5.843  -6.515  27.457  0.00  0.00    +0.147 A 
ATOM      5  C5    A A   1       5.174  -6.008  26.332  0.00  0.00    +0.147 A 
ATOM      6  N7    A A   1       3.967  -6.337  25.758  0.00  0.00    -0.231 NA
ATOM      7  C8    A A   1       3.860  -5.530  24.728  0.00  0.00    +0.203 A 
ATOM      8  N9    A A   1       4.943  -4.684  24.609  0.00  0.00    -0.286 N 
ATOM      9  C4    A A   1       5.808  -5.000  25.617  0.00  0.00    +0.167 A 
ATOM     10  N3    A A   1       7.020  -4.472  25.878  0.00  0.00    -0.216 NA
ATOM     11  C2    A A   1       7.568  -5.042  26.977  0.00  0.00    +0.225 A 
ATOM     12  N1    A A   1       7.062  -6.017  27.760  0.00  0.00    -0.219 NA
ENDROOT
BRANCH   8  13
ATOM     13  C1*   A A   1       5.047  -3.722  23.536  0.00  0.00    +0.253 C 
ATOM     14  C2*   A A   1       6.134  -2.646  23.480  0.00  0.00    +0.195 C 
ATOM     15  C3*   A A   1       7.301  -3.325  22.770  0.00  0.00    +0.178 C 
ATOM     16  C4*   A A   1       6.653  -4.486  22.009  0.00  0.00    +0.177 C 
ATOM     17  O4*   A A   1       5.236  -4.479  22.319  0.00  0.00    -0.346 OA
BRANCH  14  18
ATOM     18  O2*   A A   1       6.469  -1.996  24.694  0.00  0.00    -0.385 OA
ATOM     19  H2*   A A   1       7.216  -1.386  24.517  0.00  0.00    +0.210 HD
ENDBRANCH  14  18
BRANCH  15  20
ATOM     20  O3*   A A   1       7.941  -2.421  21.860  0.00  0.00    -0.386 OA
ATOM     21  H3*   A A   1       7.717  -1.504  22.097  0.00  0.00    +0.210 HD
ENDBRANCH  15  20
BRANCH  16  22
ATOM     22  C5*   A A   1       7.256  -5.836  22.420  0.00  0.00    +0.190 C 
BRANCH  22  23
ATOM     23  O5*   A A   1       8.318  -5.641  23.349  0.00  0.00    -0.392 OA
ATOM     24  H5*   A A   1       8.077  -4.866  23.890  0.00  0.00    +0.210 HD
ENDBRANCH  22  23
ENDBRANCH  16  22
ENDBRANCH   8  13
TORSDOF 5
ENDMDL
MODEL 9
REMARK VINA RESULT:      -6.0      3.206      4.736
REMARK  Name = 
REMARK  5 active torsions:
REMARK  status: ('A' for Active; 'I' for Inactive)
REMARK    1  A    between atoms: N9_10  and  C1*_11
REMARK    2  A    between atoms: C4*_14  and  C5*_16
REMARK    3  A    between atoms: C5*_16  and  O5*_17
REMARK    4  A    between atoms: C3*_18  and  O3*_20
REMARK    5  A    between atoms: C2*_21  and  O2*_23
REMARK                            x       y       z     vdW  Elec       q    Type
REMARK                         _______ _______ _______ _____ _____    ______ ____
ROOT
ATOM      1  N6    A A   1       3.352  -7.502  25.982  0.00  0.00    -0.341 N 
ATOM      2  H61   A A   1       3.193  -7.296  26.962  0.00  0.00    +0.144 HD
ATOM      3  H62   A A   1       2.550  -7.500  25.364  0.00  0.00    +0.144 HD
ATOM      4  C6    A A   1       4.445  -6.843  25.440  0.00  0.00    +0.147 A 
ATOM      5  C5    A A   1       5.487  -6.322  26.223  0.00  0.00    +0.147 A 
ATOM      6  N7    A A   1       5.686  -6.296  27.584  0.00  0.00    -0.231 NA
ATOM      7  C8    A A   1       6.835  -5.679  27.739  0.00  0.00    +0.203 A 
ATOM      8  N9    A A   1       7.396  -5.307  26.536  0.00  0.00    -0.286 N 
ATOM      9  C4    A A   1       6.527  -5.689  25.554  0.00  0.00    +0.167 A 
ATOM     10  N3    A A   1       6.628  -5.497  24.225  0.00  0.00    -0.216 NA
ATOM     11  C2    A A   1       5.566  -6.035  23.578  0.00  0.00    +0.225 A 
ATOM     12  N1    A A   1       4.500  -6.676  24.101  0.00  0.00    -0.219 NA
ENDROOT
BRANCH   8  13
ATOM     13  C1*   A A   1       8.654  -4.598  26.466  0.00  0.00    +0.253 C 
ATOM     14  C2*   A A   1       9.515  -4.544  25.202  0.00  0.00    +0.195 C 
ATOM     15  C3*   A A   1       8.978  -3.343  24.430  0.00  0.00    +0.178 C 
ATOM     16  C4*   A A   1       8.268  -2.499  25.495  0.00  0.00    +0.177 C 
ATOM     17  O4*   A A   1       8.363  -3.212  26.755  0.00  0.00    -0.346 OA
BRANCH  14  18
ATOM     18  O2*   A A   1       9.634  -5.736  24.445  0.00  0.00    -0.385 OA
ATOM     19  H2*   A A   1       8.750  -6.156  24.396  0.00  0.00    +0.210 HD
ENDBRANCH  14  18
BRANCH  15  20
ATOM     20  O3*   A A   1      10.048  -2.601  23.830  0.00  0.00    -0.386 OA
ATOM     21  H3*   A A   1      10.594  -2.193  24.525  0.00  0.00    +0.210 HD
ENDBRANCH  15  20
BRANCH  16  22
ATOM     22  C5*   A A   1       6.790  -2.278  25.147  0.00  0.00    +0.190 C 
BRANCH  22  23
ATOM     23  O5*   A A   1       6.570  -2.506  23.757  0.00  0.00    -0.392 OA
ATOM     24  H5*   A A   1       5.747  -2.037  23.524  0.00  0.00    +0.210 HD
ENDBRANCH  22  23
ENDBRANCH  16  22
ENDBRANCH   8  13
TORSDOF 5
ENDMDL
