MODEL 1
REMARK VINA RESULT:      -6.1      0.000      0.000
REMARK  Name = 
REMARK  10 active torsions:
REMARK  status: ('A' for Active; 'I' for Inactive)
REMARK    1  A    between atoms: O_1  and  C_2
REMARK    2  A    between atoms: C_3  and  N_21
REMARK    3  A    between atoms: C_5  and  C_6
REMARK    4  A    between atoms: C_6  and  C_7
REMARK    5  A    between atoms: N_9  and  C_10
REMARK    6  A    between atoms: C_10  and  C_11
REMARK    7  A    between atoms: C_11  and  C_12
REMARK    8  A    between atoms: C_12  and  C_13
REMARK    9  A    between atoms: C_13  and  C_14
REMARK   10  A    between atoms: C_14  and  C_15
REMARK                            x       y       z     vdW  Elec       q    Type
REMARK                         _______ _______ _______ _____ _____    ______ ____
ROOT
ATOM      1  C   UNL     1       8.481  -2.775  25.780  0.00  0.00    +0.131 C 
ENDROOT
BRANCH   1   6
ATOM      2  C   UNL     1       5.545  -5.958  26.132  0.00  0.00    +0.208 A 
ATOM      3  C   UNL     1       5.742  -5.289  24.918  0.00  0.00    +0.062 A 
ATOM      4  I   UNL     1       4.609  -5.735  23.207  0.00  0.00    -0.040 I 
ATOM      5  C   UNL     1       6.705  -4.278  24.806  0.00  0.00    +0.022 A 
ATOM      6  C   UNL     1       7.489  -3.909  25.909  0.00  0.00    -0.031 A 
ATOM      7  C   UNL     1       7.293  -4.571  27.131  0.00  0.00    +0.092 A 
ATOM      8  C   UNL     1       6.333  -5.594  27.238  0.00  0.00    +0.315 A 
BRANCH   8   9
ATOM      9  N   UNL     1       6.165  -6.258  28.536  0.00  0.00    +0.083 N 
ATOM     10  O   UNL     1       5.920  -7.473  28.552  0.00  0.00    +0.042 OA
ATOM     11  O   UNL     1       6.295  -5.562  29.557  0.00  0.00    -0.576 OA
ENDBRANCH   8   9
BRANCH   2  12
ATOM     12  O   UNL     1       4.577  -6.931  26.176  0.00  0.00    -0.501 OA
ATOM     13  H   UNL     1       4.075  -6.878  27.015  0.00  0.00    +0.292 HD
ENDBRANCH   2  12
ENDBRANCH   1   6
BRANCH   1  14
ATOM     14  C   UNL     1       9.344  -2.846  24.538  0.00  0.00    +0.217 C 
ATOM     15  N   UNL     1       9.317  -1.728  23.737  0.00  0.00    -0.315 N 
ATOM     16  H   UNL     1       8.620  -0.995  23.883  0.00  0.00    +0.149 HD
ATOM     17  O   UNL     1      10.024  -3.840  24.285  0.00  0.00    -0.275 OA
BRANCH  15  18
ATOM     18  C   UNL     1      10.134  -1.662  22.545  0.00  0.00    +0.104 C 
BRANCH  18  19
ATOM     19  C   UNL     1       9.586  -0.708  21.493  0.00  0.00    +0.019 C 
BRANCH  19  20
ATOM     20  C   UNL     1       8.690   0.384  22.084  0.00  0.00    +0.002 C 
BRANCH  20  21
ATOM     21  C   UNL     1       9.266   1.793  21.892  0.00  0.00    +0.006 C 
BRANCH  21  22
ATOM     22  C   UNL     1      10.363   2.183  22.881  0.00  0.00    +0.052 C 
BRANCH  22  23
ATOM     23  C   UNL     1       9.954   1.825  24.312  0.00  0.00    +0.042 C 
ATOM     24  O   UNL     1      10.589   0.868  24.831  0.00  0.00    -0.550 OA
ATOM     25  O   UNL     1       9.016   2.530  24.793  0.00  0.00    -0.550 OA
ENDBRANCH  22  23
ENDBRANCH  21  22
ENDBRANCH  20  21
ENDBRANCH  19  20
ENDBRANCH  18  19
ENDBRANCH  15  18
ENDBRANCH   1  14
TORSDOF 10
ENDMDL
MODEL 2
REMARK VINA RESULT:      -6.1      2.784      6.668
REMARK  Name = 
REMARK  10 active torsions:
REMARK  status: ('A' for Active; 'I' for Inactive)
REMARK    1  A    between atoms: O_1  and  C_2
REMARK    2  A    between atoms: C_3  and  N_21
REMARK    3  A    between atoms: C_5  and  C_6
REMARK    4  A    between atoms: C_6  and  C_7
REMARK    5  A    between atoms: N_9  and  C_10
REMARK    6  A    between atoms: C_10  and  C_11
REMARK    7  A    between atoms: C_11  and  C_12
REMARK    8  A    between atoms: C_12  and  C_13
REMARK    9  A    between atoms: C_13  and  C_14
REMARK   10  A    between atoms: C_14  and  C_15
REMARK                            x       y       z     vdW  Elec       q    Type
REMARK                         _______ _______ _______ _____ _____    ______ ____
ROOT
ATOM      1  C   UNL     1       8.916  -4.707  26.379  0.00  0.00    +0.131 C 
ENDROOT
BRANCH   1   6
ATOM      2  C   UNL     1       8.305  -0.879  24.415  0.00  0.00    +0.208 A 
ATOM      3  C   UNL     1       7.755  -1.139  25.677  0.00  0.00    +0.062 A 
ATOM      4  I   UNL     1       6.565   0.269  26.681  0.00  0.00    -0.040 I 
ATOM      5  C   UNL     1       7.974  -2.368  26.314  0.00  0.00    +0.022 A 
ATOM      6  C   UNL     1       8.743  -3.367  25.700  0.00  0.00    -0.031 A 
ATOM      7  C   UNL     1       9.293  -3.116  24.432  0.00  0.00    +0.092 A 
ATOM      8  C   UNL     1       9.081  -1.877  23.799  0.00  0.00    +0.315 A 
BRANCH   8   9
ATOM      9  N   UNL     1       9.677  -1.660  22.476  0.00  0.00    +0.083 N 
ATOM     10  O   UNL     1      10.884  -1.895  22.325  0.00  0.00    +0.042 OA
ATOM     11  O   UNL     1       8.927  -1.265  21.568  0.00  0.00    -0.576 OA
ENDBRANCH   8   9
BRANCH   2  12
ATOM     12  O   UNL     1       8.043   0.341  23.843  0.00  0.00    -0.501 OA
ATOM     13  H   UNL     1       8.577   0.461  23.032  0.00  0.00    +0.292 HD
ENDBRANCH   2  12
ENDBRANCH   1   6
BRANCH   1  14
ATOM     14  C   UNL     1       7.613  -5.404  26.713  0.00  0.00    +0.217 C 
ATOM     15  N   UNL     1       6.725  -5.523  25.670  0.00  0.00    -0.315 N 
ATOM     16  H   UNL     1       6.868  -5.011  24.797  0.00  0.00    +0.149 HD
ATOM     17  O   UNL     1       7.387  -5.836  27.843  0.00  0.00    -0.275 OA
BRANCH  15  18
ATOM     18  C   UNL     1       5.465  -6.209  25.856  0.00  0.00    +0.104 C 
BRANCH  18  19
ATOM     19  C   UNL     1       4.270  -5.420  25.340  0.00  0.00    +0.019 C 
BRANCH  19  20
ATOM     20  C   UNL     1       4.621  -3.977  24.966  0.00  0.00    +0.002 C 
BRANCH  20  21
ATOM     21  C   UNL     1       4.556  -3.722  23.455  0.00  0.00    +0.006 C 
BRANCH  21  22
ATOM     22  C   UNL     1       5.905  -3.469  22.784  0.00  0.00    +0.052 C 
BRANCH  22  23
ATOM     23  C   UNL     1       6.410  -4.736  22.088  0.00  0.00    +0.042 C 
ATOM     24  O   UNL     1       7.258  -5.406  22.735  0.00  0.00    -0.550 OA
ATOM     25  O   UNL     1       5.920  -4.946  20.937  0.00  0.00    -0.550 OA
ENDBRANCH  22  23
ENDBRANCH  21  22
ENDBRANCH  20  21
ENDBRANCH  19  20
ENDBRANCH  18  19
ENDBRANCH  15  18
ENDBRANCH   1  14
TORSDOF 10
ENDMDL
MODEL 3
REMARK VINA RESULT:      -6.0      2.925      3.947
REMARK  Name = 
REMARK  10 active torsions:
REMARK  status: ('A' for Active; 'I' for Inactive)
REMARK    1  A    between atoms: O_1  and  C_2
REMARK    2  A    between atoms: C_3  and  N_21
REMARK    3  A    between atoms: C_5  and  C_6
REMARK    4  A    between atoms: C_6  and  C_7
REMARK    5  A    between atoms: N_9  and  C_10
REMARK    6  A    between atoms: C_10  and  C_11
REMARK    7  A    between atoms: C_11  and  C_12
REMARK    8  A    between atoms: C_12  and  C_13
REMARK    9  A    between atoms: C_13  and  C_14
REMARK   10  A    between atoms: C_14  and  C_15
REMARK                            x       y       z     vdW  Elec       q    Type
REMARK                         _______ _______ _______ _____ _____    ______ ____
ROOT
ATOM      1  C   UNL     1       8.083  -4.519  25.693  0.00  0.00    +0.131 C 
ENDROOT
BRANCH   1   6
ATOM      2  C   UNL     1       4.756  -5.826  23.222  0.00  0.00    +0.208 A 
ATOM      3  C   UNL     1       4.786  -6.097  24.595  0.00  0.00    +0.062 A 
ATOM      4  I   UNL     1       3.264  -7.189  25.545  0.00  0.00    -0.040 I 
ATOM      5  C   UNL     1       5.852  -5.654  25.390  0.00  0.00    +0.022 A 
ATOM      6  C   UNL     1       6.916  -4.935  24.827  0.00  0.00    -0.031 A 
ATOM      7  C   UNL     1       6.896  -4.664  23.450  0.00  0.00    +0.092 A 
ATOM      8  C   UNL     1       5.819  -5.101  22.655  0.00  0.00    +0.315 A 
BRANCH   8   9
ATOM      9  N   UNL     1       5.843  -4.793  21.221  0.00  0.00    +0.083 N 
ATOM     10  O   UNL     1       5.718  -3.612  20.866  0.00  0.00    +0.042 OA
ATOM     11  O   UNL     1       6.005  -5.741  20.434  0.00  0.00    -0.576 OA
ENDBRANCH   8   9
BRANCH   2  12
ATOM     12  O   UNL     1       3.689  -6.299  22.500  0.00  0.00    -0.501 OA
ATOM     13  H   UNL     1       3.865  -6.225  21.540  0.00  0.00    +0.292 HD
ENDBRANCH   2  12
ENDBRANCH   1   6
BRANCH   1  14
ATOM     14  C   UNL     1       9.122  -3.685  24.972  0.00  0.00    +0.217 C 
ATOM     15  N   UNL     1       8.862  -2.336  24.921  0.00  0.00    -0.315 N 
ATOM     16  H   UNL     1       7.947  -1.967  25.185  0.00  0.00    +0.149 HD
ATOM     17  O   UNL     1      10.128  -4.197  24.480  0.00  0.00    -0.275 OA
BRANCH  15  18
ATOM     18  C   UNL     1       9.804  -1.433  24.295  0.00  0.00    +0.104 C 
BRANCH  18  19
ATOM     19  C   UNL     1       9.917  -0.094  25.010  0.00  0.00    +0.019 C 
BRANCH  19  20
ATOM     20  C   UNL     1      10.997   0.814  24.415  0.00  0.00    +0.002 C 
BRANCH  20  21
ATOM     21  C   UNL     1      10.414   2.031  23.685  0.00  0.00    +0.006 C 
BRANCH  21  22
ATOM     22  C   UNL     1      10.001   1.778  22.237  0.00  0.00    +0.052 C 
BRANCH  22  23
ATOM     23  C   UNL     1       8.476   1.801  22.097  0.00  0.00    +0.042 C 
ATOM     24  O   UNL     1       7.911   0.677  22.164  0.00  0.00    -0.550 OA
ATOM     25  O   UNL     1       7.971   2.951  21.919  0.00  0.00    -0.550 OA
ENDBRANCH  22  23
ENDBRANCH  21  22
ENDBRANCH  20  21
ENDBRANCH  19  20
ENDBRANCH  18  19
ENDBRANCH  15  18
ENDBRANCH   1  14
TORSDOF 10
ENDMDL
MODEL 4
REMARK VINA RESULT:      -6.0      2.974      4.113
REMARK  Name = 
REMARK  10 active torsions:
REMARK  status: ('A' for Active; 'I' for Inactive)
REMARK    1  A    between atoms: O_1  and  C_2
REMARK    2  A    between atoms: C_3  and  N_21
REMARK    3  A    between atoms: C_5  and  C_6
REMARK    4  A    between atoms: C_6  and  C_7
REMARK    5  A    between atoms: N_9  and  C_10
REMARK    6  A    between atoms: C_10  and  C_11
REMARK    7  A    between atoms: C_11  and  C_12
REMARK    8  A    between atoms: C_12  and  C_13
REMARK    9  A    between atoms: C_13  and  C_14
REMARK   10  A    between atoms: C_14  and  C_15
REMARK                            x       y       z     vdW  Elec       q    Type
REMARK                         _______ _______ _______ _____ _____    ______ ____
ROOT
ATOM      1  C   UNL     1       9.565  -2.483  24.163  0.00  0.00    +0.131 C 
ENDROOT
BRANCH   1   6
ATOM      2  C   UNL     1       6.102  -5.090  23.857  0.00  0.00    +0.208 A 
ATOM      3  C   UNL     1       6.663  -4.778  25.101  0.00  0.00    +0.062 A 
ATOM      4  I   UNL     1       5.911  -5.578  26.891  0.00  0.00    -0.040 I 
ATOM      5  C   UNL     1       7.767  -3.919  25.194  0.00  0.00    +0.022 A 
ATOM      6  C   UNL     1       8.339  -3.359  24.043  0.00  0.00    -0.031 A 
ATOM      7  C   UNL     1       7.786  -3.672  22.791  0.00  0.00    +0.092 A 
ATOM      8  C   UNL     1       6.670  -4.526  22.701  0.00  0.00    +0.315 A 
BRANCH   8   9
ATOM      9  N   UNL     1       6.127  -4.823  21.371  0.00  0.00    +0.083 N 
ATOM     10  O   UNL     1       5.669  -3.889  20.696  0.00  0.00    +0.042 OA
ATOM     11  O   UNL     1       6.169  -6.003  20.985  0.00  0.00    -0.576 OA
ENDBRANCH   8   9
BRANCH   2  12
ATOM     12  O   UNL     1       5.029  -5.946  23.836  0.00  0.00    -0.501 OA
ATOM     13  H   UNL     1       4.506  -5.821  23.018  0.00  0.00    +0.292 HD
ENDBRANCH   2  12
ENDBRANCH   1   6
BRANCH   1  14
ATOM     14  C   UNL     1       9.816  -1.601  22.958  0.00  0.00    +0.217 C 
ATOM     15  N   UNL     1       8.951  -0.542  22.814  0.00  0.00    -0.315 N 
ATOM     16  H   UNL     1       8.100  -0.479  23.375  0.00  0.00    +0.149 HD
ATOM     17  O   UNL     1      10.741  -1.827  22.177  0.00  0.00    -0.275 OA
BRANCH  15  18
ATOM     18  C   UNL     1       9.117   0.396  21.725  0.00  0.00    +0.104 C 
BRANCH  18  19
ATOM     19  C   UNL     1       9.896   1.643  22.119  0.00  0.00    +0.019 C 
BRANCH  19  20
ATOM     20  C   UNL     1       9.229   2.434  23.248  0.00  0.00    +0.002 C 
BRANCH  20  21
ATOM     21  C   UNL     1      10.024   3.685  23.646  0.00  0.00    +0.006 C 
BRANCH  21  22
ATOM     22  C   UNL     1      11.517   3.630  23.327  0.00  0.00    +0.052 C 
BRANCH  22  23
ATOM     23  C   UNL     1      12.140   5.026  23.410  0.00  0.00    +0.042 C 
ATOM     24  O   UNL     1      13.399   5.055  23.419  0.00  0.00    -0.550 OA
ATOM     25  O   UNL     1      11.307   5.981  23.472  0.00  0.00    -0.550 OA
ENDBRANCH  22  23
ENDBRANCH  21  22
ENDBRANCH  20  21
ENDBRANCH  19  20
ENDBRANCH  18  19
ENDBRANCH  15  18
ENDBRANCH   1  14
TORSDOF 10
ENDMDL
MODEL 5
REMARK VINA RESULT:      -5.9      2.216      2.951
REMARK  Name = 
REMARK  10 active torsions:
REMARK  status: ('A' for Active; 'I' for Inactive)
REMARK    1  A    between atoms: O_1  and  C_2
REMARK    2  A    between atoms: C_3  and  N_21
REMARK    3  A    between atoms: C_5  and  C_6
REMARK    4  A    between atoms: C_6  and  C_7
REMARK    5  A    between atoms: N_9  and  C_10
REMARK    6  A    between atoms: C_10  and  C_11
REMARK    7  A    between atoms: C_11  and  C_12
REMARK    8  A    between atoms: C_12  and  C_13
REMARK    9  A    between atoms: C_13  and  C_14
REMARK   10  A    between atoms: C_14  and  C_15
REMARK                            x       y       z     vdW  Elec       q    Type
REMARK                         _______ _______ _______ _____ _____    ______ ____
ROOT
ATOM      1  C   UNL     1       8.348  -2.873  25.487  0.00  0.00    +0.131 C 
ENDROOT
BRANCH   1   6
ATOM      2  C   UNL     1       5.385  -6.038  25.193  0.00  0.00    +0.208 A 
ATOM      3  C   UNL     1       5.846  -5.593  26.439  0.00  0.00    +0.062 A 
ATOM      4  I   UNL     1       5.182  -6.448  28.238  0.00  0.00    -0.040 I 
ATOM      5  C   UNL     1       6.785  -4.557  26.527  0.00  0.00    +0.022 A 
ATOM      6  C   UNL     1       7.291  -3.947  25.369  0.00  0.00    -0.031 A 
ATOM      7  C   UNL     1       6.839  -4.392  24.117  0.00  0.00    +0.092 A 
ATOM      8  C   UNL     1       5.886  -5.425  24.031  0.00  0.00    +0.315 A 
BRANCH   8   9
ATOM      9  N   UNL     1       5.443  -5.854  22.700  0.00  0.00    +0.083 N 
ATOM     10  O   UNL     1       6.296  -6.243  21.890  0.00  0.00    +0.042 OA
ATOM     11  O   UNL     1       4.224  -5.818  22.463  0.00  0.00    -0.576 OA
ENDBRANCH   8   9
BRANCH   2  12
ATOM     12  O   UNL     1       4.473  -7.063  25.178  0.00  0.00    -0.501 OA
ATOM     13  H   UNL     1       4.660  -7.699  25.898  0.00  0.00    +0.292 HD
ENDBRANCH   2  12
ENDBRANCH   1   6
BRANCH   1  14
ATOM     14  C   UNL     1       9.236  -2.743  24.266  0.00  0.00    +0.217 C 
ATOM     15  N   UNL     1       8.918  -1.711  23.415  0.00  0.00    -0.315 N 
ATOM     16  H   UNL     1       8.038  -1.201  23.513  0.00  0.00    +0.149 HD
ATOM     17  O   UNL     1      10.178  -3.511  24.072  0.00  0.00    -0.275 OA
BRANCH  15  18
ATOM     18  C   UNL     1       9.721  -1.459  22.238  0.00  0.00    +0.104 C 
BRANCH  18  19
ATOM     19  C   UNL     1       9.239  -0.266  21.426  0.00  0.00    +0.019 C 
BRANCH  19  20
ATOM     20  C   UNL     1       9.962   1.035  21.786  0.00  0.00    +0.002 C 
BRANCH  20  21
ATOM     21  C   UNL     1       9.119   1.956  22.677  0.00  0.00    +0.006 C 
BRANCH  21  22
ATOM     22  C   UNL     1       9.722   2.258  24.048  0.00  0.00    +0.052 C 
BRANCH  22  23
ATOM     23  C   UNL     1       9.703   1.009  24.934  0.00  0.00    +0.042 C 
ATOM     24  O   UNL     1      10.807   0.413  25.050  0.00  0.00    -0.550 OA
ATOM     25  O   UNL     1       8.572   0.722  25.432  0.00  0.00    -0.550 OA
ENDBRANCH  22  23
ENDBRANCH  21  22
ENDBRANCH  20  21
ENDBRANCH  19  20
ENDBRANCH  18  19
ENDBRANCH  15  18
ENDBRANCH   1  14
TORSDOF 10
ENDMDL
MODEL 6
REMARK VINA RESULT:      -5.9      2.070      2.630
REMARK  Name = 
REMARK  10 active torsions:
REMARK  status: ('A' for Active; 'I' for Inactive)
REMARK    1  A    between atoms: O_1  and  C_2
REMARK    2  A    between atoms: C_3  and  N_21
REMARK    3  A    between atoms: C_5  and  C_6
REMARK    4  A    between atoms: C_6  and  C_7
REMARK    5  A    between atoms: N_9  and  C_10
REMARK    6  A    between atoms: C_10  and  C_11
REMARK    7  A    between atoms: C_11  and  C_12
REMARK    8  A    between atoms: C_12  and  C_13
REMARK    9  A    between atoms: C_13  and  C_14
REMARK   10  A    between atoms: C_14  and  C_15
REMARK                            x       y       z     vdW  Elec       q    Type
REMARK                         _______ _______ _______ _____ _____    ______ ____
ROOT
ATOM      1  C   UNL     1       6.227  -4.539  22.334  0.00  0.00    +0.131 C 
ENDROOT
BRANCH   1   6
ATOM      2  C   UNL     1       5.212  -6.424  26.115  0.00  0.00    +0.208 A 
ATOM      3  C   UNL     1       4.403  -6.592  24.984  0.00  0.00    +0.062 A 
ATOM      4  I   UNL     1       2.629  -7.714  25.044  0.00  0.00    -0.040 I 
ATOM      5  C   UNL     1       4.748  -5.999  23.763  0.00  0.00    +0.022 A 
ATOM      6  C   UNL     1       5.907  -5.218  23.646  0.00  0.00    -0.031 A 
ATOM      7  C   UNL     1       6.720  -5.041  24.777  0.00  0.00    +0.092 A 
ATOM      8  C   UNL     1       6.378  -5.647  26.000  0.00  0.00    +0.315 A 
BRANCH   8   9
ATOM      9  N   UNL     1       7.260  -5.433  27.153  0.00  0.00    +0.083 N 
ATOM     10  O   UNL     1       7.193  -6.225  28.104  0.00  0.00    +0.042 OA
ATOM     11  O   UNL     1       8.043  -4.470  27.105  0.00  0.00    -0.576 OA
ENDBRANCH   8   9
BRANCH   2  12
ATOM     12  O   UNL     1       4.810  -7.023  27.283  0.00  0.00    -0.501 OA
ATOM     13  H   UNL     1       4.810  -7.997  27.186  0.00  0.00    +0.292 HD
ENDBRANCH   2  12
ENDBRANCH   1   6
BRANCH   1  14
ATOM     14  C   UNL     1       6.784  -3.139  22.482  0.00  0.00    +0.217 C 
ATOM     15  N   UNL     1       8.121  -3.003  22.190  0.00  0.00    -0.315 N 
ATOM     16  H   UNL     1       8.718  -3.823  22.070  0.00  0.00    +0.149 HD
ATOM     17  O   UNL     1       6.071  -2.198  22.830  0.00  0.00    -0.275 OA
BRANCH  15  18
ATOM     18  C   UNL     1       8.756  -1.704  22.254  0.00  0.00    +0.104 C 
BRANCH  18  19
ATOM     19  C   UNL     1       9.909  -1.647  23.245  0.00  0.00    +0.019 C 
BRANCH  19  20
ATOM     20  C   UNL     1       9.463  -1.269  24.661  0.00  0.00    +0.002 C 
BRANCH  20  21
ATOM     21  C   UNL     1       9.880   0.154  25.054  0.00  0.00    +0.006 C 
BRANCH  21  22
ATOM     22  C   UNL     1      10.876   0.821  24.107  0.00  0.00    +0.052 C 
BRANCH  22  23
ATOM     23  C   UNL     1      10.208   1.961  23.335  0.00  0.00    +0.042 C 
ATOM     24  O   UNL     1      10.200   1.832  22.082  0.00  0.00    -0.550 OA
ATOM     25  O   UNL     1       9.756   2.903  24.055  0.00  0.00    -0.550 OA
ENDBRANCH  22  23
ENDBRANCH  21  22
ENDBRANCH  20  21
ENDBRANCH  19  20
ENDBRANCH  18  19
ENDBRANCH  15  18
ENDBRANCH   1  14
TORSDOF 10
ENDMDL
MODEL 7
REMARK VINA RESULT:      -5.8      3.637      7.430
REMARK  Name = 
REMARK  10 active torsions:
REMARK  status: ('A' for Active; 'I' for Inactive)
REMARK    1  A    between atoms: O_1  and  C_2
REMARK    2  A    between atoms: C_3  and  N_21
REMARK    3  A    between atoms: C_5  and  C_6
REMARK    4  A    between atoms: C_6  and  C_7
REMARK    5  A    between atoms: N_9  and  C_10
REMARK    6  A    between atoms: C_10  and  C_11
REMARK    7  A    between atoms: C_11  and  C_12
REMARK    8  A    between atoms: C_12  and  C_13
REMARK    9  A    between atoms: C_13  and  C_14
REMARK   10  A    between atoms: C_14  and  C_15
REMARK                            x       y       z     vdW  Elec       q    Type
REMARK                         _______ _______ _______ _____ _____    ______ ____
ROOT
ATOM      1  C   UNL     1       8.280  -0.529  26.668  0.00  0.00    +0.131 C 
ENDROOT
BRANCH   1   6
ATOM      2  C   UNL     1       9.376   1.377  22.920  0.00  0.00    +0.208 A 
ATOM      3  C   UNL     1       8.969   2.136  24.024  0.00  0.00    +0.062 A 
ATOM      4  I   UNL     1       8.812   4.228  23.937  0.00  0.00    -0.040 I 
ATOM      5  C   UNL     1       8.638   1.516  25.236  0.00  0.00    +0.022 A 
ATOM      6  C   UNL     1       8.699   0.122  25.369  0.00  0.00    -0.031 A 
ATOM      7  C   UNL     1       9.100  -0.647  24.264  0.00  0.00    +0.092 A 
ATOM      8  C   UNL     1       9.443  -0.021  23.051  0.00  0.00    +0.315 A 
BRANCH   8   9
ATOM      9  N   UNL     1       9.857  -0.866  21.925  0.00  0.00    +0.083 N 
ATOM     10  O   UNL     1      10.676  -1.772  22.135  0.00  0.00    +0.042 OA
ATOM     11  O   UNL     1       9.347  -0.634  20.817  0.00  0.00    -0.576 OA
ENDBRANCH   8   9
BRANCH   2  12
ATOM     12  O   UNL     1       9.675   2.047  21.759  0.00  0.00    -0.501 OA
ATOM     13  H   UNL     1       9.364   2.973  21.808  0.00  0.00    +0.292 HD
ENDBRANCH   2  12
ENDBRANCH   1   6
BRANCH   1  14
ATOM     14  C   UNL     1       7.459  -1.790  26.492  0.00  0.00    +0.217 C 
ATOM     15  N   UNL     1       8.144  -2.968  26.672  0.00  0.00    -0.315 N 
ATOM     16  H   UNL     1       9.164  -2.979  26.732  0.00  0.00    +0.149 HD
ATOM     17  O   UNL     1       6.260  -1.742  26.215  0.00  0.00    -0.275 OA
BRANCH  15  18
ATOM     18  C   UNL     1       7.456  -4.237  26.572  0.00  0.00    +0.104 C 
BRANCH  18  19
ATOM     19  C   UNL     1       8.027  -5.146  25.493  0.00  0.00    +0.019 C 
BRANCH  19  20
ATOM     20  C   UNL     1       8.719  -4.375  24.365  0.00  0.00    +0.002 C 
BRANCH  20  21
ATOM     21  C   UNL     1       7.750  -3.946  23.256  0.00  0.00    +0.006 C 
BRANCH  21  22
ATOM     22  C   UNL     1       6.684  -4.979  22.895  0.00  0.00    +0.052 C 
BRANCH  22  23
ATOM     23  C   UNL     1       5.989  -4.604  21.584  0.00  0.00    +0.042 C 
ATOM     24  O   UNL     1       6.020  -5.485  20.684  0.00  0.00    -0.550 OA
ATOM     25  O   UNL     1       5.478  -3.443  21.562  0.00  0.00    -0.550 OA
ENDBRANCH  22  23
ENDBRANCH  21  22
ENDBRANCH  20  21
ENDBRANCH  19  20
ENDBRANCH  18  19
ENDBRANCH  15  18
ENDBRANCH   1  14
TORSDOF 10
ENDMDL
MODEL 8
REMARK VINA RESULT:      -5.8      2.107      2.500
REMARK  Name = 
REMARK  10 active torsions:
REMARK  status: ('A' for Active; 'I' for Inactive)
REMARK    1  A    between atoms: O_1  and  C_2
REMARK    2  A    between atoms: C_3  and  N_21
REMARK    3  A    between atoms: C_5  and  C_6
REMARK    4  A    between atoms: C_6  and  C_7
REMARK    5  A    between atoms: N_9  and  C_10
REMARK    6  A    between atoms: C_10  and  C_11
REMARK    7  A    between atoms: C_11  and  C_12
REMARK    8  A    between atoms: C_12  and  C_13
REMARK    9  A    between atoms: C_13  and  C_14
REMARK   10  A    between atoms: C_14  and  C_15
REMARK                            x       y       z     vdW  Elec       q    Type
REMARK                         _______ _______ _______ _____ _____    ______ ____
ROOT
ATOM      1  C   UNL     1       9.573  -2.154  24.594  0.00  0.00    +0.131 C 
ENDROOT
BRANCH   1   6
ATOM      2  C   UNL     1       6.557  -5.281  24.550  0.00  0.00    +0.208 A 
ATOM      3  C   UNL     1       7.056  -4.742  23.358  0.00  0.00    +0.062 A 
ATOM      4  I   UNL     1       6.354  -5.363  21.478  0.00  0.00    -0.040 I 
ATOM      5  C   UNL     1       8.044  -3.749  23.379  0.00  0.00    +0.022 A 
ATOM      6  C   UNL     1       8.551  -3.267  24.594  0.00  0.00    -0.031 A 
ATOM      7  C   UNL     1       8.051  -3.798  25.794  0.00  0.00    +0.092 A 
ATOM      8  C   UNL     1       7.066  -4.804  25.770  0.00  0.00    +0.315 A 
BRANCH   8   9
ATOM      9  N   UNL     1       6.576  -5.328  27.050  0.00  0.00    +0.083 N 
ATOM     10  O   UNL     1       5.358  -5.293  27.276  0.00  0.00    +0.042 OA
ATOM     11  O   UNL     1       7.416  -5.796  27.837  0.00  0.00    -0.576 OA
ENDBRANCH   8   9
BRANCH   2  12
ATOM     12  O   UNL     1       5.581  -6.242  24.457  0.00  0.00    -0.501 OA
ATOM     13  H   UNL     1       5.976  -7.137  24.504  0.00  0.00    +0.292 HD
ENDBRANCH   2  12
ENDBRANCH   1   6
BRANCH   1  14
ATOM     14  C   UNL     1       9.849  -1.567  23.225  0.00  0.00    +0.217 C 
ATOM     15  N   UNL     1       9.119  -0.446  22.907  0.00  0.00    -0.315 N 
ATOM     16  H   UNL     1       8.324  -0.157  23.480  0.00  0.00    +0.149 HD
ATOM     17  O   UNL     1      10.680  -2.068  22.468  0.00  0.00    -0.275 OA
BRANCH  15  18
ATOM     18  C   UNL     1       9.326   0.228  21.644  0.00  0.00    +0.104 C 
BRANCH  18  19
ATOM     19  C   UNL     1       9.692   1.697  21.800  0.00  0.00    +0.019 C 
BRANCH  19  20
ATOM     20  C   UNL     1       9.003   2.362  22.996  0.00  0.00    +0.002 C 
BRANCH  20  21
ATOM     21  C   UNL     1       9.796   3.552  23.551  0.00  0.00    +0.006 C 
BRANCH  21  22
ATOM     22  C   UNL     1      11.310   3.460  23.372  0.00  0.00    +0.052 C 
BRANCH  22  23
ATOM     23  C   UNL     1      11.942   4.855  23.380  0.00  0.00    +0.042 C 
ATOM     24  O   UNL     1      13.175   4.890  23.125  0.00  0.00    -0.550 OA
ATOM     25  O   UNL     1      11.144   5.802  23.655  0.00  0.00    -0.550 OA
ENDBRANCH  22  23
ENDBRANCH  21  22
ENDBRANCH  20  21
ENDBRANCH  19  20
ENDBRANCH  18  19
ENDBRANCH  15  18
ENDBRANCH   1  14
TORSDOF 10
ENDMDL
MODEL 9
REMARK VINA RESULT:      -5.8      2.069      2.560
REMARK  Name = 
REMARK  10 active torsions:
REMARK  status: ('A' for Active; 'I' for Inactive)
REMARK    1  A    between atoms: O_1  and  C_2
REMARK    2  A    between atoms: C_3  and  N_21
REMARK    3  A    between atoms: C_5  and  C_6
REMARK    4  A    between atoms: C_6  and  C_7
REMARK    5  A    between atoms: N_9  and  C_10
REMARK    6  A    between atoms: C_10  and  C_11
REMARK    7  A    between atoms: C_11  and  C_12
REMARK    8  A    between atoms: C_12  and  C_13
REMARK    9  A    between atoms: C_13  and  C_14
REMARK   10  A    between atoms: C_14  and  C_15
REMARK                            x       y       z     vdW  Elec       q    Type
REMARK                         _______ _______ _______ _____ _____    ______ ____
ROOT
ATOM      1  C   UNL     1       5.657  -3.247  23.109  0.00  0.00    +0.131 C 
ENDROOT
BRANCH   1   6
ATOM      2  C   UNL     1       5.224  -6.285  26.186  0.00  0.00    +0.208 A 
ATOM      3  C   UNL     1       4.333  -6.217  25.108  0.00  0.00    +0.062 A 
ATOM      4  I   UNL     1       2.707  -7.533  24.926  0.00  0.00    -0.040 I 
ATOM      5  C   UNL     1       4.491  -5.248  24.108  0.00  0.00    +0.022 A 
ATOM      6  C   UNL     1       5.541  -4.321  24.167  0.00  0.00    -0.031 A 
ATOM      7  C   UNL     1       6.435  -4.379  25.248  0.00  0.00    +0.092 A 
ATOM      8  C   UNL     1       6.281  -5.360  26.246  0.00  0.00    +0.315 A 
BRANCH   8   9
ATOM      9  N   UNL     1       7.242  -5.382  27.355  0.00  0.00    +0.083 N 
ATOM     10  O   UNL     1       8.406  -5.018  27.137  0.00  0.00    +0.042 OA
ATOM     11  O   UNL     1       6.826  -5.753  28.465  0.00  0.00    -0.576 OA
ENDBRANCH   8   9
BRANCH   2  12
ATOM     12  O   UNL     1       5.005  -7.251  27.136  0.00  0.00    -0.501 OA
ATOM     13  H   UNL     1       5.836  -7.464  27.607  0.00  0.00    +0.292 HD
ENDBRANCH   2  12
ENDBRANCH   1   6
BRANCH   1  14
ATOM     14  C   UNL     1       7.030  -3.146  22.478  0.00  0.00    +0.217 C 
ATOM     15  N   UNL     1       7.610  -1.900  22.527  0.00  0.00    -0.315 N 
ATOM     16  H   UNL     1       7.067  -1.079  22.800  0.00  0.00    +0.149 HD
ATOM     17  O   UNL     1       7.577  -4.125  21.970  0.00  0.00    -0.275 OA
BRANCH  15  18
ATOM     18  C   UNL     1       8.939  -1.690  21.995  0.00  0.00    +0.104 C 
BRANCH  18  19
ATOM     19  C   UNL     1       9.209  -0.243  21.608  0.00  0.00    +0.019 C 
BRANCH  19  20
ATOM     20  C   UNL     1      10.114   0.485  22.606  0.00  0.00    +0.002 C 
BRANCH  20  21
ATOM     21  C   UNL     1       9.421   0.754  23.949  0.00  0.00    +0.006 C 
BRANCH  21  22
ATOM     22  C   UNL     1       9.967  -0.046  25.129  0.00  0.00    +0.052 C 
BRANCH  22  23
ATOM     23  C   UNL     1       8.825  -0.671  25.934  0.00  0.00    +0.042 C 
ATOM     24  O   UNL     1       7.810  -1.001  25.265  0.00  0.00    -0.550 OA
ATOM     25  O   UNL     1       9.039  -0.768  27.181  0.00  0.00    -0.550 OA
ENDBRANCH  22  23
ENDBRANCH  21  22
ENDBRANCH  20  21
ENDBRANCH  19  20
ENDBRANCH  18  19
ENDBRANCH  15  18
ENDBRANCH   1  14
TORSDOF 10
ENDMDL
