MODEL 1
REMARK VINA RESULT:      -7.1      0.000      0.000
REMARK  Name = 
REMARK  6 active torsions:
REMARK  status: ('A' for Active; 'I' for Inactive)
REMARK    1  A    between atoms: C_1  and  C_2
REMARK    2  A    between atoms: C_4  and  C_9
REMARK    3  A    between atoms: N_13  and  C_14
REMARK    4  A    between atoms: C_17  and  C_18
REMARK    5  A    between atoms: C_18  and  O_19
REMARK    6  A    between atoms: C_21  and  O_22
REMARK                            x       y       z     vdW  Elec       q    Type
REMARK                         _______ _______ _______ _____ _____    ______ ____
ROOT
ATOM      1  C   UNL     1       7.000  -4.269  24.726  0.00  0.00    +0.080 A 
ATOM      2  N   UNL     1       7.737  -3.282  24.095  0.00  0.00    -0.225 NA
ATOM      3  C   UNL     1       9.023  -3.435  24.308  0.00  0.00    +0.163 A 
ATOM      4  N   UNL     1      10.013  -2.622  23.865  0.00  0.00    -0.294 N 
ATOM      5  H   UNL     1      10.960  -2.948  24.016  0.00  0.00    +0.154 HD
ATOM      6  S   UNL     1       9.418  -4.833  25.246  0.00  0.00    -0.060 S 
ATOM      7  C   UNL     1       7.749  -5.189  25.426  0.00  0.00    +0.076 A 
ENDROOT
BRANCH   1  14
ATOM      8  C   UNL     1       2.716  -6.288  23.031  0.00  0.00    +0.047 C 
ATOM      9  C   UNL     1       3.462  -5.241  23.801  0.00  0.00    -0.015 A 
ATOM     10  C   UNL     1       2.757  -4.279  24.532  0.00  0.00    +0.126 A 
ATOM     11  F   UNL     1       1.417  -4.285  24.513  0.00  0.00    -0.205 F 
ATOM     12  C   UNL     1       3.415  -3.326  25.291  0.00  0.00    +0.039 A 
ATOM     13  C   UNL     1       4.808  -3.326  25.337  0.00  0.00    +0.013 A 
ATOM     14  C   UNL     1       5.547  -4.274  24.612  0.00  0.00    +0.001 A 
ATOM     15  C   UNL     1       4.865  -5.228  23.842  0.00  0.00    +0.016 A 
ENDBRANCH   1  14
BRANCH   4  16
ATOM     16  C   UNL     1       9.928  -1.236  23.624  0.00  0.00    +0.036 A 
ATOM     17  C   UNL     1       9.629  -0.679  22.374  0.00  0.00    +0.069 A 
ATOM     18  C   UNL     1       9.510   0.706  22.211  0.00  0.00    +0.133 A 
ATOM     19  C   UNL     1       9.763   1.578  23.270  0.00  0.00    +0.100 A 
ATOM     20  C   UNL     1      10.110   1.035  24.512  0.00  0.00    +0.020 A 
ATOM     21  C   UNL     1      10.191  -0.354  24.683  0.00  0.00    +0.024 A 
BRANCH  18  22
ATOM     22  O   UNL     1       9.106   1.199  20.994  0.00  0.00    -0.506 OA
ATOM     23  H   UNL     1       9.066   0.444  20.372  0.00  0.00    +0.292 HD
ENDBRANCH  18  22
BRANCH  19  24
ATOM     24  C   UNL     1       9.658   3.063  23.165  0.00  0.00    +0.340 C 
ATOM     25  O   UNL     1      10.446   3.811  23.719  0.00  0.00    -0.245 OA
BRANCH  24  26
ATOM     26  O   UNL     1       8.631   3.519  22.416  0.00  0.00    -0.477 OA
ATOM     27  H   UNL     1       7.909   2.856  22.331  0.00  0.00    +0.295 HD
ENDBRANCH  24  26
ENDBRANCH  19  24
ENDBRANCH   4  16
TORSDOF 5
ENDMDL
MODEL 2
REMARK VINA RESULT:      -7.0      1.170      1.803
REMARK  Name = 
REMARK  6 active torsions:
REMARK  status: ('A' for Active; 'I' for Inactive)
REMARK    1  A    between atoms: C_1  and  C_2
REMARK    2  A    between atoms: C_4  and  C_9
REMARK    3  A    between atoms: N_13  and  C_14
REMARK    4  A    between atoms: C_17  and  C_18
REMARK    5  A    between atoms: C_18  and  O_19
REMARK    6  A    between atoms: C_21  and  O_22
REMARK                            x       y       z     vdW  Elec       q    Type
REMARK                         _______ _______ _______ _____ _____    ______ ____
ROOT
ATOM      1  C   UNL     1       6.310  -4.855  25.107  0.00  0.00    +0.080 A 
ATOM      2  N   UNL     1       7.204  -4.018  24.461  0.00  0.00    -0.225 NA
ATOM      3  C   UNL     1       8.380  -4.031  25.045  0.00  0.00    +0.163 A 
ATOM      4  N   UNL     1       9.463  -3.299  24.687  0.00  0.00    -0.294 N 
ATOM      5  H   UNL     1      10.328  -3.517  25.167  0.00  0.00    +0.154 HD
ATOM      6  S   UNL     1       8.485  -5.117  26.387  0.00  0.00    -0.060 S 
ATOM      7  C   UNL     1       6.828  -5.518  26.198  0.00  0.00    +0.076 A 
ENDROOT
BRANCH   1  14
ATOM      8  C   UNL     1       1.465  -3.508  25.148  0.00  0.00    +0.047 C 
ATOM      9  C   UNL     1       2.595  -4.336  24.617  0.00  0.00    -0.015 A 
ATOM     10  C   UNL     1       2.380  -5.197  23.536  0.00  0.00    +0.126 A 
ATOM     11  F   UNL     1       1.154  -5.295  23.002  0.00  0.00    -0.205 F 
ATOM     12  C   UNL     1       3.412  -5.942  22.992  0.00  0.00    +0.039 A 
ATOM     13  C   UNL     1       4.695  -5.830  23.524  0.00  0.00    +0.013 A 
ATOM     14  C   UNL     1       4.946  -4.979  24.612  0.00  0.00    +0.001 A 
ATOM     15  C   UNL     1       3.887  -4.236  25.156  0.00  0.00    +0.016 A 
ENDBRANCH   1  14
BRANCH   4  16
ATOM     16  C   UNL     1       9.463  -2.028  24.078  0.00  0.00    +0.036 A 
ATOM     17  C   UNL     1       9.535  -1.827  22.694  0.00  0.00    +0.069 A 
ATOM     18  C   UNL     1       9.481  -0.540  22.148  0.00  0.00    +0.133 A 
ATOM     19  C   UNL     1       9.433   0.587  22.969  0.00  0.00    +0.100 A 
ATOM     20  C   UNL     1       9.409   0.401  24.355  0.00  0.00    +0.020 A 
ATOM     21  C   UNL     1       9.425  -0.891  24.900  0.00  0.00    +0.024 A 
BRANCH  18  22
ATOM     22  O   UNL     1       9.443  -0.399  20.783  0.00  0.00    -0.506 OA
ATOM     23  H   UNL     1       9.991  -1.113  20.400  0.00  0.00    +0.292 HD
ENDBRANCH  18  22
BRANCH  19  24
ATOM     24  C   UNL     1       9.377   1.987  22.455  0.00  0.00    +0.340 C 
ATOM     25  O   UNL     1       8.554   2.793  22.852  0.00  0.00    -0.245 OA
BRANCH  24  26
ATOM     26  O   UNL     1      10.300   2.296  21.518  0.00  0.00    -0.477 OA
ATOM     27  H   UNL     1      10.549   3.247  21.540  0.00  0.00    +0.295 HD
ENDBRANCH  24  26
ENDBRANCH  19  24
ENDBRANCH   4  16
TORSDOF 5
ENDMDL
MODEL 3
REMARK VINA RESULT:      -7.0      4.786      7.986
REMARK  Name = 
REMARK  6 active torsions:
REMARK  status: ('A' for Active; 'I' for Inactive)
REMARK    1  A    between atoms: C_1  and  C_2
REMARK    2  A    between atoms: C_4  and  C_9
REMARK    3  A    between atoms: N_13  and  C_14
REMARK    4  A    between atoms: C_17  and  C_18
REMARK    5  A    between atoms: C_18  and  O_19
REMARK    6  A    between atoms: C_21  and  O_22
REMARK                            x       y       z     vdW  Elec       q    Type
REMARK                         _______ _______ _______ _____ _____    ______ ____
ROOT
ATOM      1  C   UNL     1       9.178   0.092  24.196  0.00  0.00    +0.080 A 
ATOM      2  N   UNL     1       8.960  -1.165  24.733  0.00  0.00    -0.225 NA
ATOM      3  C   UNL     1       9.495  -2.104  23.987  0.00  0.00    +0.163 A 
ATOM      4  N   UNL     1       9.432  -3.439  24.210  0.00  0.00    -0.294 N 
ATOM      5  H   UNL     1      10.001  -4.020  23.605  0.00  0.00    +0.154 HD
ATOM      6  S   UNL     1      10.355  -1.503  22.612  0.00  0.00    -0.060 S 
ATOM      7  C   UNL     1       9.901   0.099  23.023  0.00  0.00    +0.076 A 
ENDROOT
BRANCH   1  14
ATOM      8  C   UNL     1       8.902   5.079  24.783  0.00  0.00    +0.047 C 
ATOM      9  C   UNL     1       8.512   3.686  25.172  0.00  0.00    -0.015 A 
ATOM     10  C   UNL     1       7.537   3.484  26.154  0.00  0.00    +0.126 A 
ATOM     11  F   UNL     1       6.980   4.542  26.762  0.00  0.00    -0.205 F 
ATOM     12  C   UNL     1       7.121   2.211  26.505  0.00  0.00    +0.039 A 
ATOM     13  C   UNL     1       7.676   1.105  25.864  0.00  0.00    +0.013 A 
ATOM     14  C   UNL     1       8.659   1.271  24.876  0.00  0.00    +0.001 A 
ATOM     15  C   UNL     1       9.076   2.568  24.538  0.00  0.00    +0.016 A 
ENDBRANCH   1  14
BRANCH   4  16
ATOM     16  C   UNL     1       8.394  -4.144  24.851  0.00  0.00    +0.036 A 
ATOM     17  C   UNL     1       8.544  -4.814  26.072  0.00  0.00    +0.069 A 
ATOM     18  C   UNL     1       7.459  -5.454  26.681  0.00  0.00    +0.133 A 
ATOM     19  C   UNL     1       6.214  -5.512  26.054  0.00  0.00    +0.100 A 
ATOM     20  C   UNL     1       6.065  -4.888  24.811  0.00  0.00    +0.020 A 
ATOM     21  C   UNL     1       7.142  -4.214  24.220  0.00  0.00    +0.024 A 
BRANCH  18  22
ATOM     22  O   UNL     1       7.627  -6.001  27.929  0.00  0.00    -0.506 OA
ATOM     23  H   UNL     1       8.357  -6.651  27.868  0.00  0.00    +0.292 HD
ENDBRANCH  18  22
BRANCH  19  24
ATOM     24  C   UNL     1       5.018  -6.181  26.645  0.00  0.00    +0.340 C 
ATOM     25  O   UNL     1       3.887  -5.759  26.475  0.00  0.00    -0.245 OA
BRANCH  24  26
ATOM     26  O   UNL     1       5.276  -7.283  27.382  0.00  0.00    -0.477 OA
ATOM     27  H   UNL     1       5.017  -8.110  26.918  0.00  0.00    +0.295 HD
ENDBRANCH  24  26
ENDBRANCH  19  24
ENDBRANCH   4  16
TORSDOF 5
ENDMDL
MODEL 4
REMARK VINA RESULT:      -6.8      4.634      7.489
REMARK  Name = 
REMARK  6 active torsions:
REMARK  status: ('A' for Active; 'I' for Inactive)
REMARK    1  A    between atoms: C_1  and  C_2
REMARK    2  A    between atoms: C_4  and  C_9
REMARK    3  A    between atoms: N_13  and  C_14
REMARK    4  A    between atoms: C_17  and  C_18
REMARK    5  A    between atoms: C_18  and  O_19
REMARK    6  A    between atoms: C_21  and  O_22
REMARK                            x       y       z     vdW  Elec       q    Type
REMARK                         _______ _______ _______ _____ _____    ______ ____
ROOT
ATOM      1  C   UNL     1       8.388  -0.012  22.837  0.00  0.00    +0.080 A 
ATOM      2  N   UNL     1       7.979  -1.232  23.346  0.00  0.00    -0.225 NA
ATOM      3  C   UNL     1       8.937  -2.128  23.270  0.00  0.00    +0.163 A 
ATOM      4  N   UNL     1       8.853  -3.427  23.647  0.00  0.00    -0.294 N 
ATOM      5  H   UNL     1       9.719  -3.953  23.634  0.00  0.00    +0.154 HD
ATOM      6  S   UNL     1      10.421  -1.516  22.627  0.00  0.00    -0.060 S 
ATOM      7  C   UNL     1       9.685   0.013  22.374  0.00  0.00    +0.076 A 
ENDROOT
BRANCH   1  14
ATOM      8  C   UNL     1       4.488   2.511  24.767  0.00  0.00    +0.047 C 
ATOM      9  C   UNL     1       5.580   2.352  23.753  0.00  0.00    -0.015 A 
ATOM     10  C   UNL     1       5.808   3.361  22.812  0.00  0.00    +0.126 A 
ATOM     11  F   UNL     1       5.027   4.451  22.807  0.00  0.00    -0.205 F 
ATOM     12  C   UNL     1       6.837   3.267  21.890  0.00  0.00    +0.039 A 
ATOM     13  C   UNL     1       7.669   2.149  21.901  0.00  0.00    +0.013 A 
ATOM     14  C   UNL     1       7.465   1.115  22.829  0.00  0.00    +0.001 A 
ATOM     15  C   UNL     1       6.413   1.223  23.751  0.00  0.00    +0.016 A 
ENDBRANCH   1  14
BRANCH   4  16
ATOM     16  C   UNL     1       7.702  -4.241  23.634  0.00  0.00    +0.036 A 
ATOM     17  C   UNL     1       7.199  -4.862  22.484  0.00  0.00    +0.069 A 
ATOM     18  C   UNL     1       6.080  -5.700  22.547  0.00  0.00    +0.133 A 
ATOM     19  C   UNL     1       5.384  -5.880  23.743  0.00  0.00    +0.100 A 
ATOM     20  C   UNL     1       5.849  -5.226  24.889  0.00  0.00    +0.020 A 
ATOM     21  C   UNL     1       6.993  -4.418  24.832  0.00  0.00    +0.024 A 
BRANCH  18  22
ATOM     22  O   UNL     1       5.691  -6.373  21.416  0.00  0.00    -0.506 OA
ATOM     23  H   UNL     1       5.781  -7.330  21.600  0.00  0.00    +0.292 HD
ENDBRANCH  18  22
BRANCH  19  24
ATOM     24  C   UNL     1       4.183  -6.754  23.880  0.00  0.00    +0.340 C 
ATOM     25  O   UNL     1       4.064  -7.558  24.789  0.00  0.00    -0.245 OA
BRANCH  24  26
ATOM     26  O   UNL     1       3.239  -6.594  22.927  0.00  0.00    -0.477 OA
ATOM     27  H   UNL     1       3.265  -5.697  22.525  0.00  0.00    +0.295 HD
ENDBRANCH  24  26
ENDBRANCH  19  24
ENDBRANCH   4  16
TORSDOF 5
ENDMDL
MODEL 5
REMARK VINA RESULT:      -6.7      5.272      8.986
REMARK  Name = 
REMARK  6 active torsions:
REMARK  status: ('A' for Active; 'I' for Inactive)
REMARK    1  A    between atoms: C_1  and  C_2
REMARK    2  A    between atoms: C_4  and  C_9
REMARK    3  A    between atoms: N_13  and  C_14
REMARK    4  A    between atoms: C_17  and  C_18
REMARK    5  A    between atoms: C_18  and  O_19
REMARK    6  A    between atoms: C_21  and  O_22
REMARK                            x       y       z     vdW  Elec       q    Type
REMARK                         _______ _______ _______ _____ _____    ______ ____
ROOT
ATOM      1  C   UNL     1       8.027   3.982  23.417  0.00  0.00    +0.080 A 
ATOM      2  N   UNL     1       8.135   2.620  23.193  0.00  0.00    -0.225 NA
ATOM      3  C   UNL     1       6.985   2.101  22.830  0.00  0.00    +0.163 A 
ATOM      4  N   UNL     1       6.741   0.794  22.572  0.00  0.00    -0.294 N 
ATOM      5  H   UNL     1       5.829   0.577  22.186  0.00  0.00    +0.154 HD
ATOM      6  S   UNL     1       5.709   3.258  22.679  0.00  0.00    -0.060 S 
ATOM      7  C   UNL     1       6.767   4.500  23.210  0.00  0.00    +0.076 A 
ENDROOT
BRANCH   1  14
ATOM      8  C   UNL     1      12.948   4.989  23.175  0.00  0.00    +0.047 C 
ATOM      9  C   UNL     1      11.578   5.248  23.724  0.00  0.00    -0.015 A 
ATOM     10  C   UNL     1      11.369   6.323  24.594  0.00  0.00    +0.126 A 
ATOM     11  F   UNL     1      12.404   7.096  24.952  0.00  0.00    -0.205 F 
ATOM     12  C   UNL     1      10.108   6.617  25.084  0.00  0.00    +0.039 A 
ATOM     13  C   UNL     1       9.021   5.834  24.700  0.00  0.00    +0.013 A 
ATOM     14  C   UNL     1       9.196   4.745  23.831  0.00  0.00    +0.001 A 
ATOM     15  C   UNL     1      10.483   4.455  23.350  0.00  0.00    +0.016 A 
ENDBRANCH   1  14
BRANCH   4  16
ATOM     16  C   UNL     1       7.385  -0.320  23.148  0.00  0.00    +0.036 A 
ATOM     17  C   UNL     1       8.569  -0.879  22.650  0.00  0.00    +0.069 A 
ATOM     18  C   UNL     1       9.187  -1.955  23.298  0.00  0.00    +0.133 A 
ATOM     19  C   UNL     1       8.600  -2.554  24.414  0.00  0.00    +0.100 A 
ATOM     20  C   UNL     1       7.392  -2.034  24.891  0.00  0.00    +0.020 A 
ATOM     21  C   UNL     1       6.795  -0.932  24.264  0.00  0.00    +0.024 A 
BRANCH  18  22
ATOM     22  O   UNL     1      10.403  -2.397  22.839  0.00  0.00    -0.506 OA
ATOM     23  H   UNL     1      10.808  -1.663  22.334  0.00  0.00    +0.292 HD
ENDBRANCH  18  22
BRANCH  19  24
ATOM     24  C   UNL     1       9.202  -3.704  25.150  0.00  0.00    +0.340 C 
ATOM     25  O   UNL     1      10.033  -4.438  24.642  0.00  0.00    -0.245 OA
BRANCH  24  26
ATOM     26  O   UNL     1       8.761  -3.876  26.414  0.00  0.00    -0.477 OA
ATOM     27  H   UNL     1       8.080  -4.583  26.479  0.00  0.00    +0.295 HD
ENDBRANCH  24  26
ENDBRANCH  19  24
ENDBRANCH   4  16
TORSDOF 5
ENDMDL
MODEL 6
REMARK VINA RESULT:      -6.6      4.258      7.563
REMARK  Name = 
REMARK  6 active torsions:
REMARK  status: ('A' for Active; 'I' for Inactive)
REMARK    1  A    between atoms: C_1  and  C_2
REMARK    2  A    between atoms: C_4  and  C_9
REMARK    3  A    between atoms: N_13  and  C_14
REMARK    4  A    between atoms: C_17  and  C_18
REMARK    5  A    between atoms: C_18  and  O_19
REMARK    6  A    between atoms: C_21  and  O_22
REMARK                            x       y       z     vdW  Elec       q    Type
REMARK                         _______ _______ _______ _____ _____    ______ ____
ROOT
ATOM      1  C   UNL     1       8.597   1.586  23.819  0.00  0.00    +0.080 A 
ATOM      2  N   UNL     1       8.226   0.261  23.965  0.00  0.00    -0.225 NA
ATOM      3  C   UNL     1       9.254  -0.493  24.278  0.00  0.00    +0.163 A 
ATOM      4  N   UNL     1       9.240  -1.836  24.457  0.00  0.00    -0.294 N 
ATOM      5  H   UNL     1      10.094  -2.249  24.814  0.00  0.00    +0.154 HD
ATOM      6  S   UNL     1      10.732   0.383  24.474  0.00  0.00    -0.060 S 
ATOM      7  C   UNL     1       9.935   1.836  24.033  0.00  0.00    +0.076 A 
ENDROOT
BRANCH   1  14
ATOM      8  C   UNL     1       7.311   6.060  21.916  0.00  0.00    +0.047 C 
ATOM      9  C   UNL     1       6.956   4.749  22.547  0.00  0.00    -0.015 A 
ATOM     10  C   UNL     1       5.613   4.403  22.726  0.00  0.00    +0.126 A 
ATOM     11  F   UNL     1       4.653   5.263  22.356  0.00  0.00    -0.205 F 
ATOM     12  C   UNL     1       5.249   3.180  23.265  0.00  0.00    +0.039 A 
ATOM     13  C   UNL     1       6.238   2.269  23.630  0.00  0.00    +0.013 A 
ATOM     14  C   UNL     1       7.597   2.585  23.469  0.00  0.00    +0.001 A 
ATOM     15  C   UNL     1       7.948   3.832  22.929  0.00  0.00    +0.016 A 
ENDBRANCH   1  14
BRANCH   4  16
ATOM     16  C   UNL     1       8.388  -2.766  23.828  0.00  0.00    +0.036 A 
ATOM     17  C   UNL     1       7.342  -2.408  22.968  0.00  0.00    +0.069 A 
ATOM     18  C   UNL     1       6.562  -3.383  22.335  0.00  0.00    +0.133 A 
ATOM     19  C   UNL     1       6.751  -4.740  22.603  0.00  0.00    +0.100 A 
ATOM     20  C   UNL     1       7.762  -5.107  23.498  0.00  0.00    +0.020 A 
ATOM     21  C   UNL     1       8.567  -4.131  24.101  0.00  0.00    +0.024 A 
BRANCH  18  22
ATOM     22  O   UNL     1       5.623  -2.987  21.416  0.00  0.00    -0.506 OA
ATOM     23  H   UNL     1       5.494  -3.730  20.791  0.00  0.00    +0.292 HD
ENDBRANCH  18  22
BRANCH  19  24
ATOM     24  C   UNL     1       5.955  -5.829  21.967  0.00  0.00    +0.340 C 
ATOM     25  O   UNL     1       5.789  -5.895  20.761  0.00  0.00    -0.245 OA
BRANCH  24  26
ATOM     26  O   UNL     1       5.430  -6.735  22.821  0.00  0.00    -0.477 OA
ATOM     27  H   UNL     1       5.024  -6.312  23.610  0.00  0.00    +0.295 HD
ENDBRANCH  24  26
ENDBRANCH  19  24
ENDBRANCH   4  16
TORSDOF 5
ENDMDL
MODEL 7
REMARK VINA RESULT:      -6.5      4.698      7.600
REMARK  Name = 
REMARK  6 active torsions:
REMARK  status: ('A' for Active; 'I' for Inactive)
REMARK    1  A    between atoms: C_1  and  C_2
REMARK    2  A    between atoms: C_4  and  C_9
REMARK    3  A    between atoms: N_13  and  C_14
REMARK    4  A    between atoms: C_17  and  C_18
REMARK    5  A    between atoms: C_18  and  O_19
REMARK    6  A    between atoms: C_21  and  O_22
REMARK                            x       y       z     vdW  Elec       q    Type
REMARK                         _______ _______ _______ _____ _____    ______ ____
ROOT
ATOM      1  C   UNL     1       8.491   0.079  23.168  0.00  0.00    +0.080 A 
ATOM      2  N   UNL     1       8.397  -1.046  23.967  0.00  0.00    -0.225 NA
ATOM      3  C   UNL     1       9.316  -1.932  23.658  0.00  0.00    +0.163 A 
ATOM      4  N   UNL     1       9.476  -3.153  24.222  0.00  0.00    -0.294 N 
ATOM      5  H   UNL     1      10.308  -3.665  23.951  0.00  0.00    +0.154 HD
ATOM      6  S   UNL     1      10.393  -1.417  22.407  0.00  0.00    -0.060 S 
ATOM      7  C   UNL     1       9.508   0.043  22.239  0.00  0.00    +0.076 A 
ENDROOT
BRANCH   1  14
ATOM      8  C   UNL     1       7.044   4.824  22.335  0.00  0.00    +0.047 C 
ATOM      9  C   UNL     1       6.839   3.476  22.958  0.00  0.00    -0.015 A 
ATOM     10  C   UNL     1       5.663   3.209  23.667  0.00  0.00    +0.126 A 
ATOM     11  F   UNL     1       4.741   4.171  23.807  0.00  0.00    -0.205 F 
ATOM     12  C   UNL     1       5.422   1.961  24.217  0.00  0.00    +0.039 A 
ATOM     13  C   UNL     1       6.363   0.946  24.056  0.00  0.00    +0.013 A 
ATOM     14  C   UNL     1       7.556   1.181  23.354  0.00  0.00    +0.001 A 
ATOM     15  C   UNL     1       7.788   2.454  22.810  0.00  0.00    +0.016 A 
ENDBRANCH   1  14
BRANCH   4  16
ATOM     16  C   UNL     1       8.470  -3.971  24.775  0.00  0.00    +0.036 A 
ATOM     17  C   UNL     1       8.590  -4.630  26.005  0.00  0.00    +0.069 A 
ATOM     18  C   UNL     1       7.534  -5.388  26.524  0.00  0.00    +0.133 A 
ATOM     19  C   UNL     1       6.358  -5.574  25.796  0.00  0.00    +0.100 A 
ATOM     20  C   UNL     1       6.245  -4.960  24.545  0.00  0.00    +0.020 A 
ATOM     21  C   UNL     1       7.289  -4.169  24.043  0.00  0.00    +0.024 A 
BRANCH  18  22
ATOM     22  O   UNL     1       7.657  -5.923  27.782  0.00  0.00    -0.506 OA
ATOM     23  H   UNL     1       7.824  -6.881  27.677  0.00  0.00    +0.292 HD
ENDBRANCH  18  22
BRANCH  19  24
ATOM     24  C   UNL     1       5.196  -6.371  26.287  0.00  0.00    +0.340 C 
ATOM     25  O   UNL     1       4.589  -7.146  25.568  0.00  0.00    -0.245 OA
BRANCH  24  26
ATOM     26  O   UNL     1       4.865  -6.173  27.581  0.00  0.00    -0.477 OA
ATOM     27  H   UNL     1       5.604  -6.391  28.193  0.00  0.00    +0.295 HD
ENDBRANCH  24  26
ENDBRANCH  19  24
ENDBRANCH   4  16
TORSDOF 5
ENDMDL
MODEL 8
REMARK VINA RESULT:      -6.5      2.386      3.468
REMARK  Name = 
REMARK  6 active torsions:
REMARK  status: ('A' for Active; 'I' for Inactive)
REMARK    1  A    between atoms: C_1  and  C_2
REMARK    2  A    between atoms: C_4  and  C_9
REMARK    3  A    between atoms: N_13  and  C_14
REMARK    4  A    between atoms: C_17  and  C_18
REMARK    5  A    between atoms: C_18  and  O_19
REMARK    6  A    between atoms: C_21  and  O_22
REMARK                            x       y       z     vdW  Elec       q    Type
REMARK                         _______ _______ _______ _____ _____    ______ ____
ROOT
ATOM      1  C   UNL     1       5.205  -5.978  26.035  0.00  0.00    +0.080 A 
ATOM      2  N   UNL     1       6.370  -5.309  25.705  0.00  0.00    -0.225 NA
ATOM      3  C   UNL     1       7.169  -5.198  26.741  0.00  0.00    +0.163 A 
ATOM      4  N   UNL     1       8.369  -4.568  26.766  0.00  0.00    -0.294 N 
ATOM      5  H   UNL     1       8.914  -4.678  27.613  0.00  0.00    +0.154 HD
ATOM      6  S   UNL     1       6.571  -5.960  28.173  0.00  0.00    -0.060 S 
ATOM      7  C   UNL     1       5.127  -6.385  27.349  0.00  0.00    +0.076 A 
ENDROOT
BRANCH   1  14
ATOM      8  C   UNL     1       1.519  -8.746  24.024  0.00  0.00    +0.047 C 
ATOM      9  C   UNL     1       2.394  -7.529  24.034  0.00  0.00    -0.015 A 
ATOM     10  C   UNL     1       2.176  -6.507  23.105  0.00  0.00    +0.126 A 
ATOM     11  F   UNL     1       1.203  -6.638  22.192  0.00  0.00    -0.205 F 
ATOM     12  C   UNL     1       2.937  -5.350  23.116  0.00  0.00    +0.039 A 
ATOM     13  C   UNL     1       3.936  -5.194  24.075  0.00  0.00    +0.013 A 
ATOM     14  C   UNL     1       4.184  -6.202  25.020  0.00  0.00    +0.001 A 
ATOM     15  C   UNL     1       3.409  -7.372  24.990  0.00  0.00    +0.016 A 
ENDBRANCH   1  14
BRANCH   4  16
ATOM     16  C   UNL     1       8.764  -3.464  25.984  0.00  0.00    +0.036 A 
ATOM     17  C   UNL     1       8.539  -2.131  26.349  0.00  0.00    +0.069 A 
ATOM     18  C   UNL     1       9.001  -1.077  25.552  0.00  0.00    +0.133 A 
ATOM     19  C   UNL     1       9.629  -1.322  24.330  0.00  0.00    +0.100 A 
ATOM     20  C   UNL     1       9.816  -2.650  23.932  0.00  0.00    +0.020 A 
ATOM     21  C   UNL     1       9.388  -3.705  24.750  0.00  0.00    +0.024 A 
BRANCH  18  22
ATOM     22  O   UNL     1       8.855   0.211  26.005  0.00  0.00    -0.506 OA
ATOM     23  H   UNL     1       9.743   0.531  26.264  0.00  0.00    +0.292 HD
ENDBRANCH  18  22
BRANCH  19  24
ATOM     24  C   UNL     1      10.142  -0.248  23.431  0.00  0.00    +0.340 C 
ATOM     25  O   UNL     1       9.890  -0.222  22.238  0.00  0.00    -0.245 OA
BRANCH  24  26
ATOM     26  O   UNL     1      10.905   0.692  24.029  0.00  0.00    -0.477 OA
ATOM     27  H   UNL     1      11.332   1.296  23.380  0.00  0.00    +0.295 HD
ENDBRANCH  24  26
ENDBRANCH  19  24
ENDBRANCH   4  16
TORSDOF 5
ENDMDL
MODEL 9
REMARK VINA RESULT:      -6.5      1.476      2.127
REMARK  Name = 
REMARK  6 active torsions:
REMARK  status: ('A' for Active; 'I' for Inactive)
REMARK    1  A    between atoms: C_1  and  C_2
REMARK    2  A    between atoms: C_4  and  C_9
REMARK    3  A    between atoms: N_13  and  C_14
REMARK    4  A    between atoms: C_17  and  C_18
REMARK    5  A    between atoms: C_18  and  O_19
REMARK    6  A    between atoms: C_21  and  O_22
REMARK                            x       y       z     vdW  Elec       q    Type
REMARK                         _______ _______ _______ _____ _____    ______ ____
ROOT
ATOM      1  C   UNL     1       7.230  -3.982  25.634  0.00  0.00    +0.080 A 
ATOM      2  N   UNL     1       7.831  -3.034  24.824  0.00  0.00    -0.225 NA
ATOM      3  C   UNL     1       9.074  -3.357  24.550  0.00  0.00    +0.163 A 
ATOM      4  N   UNL     1       9.949  -2.628  23.815  0.00  0.00    -0.294 N 
ATOM      5  H   UNL     1      10.831  -3.077  23.597  0.00  0.00    +0.154 HD
ATOM      6  S   UNL     1       9.568  -4.874  25.216  0.00  0.00    -0.060 S 
ATOM      7  C   UNL     1       8.038  -5.046  25.972  0.00  0.00    +0.076 A 
ENDROOT
BRANCH   1  14
ATOM      8  C   UNL     1       3.430  -1.077  27.189  0.00  0.00    +0.047 C 
ATOM      9  C   UNL     1       3.994  -2.412  26.806  0.00  0.00    -0.015 A 
ATOM     10  C   UNL     1       3.156  -3.529  26.743  0.00  0.00    +0.126 A 
ATOM     11  F   UNL     1       1.858  -3.403  27.056  0.00  0.00    -0.205 F 
ATOM     12  C   UNL     1       3.635  -4.768  26.348  0.00  0.00    +0.039 A 
ATOM     13  C   UNL     1       4.977  -4.905  25.998  0.00  0.00    +0.013 A 
ATOM     14  C   UNL     1       5.847  -3.805  26.054  0.00  0.00    +0.001 A 
ATOM     15  C   UNL     1       5.347  -2.559  26.464  0.00  0.00    +0.016 A 
ENDBRANCH   1  14
BRANCH   4  16
ATOM     16  C   UNL     1       9.985  -1.225  23.685  0.00  0.00    +0.036 A 
ATOM     17  C   UNL     1       9.809  -0.550  22.470  0.00  0.00    +0.069 A 
ATOM     18  C   UNL     1       9.807   0.848  22.416  0.00  0.00    +0.133 A 
ATOM     19  C   UNL     1      10.058   1.612  23.556  0.00  0.00    +0.100 A 
ATOM     20  C   UNL     1      10.283   0.948  24.766  0.00  0.00    +0.020 A 
ATOM     21  C   UNL     1      10.247  -0.452  24.827  0.00  0.00    +0.024 A 
BRANCH  18  22
ATOM     22  O   UNL     1       9.519   1.465  21.223  0.00  0.00    -0.506 OA
ATOM     23  H   UNL     1      10.318   1.404  20.662  0.00  0.00    +0.292 HD
ENDBRANCH  18  22
BRANCH  19  24
ATOM     24  C   UNL     1      10.073   3.104  23.568  0.00  0.00    +0.340 C 
ATOM     25  O   UNL     1       9.323   3.757  24.273  0.00  0.00    -0.245 OA
BRANCH  24  26
ATOM     26  O   UNL     1      10.975   3.680  22.744  0.00  0.00    -0.477 OA
ATOM     27  H   UNL     1      10.947   4.662  22.788  0.00  0.00    +0.295 HD
ENDBRANCH  24  26
ENDBRANCH  19  24
ENDBRANCH   4  16
TORSDOF 5
ENDMDL
