MODEL 1
REMARK VINA RESULT:      -7.9      0.000      0.000
REMARK  Name = 
REMARK  22 active torsions:
REMARK  status: ('A' for Active; 'I' for Inactive)
REMARK    1  A    between atoms: C_2  and  C_4
REMARK    2  A    between atoms: N_6  and  C_7
REMARK    3  A    between atoms: C_10  and  C_12
REMARK    4  A    between atoms: C_12  and  O_13
REMARK    5  A    between atoms: O_13  and  P_14
REMARK    6  A    between atoms: P_14  and  O_15
REMARK    7  A    between atoms: P_14  and  O_17
REMARK    8  A    between atoms: O_17  and  P_18
REMARK    9  A    between atoms: P_18  and  O_19
REMARK   10  A    between atoms: P_18  and  O_21
REMARK   11  A    between atoms: O_21  and  C_22
REMARK   12  A    between atoms: C_22  and  C_23
REMARK   13  A    between atoms: C_26  and  N_38
REMARK   14  A    between atoms: C_28  and  O_30
REMARK   15  A    between atoms: O_30  and  P_31
REMARK   16  A    between atoms: P_31  and  O_32
REMARK   17  A    between atoms: P_31  and  O_33
REMARK   18  A    between atoms: C_35  and  O_37
REMARK   19  A    between atoms: C_48  and  O_50
REMARK   20  A    between atoms: C_51  and  O_53
REMARK   21  A    between atoms: C_54  and  O_56
REMARK   22  A    between atoms: C_57  and  O_59
REMARK                            x       y       z     vdW  Elec       q    Type
REMARK                         _______ _______ _______ _____ _____    ______ ____
ROOT
ATOM      1  P   UNL     1       6.688  -4.786  22.749  0.00  0.00    +0.483 P 
ATOM      2  O   UNL     1       7.079  -5.124  21.313  0.00  0.00    -0.227 OA
ENDROOT
BRANCH   1   3
ATOM      3  O   UNL     1       6.147  -3.242  22.758  0.00  0.00    -0.302 OA
ATOM      4  H   UNL     1       6.111  -2.820  21.879  0.00  0.00    +0.222 HD
ENDBRANCH   1   3
BRANCH   1   5
ATOM      5  O   UNL     1       8.306  -4.280  23.096  0.00  0.00    -0.186 OA
BRANCH   5   6
ATOM      6  P   UNL     1       8.662  -4.592  24.759  0.00  0.00    +0.483 P 
ATOM      7  O   UNL     1      10.128  -4.207  24.578  0.00  0.00    -0.227 OA
BRANCH   6   8
ATOM      8  O   UNL     1       9.019  -4.904  26.423  0.00  0.00    -0.302 OA
ATOM      9  H   UNL     1       9.989  -4.755  26.474  0.00  0.00    +0.222 HD
ENDBRANCH   6   8
BRANCH   6  10
ATOM     10  O   UNL     1       7.802  -3.259  25.206  0.00  0.00    -0.284 OA
BRANCH  10  11
ATOM     11  C   UNL     1       8.574  -2.198  25.780  0.00  0.00    +0.206 C 
BRANCH  11  15
ATOM     12  C   UNL     1       8.375  -0.341  22.630  0.00  0.00    +0.239 C 
ATOM     13  C   UNL     1       9.884  -0.627  22.730  0.00  0.00    +0.193 C 
ATOM     14  C   UNL     1      10.120  -0.892  24.219  0.00  0.00    +0.178 C 
ATOM     15  C   UNL     1       8.716  -1.032  24.808  0.00  0.00    +0.178 C 
ATOM     16  O   UNL     1       7.822  -1.172  23.684  0.00  0.00    -0.348 OA
BRANCH  12  21
ATOM     17  C   UNL     1       6.252   2.756  22.955  0.00  0.00    +0.030 C 
ATOM     18  C   UNL     1       7.220   3.879  23.127  0.00  0.00    +0.077 C 
ATOM     19  C   UNL     1       8.703   3.466  23.249  0.00  0.00    +0.166 C 
ATOM     20  C   UNL     1       9.078   2.063  22.681  0.00  0.00    +0.233 C 
ATOM     21  N   UNL     1       7.994   1.080  22.792  0.00  0.00    -0.281 N 
ATOM     22  C   UNL     1       6.668   1.499  22.785  0.00  0.00    +0.084 C 
BRANCH  17  26
ATOM     23  N   UNL     1       4.212   3.678  22.027  0.00  0.00    -0.326 N 
ATOM     24  H   UNL     1       4.717   4.058  21.241  0.00  0.00    +0.145 HD
ATOM     25  H   UNL     1       3.214   3.828  22.075  0.00  0.00    +0.145 HD
ATOM     26  C   UNL     1       4.773   2.957  23.032  0.00  0.00    +0.239 C 
ATOM     27  O   UNL     1       4.083   2.523  23.945  0.00  0.00    -0.271 OA
ENDBRANCH  17  26
BRANCH  20  28
ATOM     28  O   UNL     1       9.419   2.172  21.313  0.00  0.00    -0.372 OA
ATOM     29  H   UNL     1      10.360   1.896  21.293  0.00  0.00    +0.212 HD
ENDBRANCH  20  28
BRANCH  19  30
ATOM     30  O   UNL     1       9.087   3.575  24.628  0.00  0.00    -0.387 OA
ATOM     31  H   UNL     1       8.275   3.802  25.129  0.00  0.00    +0.210 HD
ENDBRANCH  19  30
ENDBRANCH  12  21
BRANCH  14  32
ATOM     32  O   UNL     1      10.801   0.208  24.824  0.00  0.00    -0.386 OA
ATOM     33  H   UNL     1      11.653   0.297  24.355  0.00  0.00    +0.210 HD
ENDBRANCH  14  32
BRANCH  13  34
ATOM     34  O   UNL     1      10.214  -1.805  21.964  0.00  0.00    -0.385 OA
ATOM     35  H   UNL     1      10.707  -2.415  22.541  0.00  0.00    +0.210 HD
ENDBRANCH  13  34
ENDBRANCH  11  15
ENDBRANCH  10  11
ENDBRANCH   6  10
ENDBRANCH   5   6
ENDBRANCH   1   5
BRANCH   1  36
ATOM     36  O   UNL     1       5.070  -5.292  22.400  0.00  0.00    -0.284 OA
BRANCH  36  37
ATOM     37  C   UNL     1       4.758  -6.564  22.970  0.00  0.00    +0.206 C 
BRANCH  37  38
ATOM     38  C   UNL     1       3.613  -6.468  23.993  0.00  0.00    +0.178 C 
ATOM     39  C   UNL     1       3.925  -7.200  25.293  0.00  0.00    +0.179 C 
ATOM     40  C   UNL     1       4.387  -6.126  26.279  0.00  0.00    +0.211 C 
ATOM     41  C   UNL     1       4.254  -4.826  25.491  0.00  0.00    +0.254 C 
ATOM     42  O   UNL     1       3.400  -5.097  24.364  0.00  0.00    -0.346 OA
BRANCH  41  43
ATOM     43  N   UNL     1       3.698  -3.717  26.241  0.00  0.00    -0.285 N 
ATOM     44  C   UNL     1       4.029  -2.390  26.162  0.00  0.00    +0.167 A 
ATOM     45  N   UNL     1       4.855  -1.782  25.291  0.00  0.00    -0.216 NA
ATOM     46  C   UNL     1       4.963  -0.463  25.585  0.00  0.00    +0.225 A 
ATOM     47  N   UNL     1       4.373   0.235  26.581  0.00  0.00    -0.219 NA
ATOM     48  C   UNL     1       3.557  -0.428  27.430  0.00  0.00    +0.147 A 
ATOM     49  N   UNL     1       2.983   0.270  28.482  0.00  0.00    -0.341 N 
ATOM     50  H   UNL     1       2.184  -0.188  28.906  0.00  0.00    +0.144 HD
ATOM     51  H   UNL     1       2.957   1.271  28.348  0.00  0.00    +0.144 HD
ATOM     52  C   UNL     1       3.333  -1.796  27.208  0.00  0.00    +0.147 A 
ATOM     53  N   UNL     1       2.520  -2.712  27.843  0.00  0.00    -0.231 NA
ATOM     54  C   UNL     1       2.763  -3.852  27.236  0.00  0.00    +0.203 A 
ENDBRANCH  41  43
BRANCH  39  55
ATOM     55  O   UNL     1       2.768  -7.843  25.839  0.00  0.00    -0.386 OA
ATOM     56  H   UNL     1       2.373  -8.414  25.150  0.00  0.00    +0.210 HD
ENDBRANCH  39  55
BRANCH  40  57
ATOM     57  O   UNL     1       5.737  -6.362  26.698  0.00  0.00    -0.276 OA
BRANCH  57  58
ATOM     58  P   UNL     1       5.920  -5.986  28.377  0.00  0.00    +0.473 P 
ATOM     59  O   UNL     1       6.084  -5.648  29.879  0.00  0.00    -0.228 OA
BRANCH  58  60
ATOM     60  O   UNL     1       5.510  -7.571  28.554  0.00  0.00    -0.303 OA
ATOM     61  H   UNL     1       5.260  -7.807  27.639  0.00  0.00    +0.222 HD
ENDBRANCH  58  60
BRANCH  58  62
ATOM     62  O   UNL     1       7.499  -6.346  28.132  0.00  0.00    -0.303 OA
ATOM     63  H   UNL     1       7.654  -6.705  27.240  0.00  0.00    +0.222 HD
ENDBRANCH  58  62
ENDBRANCH  57  58
ENDBRANCH  40  57
ENDBRANCH  37  38
ENDBRANCH  36  37
ENDBRANCH   1  36
TORSDOF 22
ENDMDL
MODEL 2
REMARK VINA RESULT:      -7.6      2.847      5.769
REMARK  Name = 
REMARK  22 active torsions:
REMARK  status: ('A' for Active; 'I' for Inactive)
REMARK    1  A    between atoms: C_2  and  C_4
REMARK    2  A    between atoms: N_6  and  C_7
REMARK    3  A    between atoms: C_10  and  C_12
REMARK    4  A    between atoms: C_12  and  O_13
REMARK    5  A    between atoms: O_13  and  P_14
REMARK    6  A    between atoms: P_14  and  O_15
REMARK    7  A    between atoms: P_14  and  O_17
REMARK    8  A    between atoms: O_17  and  P_18
REMARK    9  A    between atoms: P_18  and  O_19
REMARK   10  A    between atoms: P_18  and  O_21
REMARK   11  A    between atoms: O_21  and  C_22
REMARK   12  A    between atoms: C_22  and  C_23
REMARK   13  A    between atoms: C_26  and  N_38
REMARK   14  A    between atoms: C_28  and  O_30
REMARK   15  A    between atoms: O_30  and  P_31
REMARK   16  A    between atoms: P_31  and  O_32
REMARK   17  A    between atoms: P_31  and  O_33
REMARK   18  A    between atoms: C_35  and  O_37
REMARK   19  A    between atoms: C_48  and  O_50
REMARK   20  A    between atoms: C_51  and  O_53
REMARK   21  A    between atoms: C_54  and  O_56
REMARK   22  A    between atoms: C_57  and  O_59
REMARK                            x       y       z     vdW  Elec       q    Type
REMARK                         _______ _______ _______ _____ _____    ______ ____
ROOT
ATOM      1  P   UNL     1       6.359  -5.014  27.365  0.00  0.00    +0.483 P 
ATOM      2  O   UNL     1       5.285  -5.842  26.666  0.00  0.00    -0.227 OA
ENDROOT
BRANCH   1   3
ATOM      3  O   UNL     1       6.816  -5.836  28.704  0.00  0.00    -0.302 OA
ATOM      4  H   UNL     1       7.281  -5.297  29.371  0.00  0.00    +0.222 HD
ENDBRANCH   1   3
BRANCH   1   5
ATOM      5  O   UNL     1       5.151  -4.142  28.244  0.00  0.00    -0.186 OA
BRANCH   5   6
ATOM      6  P   UNL     1       4.201  -3.205  27.144  0.00  0.00    +0.483 P 
ATOM      7  O   UNL     1       2.897  -3.779  27.689  0.00  0.00    -0.227 OA
BRANCH   6   8
ATOM      8  O   UNL     1       3.252  -2.267  26.043  0.00  0.00    -0.302 OA
ATOM      9  H   UNL     1       2.404  -2.761  26.004  0.00  0.00    +0.222 HD
ENDBRANCH   6   8
BRANCH   6  10
ATOM     10  O   UNL     1       4.577  -1.830  27.972  0.00  0.00    -0.284 OA
BRANCH  10  11
ATOM     11  C   UNL     1       4.052  -0.619  27.417  0.00  0.00    +0.206 C 
BRANCH  11  15
ATOM     12  C   UNL     1       6.995   0.261  25.423  0.00  0.00    +0.239 C 
ATOM     13  C   UNL     1       7.581   0.221  26.845  0.00  0.00    +0.193 C 
ATOM     14  C   UNL     1       6.368   0.407  27.759  0.00  0.00    +0.178 C 
ATOM     15  C   UNL     1       5.164   0.245  26.830  0.00  0.00    +0.178 C 
ATOM     16  O   UNL     1       5.676  -0.318  25.605  0.00  0.00    -0.348 OA
BRANCH  12  21
ATOM     17  C   UNL     1       7.506   3.957  24.893  0.00  0.00    +0.030 C 
ATOM     18  C   UNL     1       6.817   4.268  23.606  0.00  0.00    +0.077 C 
ATOM     19  C   UNL     1       6.248   3.050  22.845  0.00  0.00    +0.166 C 
ATOM     20  C   UNL     1       5.990   1.767  23.691  0.00  0.00    +0.233 C 
ATOM     21  N   UNL     1       6.926   1.606  24.810  0.00  0.00    -0.281 N 
ATOM     22  C   UNL     1       7.503   2.725  25.404  0.00  0.00    +0.084 C 
BRANCH  17  26
ATOM     23  N   UNL     1       9.294   5.592  24.964  0.00  0.00    -0.326 N 
ATOM     24  H   UNL     1       9.519   5.417  23.997  0.00  0.00    +0.145 HD
ATOM     25  H   UNL     1       9.838   6.278  25.468  0.00  0.00    +0.145 HD
ATOM     26  C   UNL     1       8.292   4.982  25.647  0.00  0.00    +0.239 C 
ATOM     27  O   UNL     1       8.079   5.262  26.820  0.00  0.00    -0.271 OA
ENDBRANCH  17  26
BRANCH  20  28
ATOM     28  O   UNL     1       4.683   1.800  24.230  0.00  0.00    -0.372 OA
ATOM     29  H   UNL     1       4.229   2.473  23.680  0.00  0.00    +0.212 HD
ENDBRANCH  20  28
BRANCH  19  30
ATOM     30  O   UNL     1       7.121   2.764  21.741  0.00  0.00    -0.387 OA
ATOM     31  H   UNL     1       8.034   2.758  22.098  0.00  0.00    +0.210 HD
ENDBRANCH  19  30
ENDBRANCH  12  21
BRANCH  14  32
ATOM     32  O   UNL     1       6.370   1.713  28.339  0.00  0.00    -0.386 OA
ATOM     33  H   UNL     1       7.269   1.856  28.692  0.00  0.00    +0.210 HD
ENDBRANCH  14  32
BRANCH  13  34
ATOM     34  O   UNL     1       8.188  -1.065  27.092  0.00  0.00    -0.385 OA
ATOM     35  H   UNL     1       9.125  -0.923  27.314  0.00  0.00    +0.210 HD
ENDBRANCH  13  34
ENDBRANCH  11  15
ENDBRANCH  10  11
ENDBRANCH   6  10
ENDBRANCH   5   6
ENDBRANCH   1   5
BRANCH   1  36
ATOM     36  O   UNL     1       7.567  -5.887  26.486  0.00  0.00    -0.284 OA
BRANCH  36  37
ATOM     37  C   UNL     1       8.759  -5.125  26.286  0.00  0.00    +0.206 C 
BRANCH  37  38
ATOM     38  C   UNL     1       9.142  -5.041  24.798  0.00  0.00    +0.178 C 
ATOM     39  C   UNL     1       7.956  -5.281  23.871  0.00  0.00    +0.179 C 
ATOM     40  C   UNL     1       7.477  -3.896  23.435  0.00  0.00    +0.211 C 
ATOM     41  C   UNL     1       8.465  -2.941  24.100  0.00  0.00    +0.254 C 
ATOM     42  O   UNL     1       9.613  -3.720  24.487  0.00  0.00    -0.346 OA
BRANCH  41  43
ATOM     43  N   UNL     1       8.906  -1.845  23.261  0.00  0.00    -0.285 N 
ATOM     44  C   UNL     1       9.623  -0.735  23.624  0.00  0.00    +0.167 A 
ATOM     45  N   UNL     1      10.193  -0.456  24.811  0.00  0.00    -0.216 NA
ATOM     46  C   UNL     1      10.762   0.773  24.784  0.00  0.00    +0.225 A 
ATOM     47  N   UNL     1      10.807   1.666  23.769  0.00  0.00    -0.219 NA
ATOM     48  C   UNL     1      10.213   1.334  22.600  0.00  0.00    +0.147 A 
ATOM     49  N   UNL     1      10.215   2.260  21.568  0.00  0.00    -0.341 N 
ATOM     50  H   UNL     1      10.016   1.871  20.653  0.00  0.00    +0.144 HD
ATOM     51  H   UNL     1      10.927   2.971  21.652  0.00  0.00    +0.144 HD
ATOM     52  C   UNL     1       9.619   0.066  22.490  0.00  0.00    +0.147 A 
ATOM     53  N   UNL     1       9.009  -0.576  21.433  0.00  0.00    -0.231 NA
ATOM     54  C   UNL     1       8.595  -1.719  21.930  0.00  0.00    +0.203 A 
ENDBRANCH  41  43
BRANCH  39  55
ATOM     55  O   UNL     1       8.329  -6.017  22.702  0.00  0.00    -0.386 OA
ATOM     56  H   UNL     1       8.028  -6.942  22.803  0.00  0.00    +0.210 HD
ENDBRANCH  39  55
BRANCH  40  57
ATOM     57  O   UNL     1       6.131  -3.660  23.867  0.00  0.00    -0.276 OA
BRANCH  57  58
ATOM     58  P   UNL     1       5.057  -4.808  23.146  0.00  0.00    +0.473 P 
ATOM     59  O   UNL     1       4.096  -5.836  22.500  0.00  0.00    -0.228 OA
BRANCH  58  60
ATOM     60  O   UNL     1       3.917  -3.730  23.648  0.00  0.00    -0.303 OA
ATOM     61  H   UNL     1       4.427  -3.196  24.289  0.00  0.00    +0.222 HD
ENDBRANCH  58  60
BRANCH  58  62
ATOM     62  O   UNL     1       5.338  -3.978  21.762  0.00  0.00    -0.303 OA
ATOM     63  H   UNL     1       5.087  -4.492  20.974  0.00  0.00    +0.222 HD
ENDBRANCH  58  62
ENDBRANCH  57  58
ENDBRANCH  40  57
ENDBRANCH  37  38
ENDBRANCH  36  37
ENDBRANCH   1  36
TORSDOF 22
ENDMDL
MODEL 3
REMARK VINA RESULT:      -7.4      2.200      6.402
REMARK  Name = 
REMARK  22 active torsions:
REMARK  status: ('A' for Active; 'I' for Inactive)
REMARK    1  A    between atoms: C_2  and  C_4
REMARK    2  A    between atoms: N_6  and  C_7
REMARK    3  A    between atoms: C_10  and  C_12
REMARK    4  A    between atoms: C_12  and  O_13
REMARK    5  A    between atoms: O_13  and  P_14
REMARK    6  A    between atoms: P_14  and  O_15
REMARK    7  A    between atoms: P_14  and  O_17
REMARK    8  A    between atoms: O_17  and  P_18
REMARK    9  A    between atoms: P_18  and  O_19
REMARK   10  A    between atoms: P_18  and  O_21
REMARK   11  A    between atoms: O_21  and  C_22
REMARK   12  A    between atoms: C_22  and  C_23
REMARK   13  A    between atoms: C_26  and  N_38
REMARK   14  A    between atoms: C_28  and  O_30
REMARK   15  A    between atoms: O_30  and  P_31
REMARK   16  A    between atoms: P_31  and  O_32
REMARK   17  A    between atoms: P_31  and  O_33
REMARK   18  A    between atoms: C_35  and  O_37
REMARK   19  A    between atoms: C_48  and  O_50
REMARK   20  A    between atoms: C_51  and  O_53
REMARK   21  A    between atoms: C_54  and  O_56
REMARK   22  A    between atoms: C_57  and  O_59
REMARK                            x       y       z     vdW  Elec       q    Type
REMARK                         _______ _______ _______ _____ _____    ______ ____
ROOT
ATOM      1  P   UNL     1       5.568  -6.050  27.345  0.00  0.00    +0.483 P 
ATOM      2  O   UNL     1       5.605  -6.538  25.899  0.00  0.00    -0.227 OA
ENDROOT
BRANCH   1   3
ATOM      3  O   UNL     1       5.643  -7.371  28.308  0.00  0.00    -0.302 OA
ATOM      4  H   UNL     1       5.880  -8.196  27.846  0.00  0.00    +0.222 HD
ENDBRANCH   1   3
BRANCH   1   5
ATOM      5  O   UNL     1       3.838  -6.084  27.339  0.00  0.00    -0.186 OA
BRANCH   5   6
ATOM      6  P   UNL     1       3.277  -6.549  25.770  0.00  0.00    +0.483 P 
ATOM      7  O   UNL     1       2.257  -7.519  26.359  0.00  0.00    -0.227 OA
BRANCH   6   8
ATOM      8  O   UNL     1       2.715  -7.013  24.202  0.00  0.00    -0.302 OA
ATOM      9  H   UNL     1       2.065  -6.310  23.982  0.00  0.00    +0.222 HD
ENDBRANCH   6   8
BRANCH   6  10
ATOM     10  O   UNL     1       2.570  -5.072  25.573  0.00  0.00    -0.284 OA
BRANCH  10  11
ATOM     11  C   UNL     1       3.291  -4.156  24.743  0.00  0.00    +0.206 C 
BRANCH  11  15
ATOM     12  C   UNL     1       5.021  -1.724  26.866  0.00  0.00    +0.239 C 
ATOM     13  C   UNL     1       3.857  -2.159  27.773  0.00  0.00    +0.193 C 
ATOM     14  C   UNL     1       2.814  -2.722  26.805  0.00  0.00    +0.178 C 
ATOM     15  C   UNL     1       3.557  -2.844  25.474  0.00  0.00    +0.178 C 
ATOM     16  O   UNL     1       4.957  -2.687  25.781  0.00  0.00    -0.348 OA
BRANCH  12  21
ATOM     17  C   UNL     1       5.651   1.346  24.773  0.00  0.00    +0.030 C 
ATOM     18  C   UNL     1       4.793   2.411  25.370  0.00  0.00    +0.077 C 
ATOM     19  C   UNL     1       3.858   1.951  26.510  0.00  0.00    +0.166 C 
ATOM     20  C   UNL     1       4.257   0.633  27.240  0.00  0.00    +0.233 C 
ATOM     21  N   UNL     1       4.944  -0.331  26.372  0.00  0.00    -0.281 N 
ATOM     22  C   UNL     1       5.694   0.116  25.289  0.00  0.00    +0.084 C 
BRANCH  17  26
ATOM     23  N   UNL     1       6.422   0.572  22.609  0.00  0.00    -0.326 N 
ATOM     24  H   UNL     1       5.887  -0.277  22.699  0.00  0.00    +0.145 HD
ATOM     25  H   UNL     1       6.970   0.708  21.771  0.00  0.00    +0.145 HD
ATOM     26  C   UNL     1       6.454   1.568  23.531  0.00  0.00    +0.239 C 
ATOM     27  O   UNL     1       7.125   2.573  23.337  0.00  0.00    -0.271 OA
ENDBRANCH  17  26
BRANCH  20  28
ATOM     28  O   UNL     1       5.119   0.923  28.323  0.00  0.00    -0.372 OA
ATOM     29  H   UNL     1       4.504   1.205  29.032  0.00  0.00    +0.212 HD
ENDBRANCH  20  28
BRANCH  19  30
ATOM     30  O   UNL     1       2.525   1.858  25.985  0.00  0.00    -0.387 OA
ATOM     31  H   UNL     1       2.592   1.392  25.126  0.00  0.00    +0.210 HD
ENDBRANCH  19  30
ENDBRANCH  12  21
BRANCH  14  32
ATOM     32  O   UNL     1       1.711  -1.824  26.674  0.00  0.00    -0.386 OA
ATOM     33  H   UNL     1       2.080  -0.981  26.346  0.00  0.00    +0.210 HD
ENDBRANCH  14  32
BRANCH  13  34
ATOM     34  O   UNL     1       4.297  -3.195  28.677  0.00  0.00    -0.385 OA
ATOM     35  H   UNL     1       4.074  -4.057  28.284  0.00  0.00    +0.210 HD
ENDBRANCH  13  34
ENDBRANCH  11  15
ENDBRANCH  10  11
ENDBRANCH   6  10
ENDBRANCH   5   6
ENDBRANCH   1   5
BRANCH   1  36
ATOM     36  O   UNL     1       7.298  -6.016  27.350  0.00  0.00    -0.284 OA
BRANCH  36  37
ATOM     37  C   UNL     1       7.824  -4.719  27.064  0.00  0.00    +0.206 C 
BRANCH  37  38
ATOM     38  C   UNL     1       8.868  -4.761  25.935  0.00  0.00    +0.178 C 
ATOM     39  C   UNL     1       8.388  -5.542  24.718  0.00  0.00    +0.179 C 
ATOM     40  C   UNL     1       7.902  -4.496  23.714  0.00  0.00    +0.211 C 
ATOM     41  C   UNL     1       8.191  -3.165  24.403  0.00  0.00    +0.254 C 
ATOM     42  O   UNL     1       9.131  -3.430  25.461  0.00  0.00    -0.346 OA
BRANCH  41  43
ATOM     43  N   UNL     1       8.742  -2.141  23.537  0.00  0.00    -0.285 N 
ATOM     44  C   UNL     1       9.337  -0.960  23.893  0.00  0.00    +0.167 A 
ATOM     45  N   UNL     1       9.664  -0.523  25.123  0.00  0.00    -0.216 NA
ATOM     46  C   UNL     1      10.183   0.727  25.058  0.00  0.00    +0.225 A 
ATOM     47  N   UNL     1      10.384   1.506  23.971  0.00  0.00    -0.219 NA
ATOM     48  C   UNL     1      10.032   1.018  22.761  0.00  0.00    +0.147 A 
ATOM     49  N   UNL     1      10.193   1.826  21.645  0.00  0.00    -0.341 N 
ATOM     50  H   UNL     1      10.183   1.331  20.761  0.00  0.00    +0.144 HD
ATOM     51  H   UNL     1      10.851   2.582  21.775  0.00  0.00    +0.144 HD
ATOM     52  C   UNL     1       9.516  -0.286  22.692  0.00  0.00    +0.147 A 
ATOM     53  N   UNL     1       9.138  -1.072  21.623  0.00  0.00    -0.231 NA
ATOM     54  C   UNL     1       8.681  -2.177  22.166  0.00  0.00    +0.203 A 
ENDBRANCH  41  43
BRANCH  39  55
ATOM     55  O   UNL     1       9.444  -6.292  24.110  0.00  0.00    -0.386 OA
ATOM     56  H   UNL     1       9.359  -7.228  24.380  0.00  0.00    +0.210 HD
ENDBRANCH  39  55
BRANCH  40  57
ATOM     57  O   UNL     1       6.505  -4.662  23.436  0.00  0.00    -0.276 OA
BRANCH  57  58
ATOM     58  P   UNL     1       6.274  -5.179  21.801  0.00  0.00    +0.473 P 
ATOM     59  O   UNL     1       6.068  -5.642  20.338  0.00  0.00    -0.228 OA
BRANCH  58  60
ATOM     60  O   UNL     1       5.071  -6.072  22.484  0.00  0.00    -0.303 OA
ATOM     61  H   UNL     1       5.371  -6.981  22.286  0.00  0.00    +0.222 HD
ENDBRANCH  58  60
BRANCH  58  62
ATOM     62  O   UNL     1       5.320  -3.854  21.675  0.00  0.00    -0.303 OA
ATOM     63  H   UNL     1       5.584  -3.287  20.928  0.00  0.00    +0.222 HD
ENDBRANCH  58  62
ENDBRANCH  57  58
ENDBRANCH  40  57
ENDBRANCH  37  38
ENDBRANCH  36  37
ENDBRANCH   1  36
TORSDOF 22
ENDMDL
MODEL 4
REMARK VINA RESULT:      -7.4      2.727      5.664
REMARK  Name = 
REMARK  22 active torsions:
REMARK  status: ('A' for Active; 'I' for Inactive)
REMARK    1  A    between atoms: C_2  and  C_4
REMARK    2  A    between atoms: N_6  and  C_7
REMARK    3  A    between atoms: C_10  and  C_12
REMARK    4  A    between atoms: C_12  and  O_13
REMARK    5  A    between atoms: O_13  and  P_14
REMARK    6  A    between atoms: P_14  and  O_15
REMARK    7  A    between atoms: P_14  and  O_17
REMARK    8  A    between atoms: O_17  and  P_18
REMARK    9  A    between atoms: P_18  and  O_19
REMARK   10  A    between atoms: P_18  and  O_21
REMARK   11  A    between atoms: O_21  and  C_22
REMARK   12  A    between atoms: C_22  and  C_23
REMARK   13  A    between atoms: C_26  and  N_38
REMARK   14  A    between atoms: C_28  and  O_30
REMARK   15  A    between atoms: O_30  and  P_31
REMARK   16  A    between atoms: P_31  and  O_32
REMARK   17  A    between atoms: P_31  and  O_33
REMARK   18  A    between atoms: C_35  and  O_37
REMARK   19  A    between atoms: C_48  and  O_50
REMARK   20  A    between atoms: C_51  and  O_53
REMARK   21  A    between atoms: C_54  and  O_56
REMARK   22  A    between atoms: C_57  and  O_59
REMARK                            x       y       z     vdW  Elec       q    Type
REMARK                         _______ _______ _______ _____ _____    ______ ____
ROOT
ATOM      1  P   UNL     1       6.577  -5.308  27.623  0.00  0.00    +0.483 P 
ATOM      2  O   UNL     1       5.472  -5.835  26.711  0.00  0.00    -0.227 OA
ENDROOT
BRANCH   1   3
ATOM      3  O   UNL     1       6.923  -6.488  28.703  0.00  0.00    -0.302 OA
ATOM      4  H   UNL     1       6.142  -6.952  29.060  0.00  0.00    +0.222 HD
ENDBRANCH   1   3
BRANCH   1   5
ATOM      5  O   UNL     1       5.401  -4.607  28.683  0.00  0.00    -0.186 OA
BRANCH   5   6
ATOM      6  P   UNL     1       4.047  -4.058  27.757  0.00  0.00    +0.483 P 
ATOM      7  O   UNL     1       3.129  -4.085  28.976  0.00  0.00    -0.227 OA
BRANCH   6   8
ATOM      8  O   UNL     1       2.693  -3.507  26.832  0.00  0.00    -0.302 OA
ATOM      9  H   UNL     1       3.067  -3.407  25.929  0.00  0.00    +0.222 HD
ENDBRANCH   6   8
BRANCH   6  10
ATOM     10  O   UNL     1       4.730  -2.563  27.625  0.00  0.00    -0.284 OA
BRANCH  10  11
ATOM     11  C   UNL     1       4.028  -1.643  26.781  0.00  0.00    +0.206 C 
BRANCH  11  15
ATOM     12  C   UNL     1       6.657   0.540  25.465  0.00  0.00    +0.239 C 
ATOM     13  C   UNL     1       7.129   0.320  26.912  0.00  0.00    +0.193 C 
ATOM     14  C   UNL     1       5.862  -0.097  27.663  0.00  0.00    +0.178 C 
ATOM     15  C   UNL     1       4.839  -0.371  26.560  0.00  0.00    +0.178 C 
ATOM     16  O   UNL     1       5.585  -0.429  25.328  0.00  0.00    -0.348 OA
BRANCH  12  21
ATOM     17  C   UNL     1       4.750   3.383  23.887  0.00  0.00    +0.030 C 
ATOM     18  C   UNL     1       5.273   4.617  24.543  0.00  0.00    +0.077 C 
ATOM     19  C   UNL     1       6.277   4.385  25.693  0.00  0.00    +0.166 C 
ATOM     20  C   UNL     1       7.008   3.009  25.704  0.00  0.00    +0.233 C 
ATOM     21  N   UNL     1       6.200   1.914  25.155  0.00  0.00    -0.281 N 
ATOM     22  C   UNL     1       5.229   2.176  24.194  0.00  0.00    +0.084 C 
BRANCH  17  26
ATOM     23  N   UNL     1       3.844   4.102  21.757  0.00  0.00    -0.326 N 
ATOM     24  H   UNL     1       4.710   4.562  21.521  0.00  0.00    +0.145 HD
ATOM     25  H   UNL     1       3.083   4.138  21.093  0.00  0.00    +0.145 HD
ATOM     26  C   UNL     1       3.621   3.414  22.907  0.00  0.00    +0.239 C 
ATOM     27  O   UNL     1       2.541   2.876  23.109  0.00  0.00    -0.271 OA
ENDBRANCH  17  26
BRANCH  20  28
ATOM     28  O   UNL     1       8.195   3.088  24.939  0.00  0.00    -0.372 OA
ATOM     29  H   UNL     1       8.890   3.237  25.615  0.00  0.00    +0.212 HD
ENDBRANCH  20  28
BRANCH  19  30
ATOM     30  O   UNL     1       5.592   4.607  26.937  0.00  0.00    -0.387 OA
ATOM     31  H   UNL     1       5.303   3.728  27.260  0.00  0.00    +0.210 HD
ENDBRANCH  19  30
ENDBRANCH  12  21
BRANCH  14  32
ATOM     32  O   UNL     1       5.406   0.962  28.507  0.00  0.00    -0.386 OA
ATOM     33  H   UNL     1       4.482   1.143  28.246  0.00  0.00    +0.210 HD
ENDBRANCH  14  32
BRANCH  13  34
ATOM     34  O   UNL     1       8.099  -0.747  26.957  0.00  0.00    -0.385 OA
ATOM     35  H   UNL     1       7.832  -1.374  27.653  0.00  0.00    +0.210 HD
ENDBRANCH  13  34
ENDBRANCH  11  15
ENDBRANCH  10  11
ENDBRANCH   6  10
ENDBRANCH   5   6
ENDBRANCH   1   5
BRANCH   1  36
ATOM     36  O   UNL     1       7.751  -6.010  26.564  0.00  0.00    -0.284 OA
BRANCH  36  37
ATOM     37  C   UNL     1       8.846  -5.132  26.299  0.00  0.00    +0.206 C 
BRANCH  37  38
ATOM     38  C   UNL     1       9.157  -5.042  24.795  0.00  0.00    +0.178 C 
ATOM     39  C   UNL     1       7.919  -5.230  23.927  0.00  0.00    +0.179 C 
ATOM     40  C   UNL     1       7.467  -3.824  23.530  0.00  0.00    +0.211 C 
ATOM     41  C   UNL     1       8.519  -2.912  24.155  0.00  0.00    +0.254 C 
ATOM     42  O   UNL     1       9.657  -3.734  24.475  0.00  0.00    -0.346 OA
BRANCH  41  43
ATOM     43  N   UNL     1       8.956  -1.821  23.306  0.00  0.00    -0.285 N 
ATOM     44  C   UNL     1       9.636  -0.687  23.666  0.00  0.00    +0.167 A 
ATOM     45  N   UNL     1      10.165  -0.371  24.862  0.00  0.00    -0.216 NA
ATOM     46  C   UNL     1      10.704   0.872  24.826  0.00  0.00    +0.225 A 
ATOM     47  N   UNL     1      10.755   1.745  23.795  0.00  0.00    -0.219 NA
ATOM     48  C   UNL     1      10.202   1.377  22.618  0.00  0.00    +0.147 A 
ATOM     49  N   UNL     1      10.208   2.282  21.568  0.00  0.00    -0.341 N 
ATOM     50  H   UNL     1      10.045   1.871  20.656  0.00  0.00    +0.144 HD
ATOM     51  H   UNL     1      10.901   3.013  21.657  0.00  0.00    +0.144 HD
ATOM     52  C   UNL     1       9.642   0.092  22.517  0.00  0.00    +0.147 A 
ATOM     53  N   UNL     1       9.078  -0.585  21.457  0.00  0.00    -0.231 NA
ATOM     54  C   UNL     1       8.678  -1.729  21.965  0.00  0.00    +0.203 A 
ENDBRANCH  41  43
BRANCH  39  55
ATOM     55  O   UNL     1       8.207  -5.964  22.732  0.00  0.00    -0.386 OA
ATOM     56  H   UNL     1       8.303  -6.910  22.960  0.00  0.00    +0.210 HD
ENDBRANCH  39  55
BRANCH  40  57
ATOM     57  O   UNL     1       6.153  -3.547  24.032  0.00  0.00    -0.276 OA
BRANCH  57  58
ATOM     58  P   UNL     1       4.989  -4.577  23.272  0.00  0.00    +0.473 P 
ATOM     59  O   UNL     1       3.948  -5.499  22.593  0.00  0.00    -0.228 OA
BRANCH  58  60
ATOM     60  O   UNL     1       3.928  -3.594  24.060  0.00  0.00    -0.303 OA
ATOM     61  H   UNL     1       3.828  -2.865  23.416  0.00  0.00    +0.222 HD
ENDBRANCH  58  60
BRANCH  58  62
ATOM     62  O   UNL     1       5.122  -3.544  22.008  0.00  0.00    -0.303 OA
ATOM     63  H   UNL     1       5.344  -2.642  22.300  0.00  0.00    +0.222 HD
ENDBRANCH  58  62
ENDBRANCH  57  58
ENDBRANCH  40  57
ENDBRANCH  37  38
ENDBRANCH  36  37
ENDBRANCH   1  36
TORSDOF 22
ENDMDL
MODEL 5
REMARK VINA RESULT:      -7.2      2.045      3.378
REMARK  Name = 
REMARK  22 active torsions:
REMARK  status: ('A' for Active; 'I' for Inactive)
REMARK    1  A    between atoms: C_2  and  C_4
REMARK    2  A    between atoms: N_6  and  C_7
REMARK    3  A    between atoms: C_10  and  C_12
REMARK    4  A    between atoms: C_12  and  O_13
REMARK    5  A    between atoms: O_13  and  P_14
REMARK    6  A    between atoms: P_14  and  O_15
REMARK    7  A    between atoms: P_14  and  O_17
REMARK    8  A    between atoms: O_17  and  P_18
REMARK    9  A    between atoms: P_18  and  O_19
REMARK   10  A    between atoms: P_18  and  O_21
REMARK   11  A    between atoms: O_21  and  C_22
REMARK   12  A    between atoms: C_22  and  C_23
REMARK   13  A    between atoms: C_26  and  N_38
REMARK   14  A    between atoms: C_28  and  O_30
REMARK   15  A    between atoms: O_30  and  P_31
REMARK   16  A    between atoms: P_31  and  O_32
REMARK   17  A    between atoms: P_31  and  O_33
REMARK   18  A    between atoms: C_35  and  O_37
REMARK   19  A    between atoms: C_48  and  O_50
REMARK   20  A    between atoms: C_51  and  O_53
REMARK   21  A    between atoms: C_54  and  O_56
REMARK   22  A    between atoms: C_57  and  O_59
REMARK                            x       y       z     vdW  Elec       q    Type
REMARK                         _______ _______ _______ _____ _____    ______ ____
ROOT
ATOM      1  P   UNL     1       6.198  -3.886  22.394  0.00  0.00    +0.483 P 
ATOM      2  O   UNL     1       6.641  -5.267  22.867  0.00  0.00    -0.227 OA
ENDROOT
BRANCH   1   3
ATOM      3  O   UNL     1       5.948  -3.979  20.779  0.00  0.00    -0.302 OA
ATOM      4  H   UNL     1       6.523  -4.618  20.317  0.00  0.00    +0.222 HD
ENDBRANCH   1   3
BRANCH   1   5
ATOM      5  O   UNL     1       7.846  -3.408  22.168  0.00  0.00    -0.186 OA
BRANCH   5   6
ATOM      6  P   UNL     1       8.353  -2.439  23.508  0.00  0.00    +0.483 P 
ATOM      7  O   UNL     1       9.495  -3.395  23.840  0.00  0.00    -0.227 OA
BRANCH   6   8
ATOM      8  O   UNL     1       8.862  -1.471  24.848  0.00  0.00    -0.302 OA
ATOM      9  H   UNL     1       8.366  -0.634  24.718  0.00  0.00    +0.222 HD
ENDBRANCH   6   8
BRANCH   6  10
ATOM     10  O   UNL     1       8.901  -1.277  22.475  0.00  0.00    -0.284 OA
BRANCH  10  11
ATOM     11  C   UNL     1       9.758  -0.292  23.064  0.00  0.00    +0.206 C 
BRANCH  11  15
ATOM     12  C   UNL     1       7.701   2.544  24.128  0.00  0.00    +0.239 C 
ATOM     13  C   UNL     1       6.862   1.965  22.977  0.00  0.00    +0.193 C 
ATOM     14  C   UNL     1       7.865   1.160  22.147  0.00  0.00    +0.178 C 
ATOM     15  C   UNL     1       9.115   1.091  23.024  0.00  0.00    +0.178 C 
ATOM     16  O   UNL     1       8.707   1.519  24.339  0.00  0.00    -0.348 OA
BRANCH  12  21
ATOM     17  C   UNL     1      10.296   5.248  23.723  0.00  0.00    +0.030 C 
ATOM     18  C   UNL     1       9.534   6.463  23.309  0.00  0.00    +0.077 C 
ATOM     19  C   UNL     1       8.027   6.248  23.052  0.00  0.00    +0.166 C 
ATOM     20  C   UNL     1       7.384   4.996  23.723  0.00  0.00    +0.233 C 
ATOM     21  N   UNL     1       8.311   3.866  23.857  0.00  0.00    -0.281 N 
ATOM     22  C   UNL     1       9.677   4.094  23.980  0.00  0.00    +0.084 C 
BRANCH  17  26
ATOM     23  N   UNL     1      12.370   6.306  24.394  0.00  0.00    -0.326 N 
ATOM     24  H   UNL     1      11.868   7.087  24.787  0.00  0.00    +0.145 HD
ATOM     25  H   UNL     1      13.379   6.308  24.446  0.00  0.00    +0.145 HD
ATOM     26  C   UNL     1      11.788   5.229  23.807  0.00  0.00    +0.239 C 
ATOM     27  O   UNL     1      12.474   4.318  23.363  0.00  0.00    -0.271 OA
ENDBRANCH  17  26
BRANCH  20  28
ATOM     28  O   UNL     1       6.922   5.326  25.018  0.00  0.00    -0.372 OA
ATOM     29  H   UNL     1       6.212   5.980  24.844  0.00  0.00    +0.212 HD
ENDBRANCH  20  28
BRANCH  19  30
ATOM     30  O   UNL     1       7.812   6.231  21.632  0.00  0.00    -0.387 OA
ATOM     31  H   UNL     1       8.123   5.360  21.310  0.00  0.00    +0.210 HD
ENDBRANCH  19  30
ENDBRANCH  12  21
BRANCH  14  32
ATOM     32  O   UNL     1       8.159   1.833  20.922  0.00  0.00    -0.386 OA
ATOM     33  H   UNL     1       9.029   1.502  20.627  0.00  0.00    +0.210 HD
ENDBRANCH  14  32
BRANCH  13  34
ATOM     34  O   UNL     1       5.845   1.086  23.503  0.00  0.00    -0.385 OA
ATOM     35  H   UNL     1       5.614   0.439  22.813  0.00  0.00    +0.210 HD
ENDBRANCH  13  34
ENDBRANCH  11  15
ENDBRANCH  10  11
ENDBRANCH   6  10
ENDBRANCH   5   6
ENDBRANCH   1   5
BRANCH   1  36
ATOM     36  O   UNL     1       4.551  -4.365  22.619  0.00  0.00    -0.284 OA
BRANCH  36  37
ATOM     37  C   UNL     1       4.422  -5.743  22.970  0.00  0.00    +0.206 C 
BRANCH  37  38
ATOM     38  C   UNL     1       3.550  -5.937  24.223  0.00  0.00    +0.178 C 
ATOM     39  C   UNL     1       4.138  -6.951  25.197  0.00  0.00    +0.179 C 
ATOM     40  C   UNL     1       4.843  -6.132  26.279  0.00  0.00    +0.211 C 
ATOM     41  C   UNL     1       4.562  -4.685  25.885  0.00  0.00    +0.254 C 
ATOM     42  O   UNL     1       3.463  -4.704  24.955  0.00  0.00    -0.346 OA
BRANCH  41  43
ATOM     43  N   UNL     1       4.223  -3.810  26.990  0.00  0.00    -0.285 N 
ATOM     44  C   UNL     1       4.390  -2.453  27.078  0.00  0.00    +0.167 A 
ATOM     45  N   UNL     1       4.791  -1.593  26.124  0.00  0.00    -0.216 NA
ATOM     46  C   UNL     1       4.886  -0.339  26.628  0.00  0.00    +0.225 A 
ATOM     47  N   UNL     1       4.639   0.090  27.887  0.00  0.00    -0.219 NA
ATOM     48  C   UNL     1       4.244  -0.818  28.806  0.00  0.00    +0.147 A 
ATOM     49  N   UNL     1       4.032  -0.396  30.110  0.00  0.00    -0.341 N 
ATOM     50  H   UNL     1       3.482  -1.033  30.675  0.00  0.00    +0.144 HD
ATOM     51  H   UNL     1       3.875   0.598  30.202  0.00  0.00    +0.144 HD
ATOM     52  C   UNL     1       4.071  -2.150  28.396  0.00  0.00    +0.147 A 
ATOM     53  N   UNL     1       3.623  -3.269  29.066  0.00  0.00    -0.231 NA
ATOM     54  C   UNL     1       3.726  -4.246  28.193  0.00  0.00    +0.203 A 
ENDBRANCH  41  43
BRANCH  39  55
ATOM     55  O   UNL     1       3.125  -7.745  25.823  0.00  0.00    -0.386 OA
ATOM     56  H   UNL     1       2.298  -7.225  25.860  0.00  0.00    +0.210 HD
ENDBRANCH  39  55
BRANCH  40  57
ATOM     57  O   UNL     1       6.248  -6.417  26.304  0.00  0.00    -0.276 OA
BRANCH  57  58
ATOM     58  P   UNL     1       7.152  -4.966  26.569  0.00  0.00    +0.473 P 
ATOM     59  O   UNL     1       7.961  -3.667  26.805  0.00  0.00    -0.228 OA
BRANCH  58  60
ATOM     60  O   UNL     1       7.900  -5.897  27.703  0.00  0.00    -0.303 OA
ATOM     61  H   UNL     1       8.294  -6.597  27.146  0.00  0.00    +0.222 HD
ENDBRANCH  58  60
BRANCH  58  62
ATOM     62  O   UNL     1       8.115  -5.524  25.368  0.00  0.00    -0.303 OA
ATOM     63  H   UNL     1       8.106  -6.497  25.320  0.00  0.00    +0.222 HD
ENDBRANCH  58  62
ENDBRANCH  57  58
ENDBRANCH  40  57
ENDBRANCH  37  38
ENDBRANCH  36  37
ENDBRANCH   1  36
TORSDOF 22
ENDMDL
MODEL 6
REMARK VINA RESULT:      -7.2      2.831      4.974
REMARK  Name = 
REMARK  22 active torsions:
REMARK  status: ('A' for Active; 'I' for Inactive)
REMARK    1  A    between atoms: C_2  and  C_4
REMARK    2  A    between atoms: N_6  and  C_7
REMARK    3  A    between atoms: C_10  and  C_12
REMARK    4  A    between atoms: C_12  and  O_13
REMARK    5  A    between atoms: O_13  and  P_14
REMARK    6  A    between atoms: P_14  and  O_15
REMARK    7  A    between atoms: P_14  and  O_17
REMARK    8  A    between atoms: O_17  and  P_18
REMARK    9  A    between atoms: P_18  and  O_19
REMARK   10  A    between atoms: P_18  and  O_21
REMARK   11  A    between atoms: O_21  and  C_22
REMARK   12  A    between atoms: C_22  and  C_23
REMARK   13  A    between atoms: C_26  and  N_38
REMARK   14  A    between atoms: C_28  and  O_30
REMARK   15  A    between atoms: O_30  and  P_31
REMARK   16  A    between atoms: P_31  and  O_32
REMARK   17  A    between atoms: P_31  and  O_33
REMARK   18  A    between atoms: C_35  and  O_37
REMARK   19  A    between atoms: C_48  and  O_50
REMARK   20  A    between atoms: C_51  and  O_53
REMARK   21  A    between atoms: C_54  and  O_56
REMARK   22  A    between atoms: C_57  and  O_59
REMARK                            x       y       z     vdW  Elec       q    Type
REMARK                         _______ _______ _______ _____ _____    ______ ____
ROOT
ATOM      1  P   UNL     1       9.395  -1.190  22.253  0.00  0.00    +0.483 P 
ATOM      2  O   UNL     1      10.550  -2.188  22.275  0.00  0.00    -0.227 OA
ENDROOT
BRANCH   1   3
ATOM      3  O   UNL     1       9.265  -0.628  20.722  0.00  0.00    -0.302 OA
ATOM      4  H   UNL     1      10.010  -0.069  20.431  0.00  0.00    +0.222 HD
ENDBRANCH   1   3
BRANCH   1   5
ATOM      5  O   UNL     1      10.465   0.096  22.693  0.00  0.00    -0.186 OA
BRANCH   5   6
ATOM      6  P   UNL     1      10.482   0.268  24.414  0.00  0.00    +0.483 P 
ATOM      7  O   UNL     1      10.513   1.790  24.320  0.00  0.00    -0.227 OA
BRANCH   6   8
ATOM      8  O   UNL     1      10.498   0.440  26.135  0.00  0.00    -0.302 OA
ATOM      9  H   UNL     1       9.599   0.142  26.397  0.00  0.00    +0.222 HD
ENDBRANCH   6   8
BRANCH   6  10
ATOM     10  O   UNL     1       8.915  -0.239  24.491  0.00  0.00    -0.284 OA
BRANCH  10  11
ATOM     11  C   UNL     1       8.069   0.522  25.359  0.00  0.00    +0.206 C 
BRANCH  11  15
ATOM     12  C   UNL     1       6.058   3.531  24.803  0.00  0.00    +0.239 C 
ATOM     13  C   UNL     1       5.435   2.549  23.796  0.00  0.00    +0.193 C 
ATOM     14  C   UNL     1       6.524   1.498  23.572  0.00  0.00    +0.178 C 
ATOM     15  C   UNL     1       7.556   1.779  24.665  0.00  0.00    +0.178 C 
ATOM     16  O   UNL     1       6.916   2.673  25.599  0.00  0.00    -0.348 OA
BRANCH  12  21
ATOM     17  C   UNL     1       8.936   5.728  23.754  0.00  0.00    +0.030 C 
ATOM     18  C   UNL     1       8.313   6.856  23.001  0.00  0.00    +0.077 C 
ATOM     19  C   UNL     1       6.791   6.741  22.766  0.00  0.00    +0.166 C 
ATOM     20  C   UNL     1       6.014   5.797  23.733  0.00  0.00    +0.233 C 
ATOM     21  N   UNL     1       6.810   4.655  24.200  0.00  0.00    -0.281 N 
ATOM     22  C   UNL     1       8.193   4.762  24.298  0.00  0.00    +0.084 C 
BRANCH  17  26
ATOM     23  N   UNL     1      10.953   4.447  23.354  0.00  0.00    -0.326 N 
ATOM     24  H   UNL     1      10.430   3.735  22.869  0.00  0.00    +0.145 HD
ATOM     25  H   UNL     1      11.953   4.329  23.447  0.00  0.00    +0.145 HD
ATOM     26  C   UNL     1      10.417   5.575  23.886  0.00  0.00    +0.239 C 
ATOM     27  O   UNL     1      11.129   6.395  24.451  0.00  0.00    -0.271 OA
ENDBRANCH  17  26
BRANCH  20  28
ATOM     28  O   UNL     1       5.591   6.517  24.874  0.00  0.00    -0.372 OA
ATOM     29  H   UNL     1       6.163   6.166  25.588  0.00  0.00    +0.212 HD
ENDBRANCH  20  28
BRANCH  19  30
ATOM     30  O   UNL     1       6.576   6.357  21.399  0.00  0.00    -0.387 OA
ATOM     31  H   UNL     1       7.125   6.955  20.849  0.00  0.00    +0.210 HD
ENDBRANCH  19  30
ENDBRANCH  12  21
BRANCH  14  32
ATOM     32  O   UNL     1       7.118   1.656  22.282  0.00  0.00    -0.386 OA
ATOM     33  H   UNL     1       6.419   2.008  21.698  0.00  0.00    +0.210 HD
ENDBRANCH  14  32
BRANCH  13  34
ATOM     34  O   UNL     1       4.267   1.928  24.373  0.00  0.00    -0.385 OA
ATOM     35  H   UNL     1       3.502   2.510  24.213  0.00  0.00    +0.210 HD
ENDBRANCH  13  34
ENDBRANCH  11  15
ENDBRANCH  10  11
ENDBRANCH   6  10
ENDBRANCH   5   6
ENDBRANCH   1   5
BRANCH   1  36
ATOM     36  O   UNL     1       8.326  -2.477  21.812  0.00  0.00    -0.284 OA
BRANCH  36  37
ATOM     37  C   UNL     1       7.021  -2.325  22.373  0.00  0.00    +0.206 C 
BRANCH  37  38
ATOM     38  C   UNL     1       6.169  -3.594  22.197  0.00  0.00    +0.178 C 
ATOM     39  C   UNL     1       7.011  -4.828  21.895  0.00  0.00    +0.179 C 
ATOM     40  C   UNL     1       7.157  -5.570  23.224  0.00  0.00    +0.211 C 
ATOM     41  C   UNL     1       6.335  -4.737  24.202  0.00  0.00    +0.254 C 
ATOM     42  O   UNL     1       5.473  -3.890  23.417  0.00  0.00    -0.346 OA
BRANCH  41  43
ATOM     43  N   UNL     1       5.520  -5.508  25.120  0.00  0.00    -0.285 N 
ATOM     44  C   UNL     1       5.292  -5.275  26.450  0.00  0.00    +0.167 A 
ATOM     45  N   UNL     1       5.665  -4.217  27.193  0.00  0.00    -0.216 NA
ATOM     46  C   UNL     1       5.298  -4.394  28.485  0.00  0.00    +0.225 A 
ATOM     47  N   UNL     1       4.652  -5.440  29.048  0.00  0.00    -0.219 NA
ATOM     48  C   UNL     1       4.306  -6.479  28.256  0.00  0.00    +0.147 A 
ATOM     49  N   UNL     1       3.684  -7.576  28.831  0.00  0.00    -0.341 N 
ATOM     50  H   UNL     1       3.205  -8.182  28.175  0.00  0.00    +0.144 HD
ATOM     51  H   UNL     1       3.250  -7.384  29.723  0.00  0.00    +0.144 HD
ATOM     52  C   UNL     1       4.599  -6.398  26.884  0.00  0.00    +0.147 A 
ATOM     53  N   UNL     1       4.319  -7.244  25.832  0.00  0.00    -0.231 NA
ATOM     54  C   UNL     1       4.885  -6.678  24.789  0.00  0.00    +0.203 A 
ENDBRANCH  41  43
BRANCH  39  55
ATOM     55  O   UNL     1       6.367  -5.701  20.961  0.00  0.00    -0.386 OA
ATOM     56  H   UNL     1       6.824  -6.566  20.973  0.00  0.00    +0.210 HD
ENDBRANCH  39  55
BRANCH  40  57
ATOM     57  O   UNL     1       8.534  -5.652  23.616  0.00  0.00    -0.276 OA
BRANCH  57  58
ATOM     58  P   UNL     1       8.778  -4.843  25.126  0.00  0.00    +0.473 P 
ATOM     59  O   UNL     1       8.996  -4.120  26.478  0.00  0.00    -0.228 OA
BRANCH  58  60
ATOM     60  O   UNL     1       9.916  -6.018  25.322  0.00  0.00    -0.303 OA
ATOM     61  H   UNL     1      10.568  -5.561  25.890  0.00  0.00    +0.222 HD
ENDBRANCH  58  60
BRANCH  58  62
ATOM     62  O   UNL     1       9.803  -3.888  24.278  0.00  0.00    -0.303 OA
ATOM     63  H   UNL     1       9.651  -2.943  24.460  0.00  0.00    +0.222 HD
ENDBRANCH  58  62
ENDBRANCH  57  58
ENDBRANCH  40  57
ENDBRANCH  37  38
ENDBRANCH  36  37
ENDBRANCH   1  36
TORSDOF 22
ENDMDL
MODEL 7
REMARK VINA RESULT:      -7.2      1.681      2.115
REMARK  Name = 
REMARK  22 active torsions:
REMARK  status: ('A' for Active; 'I' for Inactive)
REMARK    1  A    between atoms: C_2  and  C_4
REMARK    2  A    between atoms: N_6  and  C_7
REMARK    3  A    between atoms: C_10  and  C_12
REMARK    4  A    between atoms: C_12  and  O_13
REMARK    5  A    between atoms: O_13  and  P_14
REMARK    6  A    between atoms: P_14  and  O_15
REMARK    7  A    between atoms: P_14  and  O_17
REMARK    8  A    between atoms: O_17  and  P_18
REMARK    9  A    between atoms: P_18  and  O_19
REMARK   10  A    between atoms: P_18  and  O_21
REMARK   11  A    between atoms: O_21  and  C_22
REMARK   12  A    between atoms: C_22  and  C_23
REMARK   13  A    between atoms: C_26  and  N_38
REMARK   14  A    between atoms: C_28  and  O_30
REMARK   15  A    between atoms: O_30  and  P_31
REMARK   16  A    between atoms: P_31  and  O_32
REMARK   17  A    between atoms: P_31  and  O_33
REMARK   18  A    between atoms: C_35  and  O_37
REMARK   19  A    between atoms: C_48  and  O_50
REMARK   20  A    between atoms: C_51  and  O_53
REMARK   21  A    between atoms: C_54  and  O_56
REMARK   22  A    between atoms: C_57  and  O_59
REMARK                            x       y       z     vdW  Elec       q    Type
REMARK                         _______ _______ _______ _____ _____    ______ ____
ROOT
ATOM      1  P   UNL     1       5.866  -4.111  22.607  0.00  0.00    +0.483 P 
ATOM      2  O   UNL     1       5.896  -4.206  21.084  0.00  0.00    -0.227 OA
ENDROOT
BRANCH   1   3
ATOM      3  O   UNL     1       5.464  -2.573  22.993  0.00  0.00    -0.302 OA
ATOM      4  H   UNL     1       4.586  -2.292  22.674  0.00  0.00    +0.222 HD
ENDBRANCH   1   3
BRANCH   1   5
ATOM      5  O   UNL     1       7.556  -3.737  22.641  0.00  0.00    -0.186 OA
BRANCH   5   6
ATOM      6  P   UNL     1       8.165  -3.972  24.243  0.00  0.00    +0.483 P 
ATOM      7  O   UNL     1       8.669  -5.373  23.907  0.00  0.00    -0.227 OA
BRANCH   6   8
ATOM      8  O   UNL     1       8.775  -4.208  25.844  0.00  0.00    -0.302 OA
ATOM      9  H   UNL     1       8.112  -3.749  26.404  0.00  0.00    +0.222 HD
ENDBRANCH   6   8
BRANCH   6  10
ATOM     10  O   UNL     1       9.367  -2.880  23.959  0.00  0.00    -0.284 OA
BRANCH  10  11
ATOM     11  C   UNL     1       9.104  -1.941  22.910  0.00  0.00    +0.206 C 
BRANCH  11  15
ATOM     12  C   UNL     1      10.035   1.575  23.336  0.00  0.00    +0.239 C 
ATOM     13  C   UNL     1      10.571   0.951  24.635  0.00  0.00    +0.193 C 
ATOM     14  C   UNL     1       9.768  -0.343  24.792  0.00  0.00    +0.178 C 
ATOM     15  C   UNL     1       9.058  -0.515  23.448  0.00  0.00    +0.178 C 
ATOM     16  O   UNL     1       9.690   0.411  22.540  0.00  0.00    -0.348 OA
BRANCH  12  21
ATOM     17  C   UNL     1       7.425   3.737  24.986  0.00  0.00    +0.030 C 
ATOM     18  C   UNL     1       6.617   4.301  23.865  0.00  0.00    +0.077 C 
ATOM     19  C   UNL     1       7.126   3.969  22.445  0.00  0.00    +0.166 C 
ATOM     20  C   UNL     1       8.053   2.722  22.318  0.00  0.00    +0.233 C 
ATOM     21  N   UNL     1       8.881   2.487  23.507  0.00  0.00    -0.281 N 
ATOM     22  C   UNL     1       8.436   2.895  24.760  0.00  0.00    +0.084 C 
BRANCH  17  26
ATOM     23  N   UNL     1       7.295   3.136  27.330  0.00  0.00    -0.326 N 
ATOM     24  H   UNL     1       7.524   2.177  27.118  0.00  0.00    +0.145 HD
ATOM     25  H   UNL     1       7.134   3.390  28.295  0.00  0.00    +0.145 HD
ATOM     26  C   UNL     1       7.200   4.131  26.410  0.00  0.00    +0.239 C 
ATOM     27  O   UNL     1       6.927   5.273  26.756  0.00  0.00    -0.271 OA
ENDBRANCH  17  26
BRANCH  20  28
ATOM     28  O   UNL     1       7.274   1.562  22.103  0.00  0.00    -0.372 OA
ATOM     29  H   UNL     1       6.537   1.663  22.741  0.00  0.00    +0.212 HD
ENDBRANCH  20  28
BRANCH  19  30
ATOM     30  O   UNL     1       7.770   5.138  21.915  0.00  0.00    -0.387 OA
ATOM     31  H   UNL     1       8.730   5.033  22.086  0.00  0.00    +0.210 HD
ENDBRANCH  19  30
ENDBRANCH  12  21
BRANCH  14  32
ATOM     32  O   UNL     1       8.809  -0.217  25.843  0.00  0.00    -0.386 OA
ATOM     33  H   UNL     1       9.008  -0.926  26.484  0.00  0.00    +0.210 HD
ENDBRANCH  14  32
BRANCH  13  34
ATOM     34  O   UNL     1      11.973   0.642  24.492  0.00  0.00    -0.385 OA
ATOM     35  H   UNL     1      12.442   1.460  24.248  0.00  0.00    +0.210 HD
ENDBRANCH  13  34
ENDBRANCH  11  15
ENDBRANCH  10  11
ENDBRANCH   6  10
ENDBRANCH   5   6
ENDBRANCH   1   5
BRANCH   1  36
ATOM     36  O   UNL     1       4.177  -4.485  22.571  0.00  0.00    -0.284 OA
BRANCH  36  37
ATOM     37  C   UNL     1       3.858  -5.657  23.322  0.00  0.00    +0.206 C 
BRANCH  37  38
ATOM     38  C   UNL     1       2.975  -5.335  24.540  0.00  0.00    +0.178 C 
ATOM     39  C   UNL     1       3.310  -6.196  25.753  0.00  0.00    +0.179 C 
ATOM     40  C   UNL     1       4.200  -5.331  26.647  0.00  0.00    +0.211 C 
ATOM     41  C   UNL     1       4.271  -3.996  25.911  0.00  0.00    +0.254 C 
ATOM     42  O   UNL     1       3.192  -3.978  24.958  0.00  0.00    -0.346 OA
BRANCH  41  43
ATOM     43  N   UNL     1       4.161  -2.828  26.762  0.00  0.00    -0.285 N 
ATOM     44  C   UNL     1       4.571  -1.547  26.501  0.00  0.00    +0.167 A 
ATOM     45  N   UNL     1       5.059  -1.041  25.354  0.00  0.00    -0.216 NA
ATOM     46  C   UNL     1       5.406   0.259  25.521  0.00  0.00    +0.225 A 
ATOM     47  N   UNL     1       5.317   1.024  26.633  0.00  0.00    -0.219 NA
ATOM     48  C   UNL     1       4.823   0.462  27.758  0.00  0.00    +0.147 A 
ATOM     49  N   UNL     1       4.769   1.225  28.915  0.00  0.00    -0.341 N 
ATOM     50  H   UNL     1       4.150   0.862  29.631  0.00  0.00    +0.144 HD
ATOM     51  H   UNL     1       4.797   2.222  28.753  0.00  0.00    +0.144 HD
ATOM     52  C   UNL     1       4.392  -0.874  27.702  0.00  0.00    +0.147 A 
ATOM     53  N   UNL     1       3.794  -1.688  28.641  0.00  0.00    -0.231 NA
ATOM     54  C   UNL     1       3.668  -2.852  28.043  0.00  0.00    +0.203 A 
ENDBRANCH  41  43
BRANCH  39  55
ATOM     55  O   UNL     1       2.141  -6.556  26.495  0.00  0.00    -0.386 OA
ATOM     56  H   UNL     1       1.503  -6.983  25.889  0.00  0.00    +0.210 HD
ENDBRANCH  39  55
BRANCH  40  57
ATOM     57  O   UNL     1       5.495  -5.923  26.808  0.00  0.00    -0.276 OA
BRANCH  57  58
ATOM     58  P   UNL     1       5.953  -5.925  28.477  0.00  0.00    +0.473 P 
ATOM     59  O   UNL     1       6.363  -5.925  29.970  0.00  0.00    -0.228 OA
BRANCH  58  60
ATOM     60  O   UNL     1       5.602  -7.528  28.347  0.00  0.00    -0.303 OA
ATOM     61  H   UNL     1       6.476  -7.931  28.516  0.00  0.00    +0.222 HD
ENDBRANCH  58  60
BRANCH  58  62
ATOM     62  O   UNL     1       7.473  -6.136  27.905  0.00  0.00    -0.303 OA
ATOM     63  H   UNL     1       7.568  -6.983  27.433  0.00  0.00    +0.222 HD
ENDBRANCH  58  62
ENDBRANCH  57  58
ENDBRANCH  40  57
ENDBRANCH  37  38
ENDBRANCH  36  37
ENDBRANCH   1  36
TORSDOF 22
ENDMDL
MODEL 8
REMARK VINA RESULT:      -7.2      2.804      5.493
REMARK  Name = 
REMARK  22 active torsions:
REMARK  status: ('A' for Active; 'I' for Inactive)
REMARK    1  A    between atoms: C_2  and  C_4
REMARK    2  A    between atoms: N_6  and  C_7
REMARK    3  A    between atoms: C_10  and  C_12
REMARK    4  A    between atoms: C_12  and  O_13
REMARK    5  A    between atoms: O_13  and  P_14
REMARK    6  A    between atoms: P_14  and  O_15
REMARK    7  A    between atoms: P_14  and  O_17
REMARK    8  A    between atoms: O_17  and  P_18
REMARK    9  A    between atoms: P_18  and  O_19
REMARK   10  A    between atoms: P_18  and  O_21
REMARK   11  A    between atoms: O_21  and  C_22
REMARK   12  A    between atoms: C_22  and  C_23
REMARK   13  A    between atoms: C_26  and  N_38
REMARK   14  A    between atoms: C_28  and  O_30
REMARK   15  A    between atoms: O_30  and  P_31
REMARK   16  A    between atoms: P_31  and  O_32
REMARK   17  A    between atoms: P_31  and  O_33
REMARK   18  A    between atoms: C_35  and  O_37
REMARK   19  A    between atoms: C_48  and  O_50
REMARK   20  A    between atoms: C_51  and  O_53
REMARK   21  A    between atoms: C_54  and  O_56
REMARK   22  A    between atoms: C_57  and  O_59
REMARK                            x       y       z     vdW  Elec       q    Type
REMARK                         _______ _______ _______ _____ _____    ______ ____
ROOT
ATOM      1  P   UNL     1       9.258  -0.893  22.647  0.00  0.00    +0.483 P 
ATOM      2  O   UNL     1       9.718  -1.427  24.000  0.00  0.00    -0.227 OA
ENDROOT
BRANCH   1   3
ATOM      3  O   UNL     1      10.274  -1.494  21.513  0.00  0.00    -0.302 OA
ATOM      4  H   UNL     1      10.694  -2.341  21.754  0.00  0.00    +0.222 HD
ENDBRANCH   1   3
BRANCH   1   5
ATOM      5  O   UNL     1      10.233   0.524  22.848  0.00  0.00    -0.186 OA
BRANCH   5   6
ATOM      6  P   UNL     1       9.293   1.927  22.474  0.00  0.00    +0.483 P 
ATOM      7  O   UNL     1       8.941   1.393  21.088  0.00  0.00    -0.227 OA
BRANCH   6   8
ATOM      8  O   UNL     1       8.352   3.329  22.100  0.00  0.00    -0.302 OA
ATOM      9  H   UNL     1       7.457   3.091  22.427  0.00  0.00    +0.222 HD
ENDBRANCH   6   8
BRANCH   6  10
ATOM     10  O   UNL     1       8.136   1.452  23.548  0.00  0.00    -0.284 OA
BRANCH  10  11
ATOM     11  C   UNL     1       8.379   1.821  24.910  0.00  0.00    +0.206 C 
BRANCH  11  15
ATOM     12  C   UNL     1       6.397   1.271  27.940  0.00  0.00    +0.239 C 
ATOM     13  C   UNL     1       7.425   0.129  28.027  0.00  0.00    +0.193 C 
ATOM     14  C   UNL     1       7.912  -0.050  26.588  0.00  0.00    +0.178 C 
ATOM     15  C   UNL     1       7.365   1.170  25.846  0.00  0.00    +0.178 C 
ATOM     16  O   UNL     1       6.921   2.091  26.863  0.00  0.00    -0.348 OA
BRANCH  12  21
ATOM     17  C   UNL     1       2.746   1.415  27.014  0.00  0.00    +0.030 C 
ATOM     18  C   UNL     1       2.253   0.012  27.142  0.00  0.00    +0.077 C 
ATOM     19  C   UNL     1       3.332  -1.045  27.464  0.00  0.00    +0.166 C 
ATOM     20  C   UNL     1       4.647  -0.515  28.110  0.00  0.00    +0.233 C 
ATOM     21  N   UNL     1       5.004   0.842  27.679  0.00  0.00    -0.281 N 
ATOM     22  C   UNL     1       4.010   1.736  27.295  0.00  0.00    +0.084 C 
BRANCH  17  26
ATOM     23  N   UNL     1       2.196   3.013  25.277  0.00  0.00    -0.326 N 
ATOM     24  H   UNL     1       2.944   2.668  24.695  0.00  0.00    +0.145 HD
ATOM     25  H   UNL     1       1.624   3.769  24.927  0.00  0.00    +0.145 HD
ATOM     26  C   UNL     1       1.882   2.523  26.504  0.00  0.00    +0.239 C 
ATOM     27  O   UNL     1       0.948   2.994  27.140  0.00  0.00    -0.271 OA
ENDBRANCH  17  26
BRANCH  20  28
ATOM     28  O   UNL     1       4.519  -0.496  29.518  0.00  0.00    -0.372 OA
ATOM     29  H   UNL     1       3.681  -0.008  29.662  0.00  0.00    +0.212 HD
ENDBRANCH  20  28
BRANCH  19  30
ATOM     30  O   UNL     1       3.616  -1.776  26.260  0.00  0.00    -0.387 OA
ATOM     31  H   UNL     1       4.419  -2.309  26.436  0.00  0.00    +0.210 HD
ENDBRANCH  19  30
ENDBRANCH  12  21
BRANCH  14  32
ATOM     32  O   UNL     1       7.381  -1.250  26.022  0.00  0.00    -0.386 OA
ATOM     33  H   UNL     1       6.460  -1.050  25.767  0.00  0.00    +0.210 HD
ENDBRANCH  14  32
BRANCH  13  34
ATOM     34  O   UNL     1       8.526   0.522  28.872  0.00  0.00    -0.385 OA
ATOM     35  H   UNL     1       9.167  -0.211  28.900  0.00  0.00    +0.210 HD
ENDBRANCH  13  34
ENDBRANCH  11  15
ENDBRANCH  10  11
ENDBRANCH   6  10
ENDBRANCH   5   6
ENDBRANCH   1   5
BRANCH   1  36
ATOM     36  O   UNL     1       8.285  -2.309  22.446  0.00  0.00    -0.284 OA
BRANCH  36  37
ATOM     37  C   UNL     1       6.902  -2.066  22.705  0.00  0.00    +0.206 C 
BRANCH  37  38
ATOM     38  C   UNL     1       6.045  -3.321  22.465  0.00  0.00    +0.178 C 
ATOM     39  C   UNL     1       6.879  -4.537  22.077  0.00  0.00    +0.179 C 
ATOM     40  C   UNL     1       7.042  -5.358  23.356  0.00  0.00    +0.211 C 
ATOM     41  C   UNL     1       6.235  -4.584  24.394  0.00  0.00    +0.254 C 
ATOM     42  O   UNL     1       5.365  -3.690  23.675  0.00  0.00    -0.346 OA
BRANCH  41  43
ATOM     43  N   UNL     1       5.432  -5.408  25.275  0.00  0.00    -0.285 N 
ATOM     44  C   UNL     1       5.131  -5.194  26.595  0.00  0.00    +0.167 A 
ATOM     45  N   UNL     1       5.402  -4.117  27.353  0.00  0.00    -0.216 NA
ATOM     46  C   UNL     1       4.991  -4.321  28.628  0.00  0.00    +0.225 A 
ATOM     47  N   UNL     1       4.389  -5.408  29.162  0.00  0.00    -0.219 NA
ATOM     48  C   UNL     1       4.145  -6.464  28.355  0.00  0.00    +0.147 A 
ATOM     49  N   UNL     1       3.569  -7.600  28.902  0.00  0.00    -0.341 N 
ATOM     50  H   UNL     1       3.160  -8.234  28.224  0.00  0.00    +0.144 HD
ATOM     51  H   UNL     1       3.085  -7.439  29.774  0.00  0.00    +0.144 HD
ATOM     52  C   UNL     1       4.492  -6.360  26.997  0.00  0.00    +0.147 A 
ATOM     53  N   UNL     1       4.313  -7.219  25.933  0.00  0.00    -0.231 NA
ATOM     54  C   UNL     1       4.888  -6.616  24.917  0.00  0.00    +0.203 A 
ENDBRANCH  41  43
BRANCH  39  55
ATOM     55  O   UNL     1       6.221  -5.351  21.101  0.00  0.00    -0.386 OA
ATOM     56  H   UNL     1       5.487  -5.831  21.535  0.00  0.00    +0.210 HD
ENDBRANCH  39  55
BRANCH  40  57
ATOM     57  O   UNL     1       8.424  -5.465  23.724  0.00  0.00    -0.276 OA
BRANCH  57  58
ATOM     58  P   UNL     1       8.710  -4.662  25.230  0.00  0.00    +0.473 P 
ATOM     59  O   UNL     1       8.965  -3.944  26.577  0.00  0.00    -0.228 OA
BRANCH  58  60
ATOM     60  O   UNL     1       9.469  -6.078  25.591  0.00  0.00    -0.303 OA
ATOM     61  H   UNL     1       8.707  -6.663  25.774  0.00  0.00    +0.222 HD
ENDBRANCH  58  60
BRANCH  58  62
ATOM     62  O   UNL     1      10.036  -4.056  24.484  0.00  0.00    -0.303 OA
ATOM     63  H   UNL     1      10.557  -4.755  24.048  0.00  0.00    +0.222 HD
ENDBRANCH  58  62
ENDBRANCH  57  58
ENDBRANCH  40  57
ENDBRANCH  37  38
ENDBRANCH  36  37
ENDBRANCH   1  36
TORSDOF 22
ENDMDL
MODEL 9
REMARK VINA RESULT:      -7.1      3.131      7.019
REMARK  Name = 
REMARK  22 active torsions:
REMARK  status: ('A' for Active; 'I' for Inactive)
REMARK    1  A    between atoms: C_2  and  C_4
REMARK    2  A    between atoms: N_6  and  C_7
REMARK    3  A    between atoms: C_10  and  C_12
REMARK    4  A    between atoms: C_12  and  O_13
REMARK    5  A    between atoms: O_13  and  P_14
REMARK    6  A    between atoms: P_14  and  O_15
REMARK    7  A    between atoms: P_14  and  O_17
REMARK    8  A    between atoms: O_17  and  P_18
REMARK    9  A    between atoms: P_18  and  O_19
REMARK   10  A    between atoms: P_18  and  O_21
REMARK   11  A    between atoms: O_21  and  C_22
REMARK   12  A    between atoms: C_22  and  C_23
REMARK   13  A    between atoms: C_26  and  N_38
REMARK   14  A    between atoms: C_28  and  O_30
REMARK   15  A    between atoms: O_30  and  P_31
REMARK   16  A    between atoms: P_31  and  O_32
REMARK   17  A    between atoms: P_31  and  O_33
REMARK   18  A    between atoms: C_35  and  O_37
REMARK   19  A    between atoms: C_48  and  O_50
REMARK   20  A    between atoms: C_51  and  O_53
REMARK   21  A    between atoms: C_54  and  O_56
REMARK   22  A    between atoms: C_57  and  O_59
REMARK                            x       y       z     vdW  Elec       q    Type
REMARK                         _______ _______ _______ _____ _____    ______ ____
ROOT
ATOM      1  P   UNL     1       3.483  -3.786  28.347  0.00  0.00    +0.483 P 
ATOM      2  O   UNL     1       2.089  -3.304  28.737  0.00  0.00    -0.227 OA
ENDROOT
BRANCH   1   3
ATOM      3  O   UNL     1       3.518  -3.913  26.716  0.00  0.00    -0.302 OA
ATOM      4  H   UNL     1       3.172  -4.756  26.368  0.00  0.00    +0.222 HD
ENDBRANCH   1   3
BRANCH   1   5
ATOM      5  O   UNL     1       2.989  -5.435  28.520  0.00  0.00    -0.186 OA
BRANCH   5   6
ATOM      6  P   UNL     1       4.372  -6.467  28.400  0.00  0.00    +0.483 P 
ATOM      7  O   UNL     1       4.085  -6.777  26.934  0.00  0.00    -0.227 OA
BRANCH   6   8
ATOM      8  O   UNL     1       5.755  -7.498  28.279  0.00  0.00    -0.302 OA
ATOM      9  H   UNL     1       6.091  -7.529  29.201  0.00  0.00    +0.222 HD
ENDBRANCH   6   8
BRANCH   6  10
ATOM     10  O   UNL     1       5.370  -5.158  28.493  0.00  0.00    -0.284 OA
BRANCH  10  11
ATOM     11  C   UNL     1       6.747  -5.418  28.196  0.00  0.00    +0.206 C 
BRANCH  11  15
ATOM     12  C   UNL     1       8.052  -5.468  24.775  0.00  0.00    +0.239 C 
ATOM     13  C   UNL     1       9.147  -4.681  25.516  0.00  0.00    +0.193 C 
ATOM     14  C   UNL     1       8.448  -4.151  26.769  0.00  0.00    +0.178 C 
ATOM     15  C   UNL     1       7.117  -4.902  26.809  0.00  0.00    +0.178 C 
ATOM     16  O   UNL     1       7.238  -5.982  25.861  0.00  0.00    -0.348 OA
BRANCH  12  21
ATOM     17  C   UNL     1       6.854  -2.570  22.684  0.00  0.00    +0.030 C 
ATOM     18  C   UNL     1       5.697  -3.100  21.905  0.00  0.00    +0.077 C 
ATOM     19  C   UNL     1       5.423  -4.612  22.066  0.00  0.00    +0.166 C 
ATOM     20  C   UNL     1       6.002  -5.285  23.347  0.00  0.00    +0.233 C 
ATOM     21  N   UNL     1       7.253  -4.676  23.813  0.00  0.00    -0.281 N 
ATOM     22  C   UNL     1       7.513  -3.333  23.557  0.00  0.00    +0.084 C 
BRANCH  17  26
ATOM     23  N   UNL     1       6.495  -0.173  22.641  0.00  0.00    -0.326 N 
ATOM     24  H   UNL     1       5.528  -0.293  22.899  0.00  0.00    +0.145 HD
ATOM     25  H   UNL     1       6.842   0.765  22.498  0.00  0.00    +0.145 HD
ATOM     26  C   UNL     1       7.385  -1.187  22.484  0.00  0.00    +0.239 C 
ATOM     27  O   UNL     1       8.547  -0.951  22.179  0.00  0.00    -0.271 OA
ENDBRANCH  17  26
BRANCH  20  28
ATOM     28  O   UNL     1       5.064  -5.198  24.402  0.00  0.00    -0.372 OA
ATOM     29  H   UNL     1       5.090  -6.093  24.802  0.00  0.00    +0.212 HD
ENDBRANCH  20  28
BRANCH  19  30
ATOM     30  O   UNL     1       5.892  -5.280  20.884  0.00  0.00    -0.387 OA
ATOM     31  H   UNL     1       5.340  -4.959  20.141  0.00  0.00    +0.210 HD
ENDBRANCH  19  30
ENDBRANCH  12  21
BRANCH  14  32
ATOM     32  O   UNL     1       8.218  -2.745  26.661  0.00  0.00    -0.386 OA
ATOM     33  H   UNL     1       8.254  -2.532  25.709  0.00  0.00    +0.210 HD
ENDBRANCH  14  32
BRANCH  13  34
ATOM     34  O   UNL     1      10.222  -5.568  25.892  0.00  0.00    -0.385 OA
ATOM     35  H   UNL     1      11.028  -5.036  26.015  0.00  0.00    +0.210 HD
ENDBRANCH  13  34
ENDBRANCH  11  15
ENDBRANCH  10  11
ENDBRANCH   6  10
ENDBRANCH   5   6
ENDBRANCH   1   5
BRANCH   1  36
ATOM     36  O   UNL     1       3.977  -2.136  28.173  0.00  0.00    -0.284 OA
BRANCH  36  37
ATOM     37  C   UNL     1       4.955  -1.961  27.147  0.00  0.00    +0.206 C 
BRANCH  37  38
ATOM     38  C   UNL     1       4.655  -0.730  26.274  0.00  0.00    +0.178 C 
ATOM     39  C   UNL     1       4.306   0.504  27.098  0.00  0.00    +0.179 C 
ATOM     40  C   UNL     1       5.586   1.338  27.167  0.00  0.00    +0.211 C 
ATOM     41  C   UNL     1       6.582   0.551  26.321  0.00  0.00    +0.254 C 
ATOM     42  O   UNL     1       5.821  -0.370  25.516  0.00  0.00    -0.346 OA
BRANCH  41  43
ATOM     43  N   UNL     1       7.409   1.360  25.448  0.00  0.00    -0.285 N 
ATOM     44  C   UNL     1       8.700   1.131  25.052  0.00  0.00    +0.167 A 
ATOM     45  N   UNL     1       9.467   0.049  25.277  0.00  0.00    -0.216 NA
ATOM     46  C   UNL     1      10.710   0.238  24.771  0.00  0.00    +0.225 A 
ATOM     47  N   UNL     1      11.208   1.314  24.121  0.00  0.00    -0.219 NA
ATOM     48  C   UNL     1      10.394   2.376  23.928  0.00  0.00    +0.147 A 
ATOM     49  N   UNL     1      10.907   3.502  23.303  0.00  0.00    -0.341 N 
ATOM     50  H   UNL     1      10.207   4.138  22.939  0.00  0.00    +0.144 HD
ATOM     51  H   UNL     1      11.739   3.329  22.757  0.00  0.00    +0.144 HD
ATOM     52  C   UNL     1       9.065   2.288  24.375  0.00  0.00    +0.147 A 
ATOM     53  N   UNL     1       7.998   3.155  24.267  0.00  0.00    -0.231 NA
ATOM     54  C   UNL     1       7.021   2.566  24.920  0.00  0.00    +0.203 A 
ENDBRANCH  41  43
BRANCH  39  55
ATOM     55  O   UNL     1       3.287   1.294  26.477  0.00  0.00    -0.386 OA
ATOM     56  H   UNL     1       3.496   2.240  26.614  0.00  0.00    +0.210 HD
ENDBRANCH  39  55
BRANCH  40  57
ATOM     57  O   UNL     1       6.031   1.483  28.522  0.00  0.00    -0.276 OA
BRANCH  57  58
ATOM     58  P   UNL     1       6.679   3.067  28.777  0.00  0.00    +0.473 P 
ATOM     59  O   UNL     1       7.258   4.485  29.004  0.00  0.00    -0.228 OA
BRANCH  58  60
ATOM     60  O   UNL     1       5.715   3.009  30.111  0.00  0.00    -0.303 OA
ATOM     61  H   UNL     1       4.825   3.008  29.705  0.00  0.00    +0.222 HD
ENDBRANCH  58  60
BRANCH  58  62
ATOM     62  O   UNL     1       7.900   2.283  29.535  0.00  0.00    -0.303 OA
ATOM     63  H   UNL     1       7.741   1.323  29.581  0.00  0.00    +0.222 HD
ENDBRANCH  58  62
ENDBRANCH  57  58
ENDBRANCH  40  57
ENDBRANCH  37  38
ENDBRANCH  36  37
ENDBRANCH   1  36
TORSDOF 22
ENDMDL
