MODEL 1
REMARK VINA RESULT:      -7.4      0.000      0.000
REMARK  Name = 
REMARK  5 active torsions:
REMARK  status: ('A' for Active; 'I' for Inactive)
REMARK    1  A    between atoms: C_1  and  C_2
REMARK    2  A    between atoms: C_2  and  C_3
REMARK    3  A    between atoms: C_3  and  N_4
REMARK    4  A    between atoms: C_7  and  C_10
REMARK    5  A    between atoms: C_15  and  C_19
REMARK                            x       y       z     vdW  Elec       q    Type
REMARK                         _______ _______ _______ _____ _____    ______ ____
ROOT
ATOM      1  C   UNL     1       9.391  -1.489  22.856  0.00  0.00    +0.111 A 
ATOM      2  N   UNL     1       9.576  -2.560  23.699  0.00  0.00    -0.341 N 
ATOM      3  H   UNL     1      10.345  -2.708  24.343  0.00  0.00    +0.167 HD
ATOM      4  C   UNL     1       8.497  -3.404  23.575  0.00  0.00    +0.078 A 
ATOM      5  C   UNL     1       8.142  -4.595  24.225  0.00  0.00    +0.062 A 
ATOM      6  C   UNL     1       6.923  -5.176  23.837  0.00  0.00    +0.015 A 
ATOM      7  C   UNL     1       6.125  -4.600  22.841  0.00  0.00    +0.003 A 
ATOM      8  C   UNL     1       6.514  -3.415  22.207  0.00  0.00    +0.030 A 
ATOM      9  C   UNL     1       7.716  -2.808  22.595  0.00  0.00    +0.090 A 
ATOM     10  N   UNL     1       8.284  -1.641  22.156  0.00  0.00    -0.232 NA
ENDROOT
BRANCH   1  14
ATOM     11  N   UNL     1       9.063   2.211  23.746  0.00  0.00    -0.302 NA
ATOM     12  C   UNL     1       9.482   1.171  24.700  0.00  0.00    +0.085 C 
ATOM     13  C   UNL     1      10.614   0.265  24.196  0.00  0.00    +0.026 C 
ATOM     14  C   UNL     1      10.345  -0.325  22.803  0.00  0.00    +0.057 C 
ATOM     15  C   UNL     1       9.853   0.766  21.845  0.00  0.00    +0.026 C 
ATOM     16  C   UNL     1       8.724   1.602  22.453  0.00  0.00    +0.085 C 
BRANCH  11  17
ATOM     17  C   UNL     1      10.015   3.326  23.675  0.00  0.00    +0.084 C 
BRANCH  17  19
ATOM     18  C   UNL     1      10.330   5.867  23.719  0.00  0.00    +0.005 C 
ATOM     19  C   UNL     1       9.433   4.690  24.080  0.00  0.00    +0.012 C 
ENDBRANCH  17  19
ENDBRANCH  11  17
ENDBRANCH   1  14
BRANCH   5  20
ATOM     20  C   UNL     1       9.034  -5.140  25.282  0.00  0.00    +0.244 C 
ATOM     21  O   UNL     1      10.255  -5.084  25.168  0.00  0.00    -0.270 OA
ATOM     22  N   UNL     1       8.466  -5.715  26.384  0.00  0.00    -0.325 N 
ATOM     23  H   UNL     1       9.094  -6.094  27.082  0.00  0.00    +0.145 HD
ATOM     24  H   UNL     1       7.479  -5.867  26.512  0.00  0.00    +0.145 HD
ENDBRANCH   5  20
TORSDOF 4
ENDMDL
MODEL 2
REMARK VINA RESULT:      -6.9      1.897      2.630
REMARK  Name = 
REMARK  5 active torsions:
REMARK  status: ('A' for Active; 'I' for Inactive)
REMARK    1  A    between atoms: C_1  and  C_2
REMARK    2  A    between atoms: C_2  and  C_3
REMARK    3  A    between atoms: C_3  and  N_4
REMARK    4  A    between atoms: C_7  and  C_10
REMARK    5  A    between atoms: C_15  and  C_19
REMARK                            x       y       z     vdW  Elec       q    Type
REMARK                         _______ _______ _______ _____ _____    ______ ____
ROOT
ATOM      1  C   UNL     1       9.227  -1.079  22.843  0.00  0.00    +0.111 A 
ATOM      2  N   UNL     1       8.213  -1.838  22.309  0.00  0.00    -0.341 N 
ATOM      3  H   UNL     1       7.608  -1.594  21.533  0.00  0.00    +0.167 HD
ATOM      4  C   UNL     1       8.175  -3.043  22.970  0.00  0.00    +0.078 A 
ATOM      5  C   UNL     1       7.391  -4.194  22.804  0.00  0.00    +0.062 A 
ATOM      6  C   UNL     1       7.661  -5.262  23.678  0.00  0.00    +0.015 A 
ATOM      7  C   UNL     1       8.646  -5.163  24.667  0.00  0.00    +0.003 A 
ATOM      8  C   UNL     1       9.404  -3.995  24.810  0.00  0.00    +0.030 A 
ATOM      9  C   UNL     1       9.165  -2.928  23.935  0.00  0.00    +0.090 A 
ATOM     10  N   UNL     1       9.793  -1.713  23.851  0.00  0.00    -0.232 NA
ENDROOT
BRANCH   1  14
ATOM     11  N   UNL     1       8.387   2.502  23.875  0.00  0.00    -0.302 NA
ATOM     12  C   UNL     1       9.543   1.748  24.390  0.00  0.00    +0.085 C 
ATOM     13  C   UNL     1      10.413   1.100  23.305  0.00  0.00    +0.026 C 
ATOM     14  C   UNL     1       9.606   0.271  22.293  0.00  0.00    +0.057 C 
ATOM     15  C   UNL     1       8.377   1.054  21.819  0.00  0.00    +0.026 C 
ATOM     16  C   UNL     1       7.586   1.651  22.985  0.00  0.00    +0.085 C 
BRANCH  11  17
ATOM     17  C   UNL     1       8.769   3.801  23.310  0.00  0.00    +0.084 C 
BRANCH  17  19
ATOM     18  C   UNL     1      10.548   5.571  23.826  0.00  0.00    +0.005 C 
ATOM     19  C   UNL     1       9.335   4.801  24.332  0.00  0.00    +0.012 C 
ENDBRANCH  17  19
ENDBRANCH  11  17
ENDBRANCH   1  14
BRANCH   5  20
ATOM     20  C   UNL     1       6.372  -4.231  21.722  0.00  0.00    +0.244 C 
ATOM     21  O   UNL     1       5.676  -3.250  21.478  0.00  0.00    -0.270 OA
ATOM     22  N   UNL     1       6.219  -5.386  21.007  0.00  0.00    -0.325 N 
ATOM     23  H   UNL     1       5.508  -5.391  20.287  0.00  0.00    +0.145 HD
ATOM     24  H   UNL     1       6.696  -6.252  21.200  0.00  0.00    +0.145 HD
ENDBRANCH   5  20
TORSDOF 4
ENDMDL
MODEL 3
REMARK VINA RESULT:      -6.9      2.148      2.822
REMARK  Name = 
REMARK  5 active torsions:
REMARK  status: ('A' for Active; 'I' for Inactive)
REMARK    1  A    between atoms: C_1  and  C_2
REMARK    2  A    between atoms: C_2  and  C_3
REMARK    3  A    between atoms: C_3  and  N_4
REMARK    4  A    between atoms: C_7  and  C_10
REMARK    5  A    between atoms: C_15  and  C_19
REMARK                            x       y       z     vdW  Elec       q    Type
REMARK                         _______ _______ _______ _____ _____    ______ ____
ROOT
ATOM      1  C   UNL     1       9.005  -2.568  23.762  0.00  0.00    +0.111 A 
ATOM      2  N   UNL     1       8.088  -3.188  22.947  0.00  0.00    -0.341 N 
ATOM      3  H   UNL     1       7.992  -3.085  21.943  0.00  0.00    +0.167 HD
ATOM      4  C   UNL     1       7.329  -4.040  23.714  0.00  0.00    +0.078 A 
ATOM      5  C   UNL     1       6.305  -4.945  23.398  0.00  0.00    +0.062 A 
ATOM      6  C   UNL     1       5.767  -5.676  24.472  0.00  0.00    +0.015 A 
ATOM      7  C   UNL     1       6.224  -5.489  25.782  0.00  0.00    +0.003 A 
ATOM      8  C   UNL     1       7.243  -4.571  26.061  0.00  0.00    +0.030 A 
ATOM      9  C   UNL     1       7.806  -3.847  25.002  0.00  0.00    +0.090 A 
ATOM     10  N   UNL     1       8.826  -2.933  25.016  0.00  0.00    -0.232 NA
ENDROOT
BRANCH   1  14
ATOM     11  N   UNL     1       9.039   1.176  23.002  0.00  0.00    -0.302 NA
ATOM     12  C   UNL     1       9.391   0.600  24.311  0.00  0.00    +0.085 C 
ATOM     13  C   UNL     1      10.421  -0.536  24.250  0.00  0.00    +0.026 C 
ATOM     14  C   UNL     1      10.059  -1.630  23.232  0.00  0.00    +0.057 C 
ATOM     15  C   UNL     1       9.639  -1.003  21.899  0.00  0.00    +0.026 C 
ATOM     16  C   UNL     1       8.609   0.114  22.084  0.00  0.00    +0.085 C 
BRANCH  11  17
ATOM     17  C   UNL     1      10.086   2.061  22.478  0.00  0.00    +0.084 C 
BRANCH  17  19
ATOM     18  C   UNL     1       9.673   4.225  23.784  0.00  0.00    +0.005 C 
ATOM     19  C   UNL     1      10.632   3.077  23.494  0.00  0.00    +0.012 C 
ENDBRANCH  17  19
ENDBRANCH  11  17
ENDBRANCH   1  14
BRANCH   5  20
ATOM     20  C   UNL     1       5.881  -5.100  21.981  0.00  0.00    +0.244 C 
ATOM     21  O   UNL     1       5.688  -4.118  21.270  0.00  0.00    -0.270 OA
ATOM     22  N   UNL     1       5.701  -6.361  21.487  0.00  0.00    -0.325 N 
ATOM     23  H   UNL     1       5.397  -6.440  20.525  0.00  0.00    +0.145 HD
ATOM     24  H   UNL     1       5.764  -7.208  22.028  0.00  0.00    +0.145 HD
ENDBRANCH   5  20
TORSDOF 4
ENDMDL
MODEL 4
REMARK VINA RESULT:      -6.7      2.938      7.945
REMARK  Name = 
REMARK  5 active torsions:
REMARK  status: ('A' for Active; 'I' for Inactive)
REMARK    1  A    between atoms: C_1  and  C_2
REMARK    2  A    between atoms: C_2  and  C_3
REMARK    3  A    between atoms: C_3  and  N_4
REMARK    4  A    between atoms: C_7  and  C_10
REMARK    5  A    between atoms: C_15  and  C_19
REMARK                            x       y       z     vdW  Elec       q    Type
REMARK                         _______ _______ _______ _____ _____    ______ ____
ROOT
ATOM      1  C   UNL     1       9.845   2.141  22.998  0.00  0.00    +0.111 A 
ATOM      2  N   UNL     1      10.804   3.068  23.332  0.00  0.00    -0.341 N 
ATOM      3  H   UNL     1      11.806   2.922  23.384  0.00  0.00    +0.167 HD
ATOM      4  C   UNL     1      10.186   4.279  23.537  0.00  0.00    +0.078 A 
ATOM      5  C   UNL     1      10.678   5.557  23.840  0.00  0.00    +0.062 A 
ATOM      6  C   UNL     1       9.721   6.580  23.958  0.00  0.00    +0.015 A 
ATOM      7  C   UNL     1       8.355   6.322  23.800  0.00  0.00    +0.003 A 
ATOM      8  C   UNL     1       7.899   5.032  23.506  0.00  0.00    +0.030 A 
ATOM      9  C   UNL     1       8.838   4.003  23.363  0.00  0.00    +0.090 A 
ATOM     10  N   UNL     1       8.645   2.684  23.044  0.00  0.00    -0.232 NA
ENDROOT
BRANCH   1  14
ATOM     11  N   UNL     1       8.352  -1.250  23.927  0.00  0.00    -0.302 NA
ATOM     12  C   UNL     1       7.904  -0.443  22.781  0.00  0.00    +0.085 C 
ATOM     13  C   UNL     1       9.036   0.038  21.861  0.00  0.00    +0.026 C 
ATOM     14  C   UNL     1      10.184   0.723  22.618  0.00  0.00    +0.057 C 
ATOM     15  C   UNL     1      10.590  -0.108  23.841  0.00  0.00    +0.026 C 
ATOM     16  C   UNL     1       9.383  -0.526  24.682  0.00  0.00    +0.085 C 
BRANCH  11  17
ATOM     17  C   UNL     1       8.713  -2.620  23.544  0.00  0.00    +0.084 C 
BRANCH  17  19
ATOM     18  C   UNL     1       7.537  -4.845  23.070  0.00  0.00    +0.005 C 
ATOM     19  C   UNL     1       7.636  -3.362  22.736  0.00  0.00    +0.012 C 
ENDBRANCH  17  19
ENDBRANCH  11  17
ENDBRANCH   1  14
BRANCH   5  20
ATOM     20  C   UNL     1      12.145   5.759  23.982  0.00  0.00    +0.244 C 
ATOM     21  O   UNL     1      12.939   5.085  23.331  0.00  0.00    -0.270 OA
ATOM     22  N   UNL     1      12.593   6.706  24.858  0.00  0.00    -0.325 N 
ATOM     23  H   UNL     1      13.595   6.813  24.948  0.00  0.00    +0.145 HD
ATOM     24  H   UNL     1      12.008   7.240  25.480  0.00  0.00    +0.145 HD
ENDBRANCH   5  20
TORSDOF 4
ENDMDL
MODEL 5
REMARK VINA RESULT:      -6.5      2.692      4.109
REMARK  Name = 
REMARK  5 active torsions:
REMARK  status: ('A' for Active; 'I' for Inactive)
REMARK    1  A    between atoms: C_1  and  C_2
REMARK    2  A    between atoms: C_2  and  C_3
REMARK    3  A    between atoms: C_3  and  N_4
REMARK    4  A    between atoms: C_7  and  C_10
REMARK    5  A    between atoms: C_15  and  C_19
REMARK                            x       y       z     vdW  Elec       q    Type
REMARK                         _______ _______ _______ _____ _____    ______ ____
ROOT
ATOM      1  C   UNL     1       6.510  -3.213  24.782  0.00  0.00    +0.111 A 
ATOM      2  N   UNL     1       6.523  -4.028  25.889  0.00  0.00    -0.341 N 
ATOM      3  H   UNL     1       7.006  -3.864  26.766  0.00  0.00    +0.167 HD
ATOM      4  C   UNL     1       5.712  -5.111  25.644  0.00  0.00    +0.078 A 
ATOM      5  C   UNL     1       5.323  -6.205  26.431  0.00  0.00    +0.062 A 
ATOM      6  C   UNL     1       4.443  -7.122  25.830  0.00  0.00    +0.015 A 
ATOM      7  C   UNL     1       4.002  -6.953  24.512  0.00  0.00    +0.003 A 
ATOM      8  C   UNL     1       4.417  -5.853  23.753  0.00  0.00    +0.030 A 
ATOM      9  C   UNL     1       5.277  -4.916  24.341  0.00  0.00    +0.090 A 
ATOM     10  N   UNL     1       5.785  -3.754  23.823  0.00  0.00    -0.232 NA
ENDROOT
BRANCH   1  14
ATOM     11  N   UNL     1       9.504  -1.911  22.798  0.00  0.00    -0.302 NA
ATOM     12  C   UNL     1       8.110  -1.824  22.333  0.00  0.00    +0.085 C 
ATOM     13  C   UNL     1       7.135  -1.226  23.357  0.00  0.00    +0.026 C 
ATOM     14  C   UNL     1       7.226  -1.889  24.741  0.00  0.00    +0.057 C 
ATOM     15  C   UNL     1       8.689  -2.023  25.175  0.00  0.00    +0.026 C 
ATOM     16  C   UNL     1       9.565  -2.631  24.077  0.00  0.00    +0.085 C 
BRANCH  11  17
ATOM     17  C   UNL     1      10.183  -0.611  22.787  0.00  0.00    +0.084 C 
BRANCH  17  19
ATOM     18  C   UNL     1       9.586   1.786  22.111  0.00  0.00    +0.005 C 
ATOM     19  C   UNL     1       9.731   0.337  21.664  0.00  0.00    +0.012 C 
ENDBRANCH  17  19
ENDBRANCH  11  17
ENDBRANCH   1  14
BRANCH   5  20
ATOM     20  C   UNL     1       5.822  -6.311  27.827  0.00  0.00    +0.244 C 
ATOM     21  O   UNL     1       6.510  -5.422  28.320  0.00  0.00    -0.270 OA
ATOM     22  N   UNL     1       5.504  -7.425  28.552  0.00  0.00    -0.325 N 
ATOM     23  H   UNL     1       5.869  -7.482  29.494  0.00  0.00    +0.145 HD
ATOM     24  H   UNL     1       5.013  -8.227  28.192  0.00  0.00    +0.145 HD
ENDBRANCH   5  20
TORSDOF 4
ENDMDL
MODEL 6
REMARK VINA RESULT:      -6.5      1.338      1.501
REMARK  Name = 
REMARK  5 active torsions:
REMARK  status: ('A' for Active; 'I' for Inactive)
REMARK    1  A    between atoms: C_1  and  C_2
REMARK    2  A    between atoms: C_2  and  C_3
REMARK    3  A    between atoms: C_3  and  N_4
REMARK    4  A    between atoms: C_7  and  C_10
REMARK    5  A    between atoms: C_15  and  C_19
REMARK                            x       y       z     vdW  Elec       q    Type
REMARK                         _______ _______ _______ _____ _____    ______ ____
ROOT
ATOM      1  C   UNL     1       8.943  -2.519  23.073  0.00  0.00    +0.111 A 
ATOM      2  N   UNL     1       9.004  -3.317  24.191  0.00  0.00    -0.341 N 
ATOM      3  H   UNL     1       9.745  -3.349  24.882  0.00  0.00    +0.167 HD
ATOM      4  C   UNL     1       7.843  -4.051  24.266  0.00  0.00    +0.078 A 
ATOM      5  C   UNL     1       7.358  -4.967  25.211  0.00  0.00    +0.062 A 
ATOM      6  C   UNL     1       6.089  -5.514  24.951  0.00  0.00    +0.015 A 
ATOM      7  C   UNL     1       5.368  -5.171  23.801  0.00  0.00    +0.003 A 
ATOM      8  C   UNL     1       5.888  -4.260  22.875  0.00  0.00    +0.030 A 
ATOM      9  C   UNL     1       7.142  -3.688  23.125  0.00  0.00    +0.090 A 
ATOM     10  N   UNL     1       7.835  -2.756  22.399  0.00  0.00    -0.232 NA
ENDROOT
BRANCH   1  14
ATOM     11  N   UNL     1       9.030   1.299  22.985  0.00  0.00    -0.302 NA
ATOM     12  C   UNL     1       9.353   0.497  24.177  0.00  0.00    +0.085 C 
ATOM     13  C   UNL     1      10.372  -0.624  23.932  0.00  0.00    +0.026 C 
ATOM     14  C   UNL     1      10.015  -1.516  22.732  0.00  0.00    +0.057 C 
ATOM     15  C   UNL     1       9.624  -0.659  21.524  0.00  0.00    +0.026 C 
ATOM     16  C   UNL     1       8.603   0.422  21.888  0.00  0.00    +0.085 C 
BRANCH  11  17
ATOM     17  C   UNL     1      10.094   2.249  22.641  0.00  0.00    +0.084 C 
BRANCH  17  19
ATOM     18  C   UNL     1       9.233   4.236  24.009  0.00  0.00    +0.005 C 
ATOM     19  C   UNL     1      10.395   3.293  23.729  0.00  0.00    +0.012 C 
ENDBRANCH  17  19
ENDBRANCH  11  17
ENDBRANCH   1  14
BRANCH   5  20
ATOM     20  C   UNL     1       8.173  -5.272  26.416  0.00  0.00    +0.244 C 
ATOM     21  O   UNL     1       7.639  -5.496  27.498  0.00  0.00    -0.270 OA
ATOM     22  N   UNL     1       9.534  -5.290  26.296  0.00  0.00    -0.325 N 
ATOM     23  H   UNL     1      10.068  -5.484  27.134  0.00  0.00    +0.145 HD
ATOM     24  H   UNL     1      10.045  -5.040  25.465  0.00  0.00    +0.145 HD
ENDBRANCH   5  20
TORSDOF 4
ENDMDL
MODEL 7
REMARK VINA RESULT:      -6.3      2.734      3.845
REMARK  Name = 
REMARK  5 active torsions:
REMARK  status: ('A' for Active; 'I' for Inactive)
REMARK    1  A    between atoms: C_1  and  C_2
REMARK    2  A    between atoms: C_2  and  C_3
REMARK    3  A    between atoms: C_3  and  N_4
REMARK    4  A    between atoms: C_7  and  C_10
REMARK    5  A    between atoms: C_15  and  C_19
REMARK                            x       y       z     vdW  Elec       q    Type
REMARK                         _______ _______ _______ _____ _____    ______ ____
ROOT
ATOM      1  C   UNL     1       8.007  -3.671  24.257  0.00  0.00    +0.111 A 
ATOM      2  N   UNL     1       6.929  -4.208  23.593  0.00  0.00    -0.341 N 
ATOM      3  H   UNL     1       6.689  -4.087  22.615  0.00  0.00    +0.167 HD
ATOM      4  C   UNL     1       6.231  -5.008  24.467  0.00  0.00    +0.078 A 
ATOM      5  C   UNL     1       5.103  -5.826  24.313  0.00  0.00    +0.062 A 
ATOM      6  C   UNL     1       4.681  -6.526  25.458  0.00  0.00    +0.015 A 
ATOM      7  C   UNL     1       5.346  -6.390  26.681  0.00  0.00    +0.003 A 
ATOM      8  C   UNL     1       6.465  -5.557  26.801  0.00  0.00    +0.030 A 
ATOM      9  C   UNL     1       6.914  -4.868  25.667  0.00  0.00    +0.090 A 
ATOM     10  N   UNL     1       7.993  -4.036  25.524  0.00  0.00    -0.232 NA
ENDROOT
BRANCH   1  14
ATOM     11  N   UNL     1       8.263   0.079  23.581  0.00  0.00    -0.302 NA
ATOM     12  C   UNL     1       8.779  -0.573  24.796  0.00  0.00    +0.085 C 
ATOM     13  C   UNL     1       9.670  -1.794  24.532  0.00  0.00    +0.026 C 
ATOM     14  C   UNL     1       9.037  -2.813  23.571  0.00  0.00    +0.057 C 
ATOM     15  C   UNL     1       8.455  -2.102  22.345  0.00  0.00    +0.026 C 
ATOM     16  C   UNL     1       7.582  -0.905  22.730  0.00  0.00    +0.085 C 
BRANCH  11  17
ATOM     17  C   UNL     1       9.282   0.887  22.901  0.00  0.00    +0.084 C 
BRANCH  17  19
ATOM     18  C   UNL     1       7.726   2.726  22.032  0.00  0.00    +0.005 C 
ATOM     19  C   UNL     1       8.768   1.671  21.683  0.00  0.00    +0.012 C 
ENDBRANCH  17  19
ENDBRANCH  11  17
ENDBRANCH   1  14
BRANCH   5  20
ATOM     20  C   UNL     1       4.456  -5.931  22.979  0.00  0.00    +0.244 C 
ATOM     21  O   UNL     1       4.985  -5.448  21.982  0.00  0.00    -0.270 OA
ATOM     22  N   UNL     1       3.253  -6.572  22.884  0.00  0.00    -0.325 N 
ATOM     23  H   UNL     1       2.825  -6.616  21.968  0.00  0.00    +0.145 HD
ATOM     24  H   UNL     1       2.723  -6.924  23.665  0.00  0.00    +0.145 HD
ENDBRANCH   5  20
TORSDOF 4
ENDMDL
MODEL 8
REMARK VINA RESULT:      -6.2      2.513      7.198
REMARK  Name = 
REMARK  5 active torsions:
REMARK  status: ('A' for Active; 'I' for Inactive)
REMARK    1  A    between atoms: C_1  and  C_2
REMARK    2  A    between atoms: C_2  and  C_3
REMARK    3  A    between atoms: C_3  and  N_4
REMARK    4  A    between atoms: C_7  and  C_10
REMARK    5  A    between atoms: C_15  and  C_19
REMARK                            x       y       z     vdW  Elec       q    Type
REMARK                         _______ _______ _______ _____ _____    ______ ____
ROOT
ATOM      1  C   UNL     1       9.393  -0.341  22.770  0.00  0.00    +0.111 A 
ATOM      2  N   UNL     1       8.285   0.460  22.621  0.00  0.00    -0.341 N 
ATOM      3  H   UNL     1       7.351   0.171  22.354  0.00  0.00    +0.167 HD
ATOM      4  C   UNL     1       8.632   1.749  22.954  0.00  0.00    +0.078 A 
ATOM      5  C   UNL     1       7.896   2.940  23.033  0.00  0.00    +0.062 A 
ATOM      6  C   UNL     1       8.606   4.084  23.438  0.00  0.00    +0.015 A 
ATOM      7  C   UNL     1       9.975   4.028  23.725  0.00  0.00    +0.003 A 
ATOM      8  C   UNL     1      10.680   2.823  23.627  0.00  0.00    +0.030 A 
ATOM      9  C   UNL     1       9.986   1.668  23.245  0.00  0.00    +0.090 A 
ATOM     10  N   UNL     1      10.439   0.381  23.117  0.00  0.00    -0.232 NA
ENDROOT
BRANCH   1  14
ATOM     11  N   UNL     1       7.576  -3.169  24.585  0.00  0.00    -0.302 NA
ATOM     12  C   UNL     1       7.008  -2.424  23.449  0.00  0.00    +0.085 C 
ATOM     13  C   UNL     1       7.932  -2.326  22.228  0.00  0.00    +0.026 C 
ATOM     14  C   UNL     1       9.346  -1.834  22.573  0.00  0.00    +0.057 C 
ATOM     15  C   UNL     1       9.890  -2.583  23.795  0.00  0.00    +0.026 C 
ATOM     16  C   UNL     1       8.886  -2.613  24.949  0.00  0.00    +0.085 C 
BRANCH  11  17
ATOM     17  C   UNL     1       7.558  -4.621  24.370  0.00  0.00    +0.084 C 
BRANCH  17  19
ATOM     18  C   UNL     1       6.504  -5.928  22.437  0.00  0.00    +0.005 C 
ATOM     19  C   UNL     1       6.267  -5.156  23.728  0.00  0.00    +0.012 C 
ENDBRANCH  17  19
ENDBRANCH  11  17
ENDBRANCH   1  14
BRANCH   5  20
ATOM     20  C   UNL     1       6.442   2.920  22.726  0.00  0.00    +0.244 C 
ATOM     21  O   UNL     1       5.710   2.053  23.196  0.00  0.00    -0.270 OA
ATOM     22  N   UNL     1       5.934   3.884  21.901  0.00  0.00    -0.325 N 
ATOM     23  H   UNL     1       4.944   3.839  21.695  0.00  0.00    +0.145 HD
ATOM     24  H   UNL     1       6.481   4.577  21.418  0.00  0.00    +0.145 HD
ENDBRANCH   5  20
TORSDOF 4
ENDMDL
MODEL 9
REMARK VINA RESULT:      -6.1      2.814      7.255
REMARK  Name = 
REMARK  5 active torsions:
REMARK  status: ('A' for Active; 'I' for Inactive)
REMARK    1  A    between atoms: C_1  and  C_2
REMARK    2  A    between atoms: C_2  and  C_3
REMARK    3  A    between atoms: C_3  and  N_4
REMARK    4  A    between atoms: C_7  and  C_10
REMARK    5  A    between atoms: C_15  and  C_19
REMARK                            x       y       z     vdW  Elec       q    Type
REMARK                         _______ _______ _______ _____ _____    ______ ____
ROOT
ATOM      1  C   UNL     1       7.196  -1.887  22.788  0.00  0.00    +0.111 A 
ATOM      2  N   UNL     1       6.566  -0.668  22.868  0.00  0.00    -0.341 N 
ATOM      3  H   UNL     1       5.606  -0.490  23.144  0.00  0.00    +0.167 HD
ATOM      4  C   UNL     1       7.477   0.315  22.560  0.00  0.00    +0.078 A 
ATOM      5  C   UNL     1       7.394   1.715  22.539  0.00  0.00    +0.062 A 
ATOM      6  C   UNL     1       8.568   2.402  22.185  0.00  0.00    +0.015 A 
ATOM      7  C   UNL     1       9.743   1.716  21.855  0.00  0.00    +0.003 A 
ATOM      8  C   UNL     1       9.787   0.318  21.879  0.00  0.00    +0.030 A 
ATOM      9  C   UNL     1       8.634  -0.385  22.249  0.00  0.00    +0.090 A 
ATOM     10  N   UNL     1       8.441  -1.735  22.383  0.00  0.00    -0.232 NA
ENDROOT
BRANCH   1  14
ATOM     11  N   UNL     1       7.542  -4.305  25.725  0.00  0.00    -0.302 NA
ATOM     12  C   UNL     1       6.623  -3.155  25.712  0.00  0.00    +0.085 C 
ATOM     13  C   UNL     1       5.729  -3.069  24.468  0.00  0.00    +0.026 C 
ATOM     14  C   UNL     1       6.511  -3.179  23.149  0.00  0.00    +0.057 C 
ATOM     15  C   UNL     1       7.502  -4.347  23.211  0.00  0.00    +0.026 C 
ATOM     16  C   UNL     1       8.339  -4.328  24.492  0.00  0.00    +0.085 C 
BRANCH  11  17
ATOM     17  C   UNL     1       6.860  -5.565  26.044  0.00  0.00    +0.084 C 
BRANCH  17  19
ATOM     18  C   UNL     1       4.861  -6.503  27.343  0.00  0.00    +0.005 C 
ATOM     19  C   UNL     1       6.038  -5.536  27.343  0.00  0.00    +0.012 C 
ENDBRANCH  17  19
ENDBRANCH  11  17
ENDBRANCH   1  14
BRANCH   5  20
ATOM     20  C   UNL     1       6.116   2.375  22.914  0.00  0.00    +0.244 C 
ATOM     21  O   UNL     1       5.452   1.969  23.864  0.00  0.00    -0.270 OA
ATOM     22  N   UNL     1       5.688   3.440  22.173  0.00  0.00    -0.325 N 
ATOM     23  H   UNL     1       4.807   3.862  22.439  0.00  0.00    +0.145 HD
ATOM     24  H   UNL     1       6.135   3.779  21.337  0.00  0.00    +0.145 HD
ENDBRANCH   5  20
TORSDOF 4
ENDMDL
