MODEL 1
REMARK VINA RESULT:      -5.7      0.000      0.000
REMARK  Name = 
REMARK  12 active torsions:
REMARK  status: ('A' for Active; 'I' for Inactive)
REMARK    1  A    between atoms: C_1  and  C_2
REMARK    2  A    between atoms: C_5  and  C_6
REMARK    3  A    between atoms: C_6  and  O_7
REMARK    4  A    between atoms: O_7  and  P_8
REMARK    5  A    between atoms: P_8  and  O_9
REMARK    6  A    between atoms: P_8  and  O_10
REMARK    7  A    between atoms: C_12  and  C_13
REMARK    8  A    between atoms: C_13  and  N_14
REMARK    9  A    between atoms: N_14  and  C_15
REMARK   10  A    between atoms: C_15  and  C_16
REMARK   11  A    between atoms: C_16  and  O_17
REMARK   12  A    between atoms: C_19  and  O_20
REMARK                            x       y       z     vdW  Elec       q    Type
REMARK                         _______ _______ _______ _____ _____    ______ ____
ROOT
ATOM      1  C   UNL     1       5.955  -5.938  21.414  0.00  0.00    +0.069 C 
ATOM      2  C   UNL     1       6.424  -4.655  22.029  0.00  0.00    +0.080 A 
ATOM      3  C   UNL     1       7.569  -4.612  22.832  0.00  0.00    +0.142 A 
ATOM      4  C   UNL     1       7.998  -3.393  23.388  0.00  0.00    +0.016 A 
ATOM      5  C   UNL     1       7.191  -2.254  23.146  0.00  0.00    +0.005 A 
ATOM      6  C   UNL     1       6.081  -2.396  22.313  0.00  0.00    +0.117 A 
ATOM      7  N   UNL     1       5.685  -3.556  21.754  0.00  0.00    -0.256 NA
ENDROOT
BRANCH   3   8
ATOM      8  O   UNL     1       8.242  -5.784  23.061  0.00  0.00    -0.505 OA
ATOM      9  H   UNL     1       8.668  -6.060  22.231  0.00  0.00    +0.292 HD
ENDBRANCH   3   8
BRANCH   4  10
ATOM     10  C   UNL     1       9.239  -3.328  24.260  0.00  0.00    +0.121 C 
BRANCH  10  11
ATOM     11  N   UNL     1       9.369  -4.493  25.169  0.00  0.00    -0.303 NA
ATOM     12  H   UNL     1      10.344  -4.486  25.496  0.00  0.00    +0.123 HD
BRANCH  11  13
ATOM     13  C   UNL     1       8.513  -4.235  26.371  0.00  0.00    +0.202 C 
BRANCH  13  14
ATOM     14  C   UNL     1       7.552  -5.393  26.615  0.00  0.00    +0.319 C 
ATOM     15  O   UNL     1       6.773  -5.838  25.790  0.00  0.00    -0.250 OA
BRANCH  14  16
ATOM     16  O   UNL     1       7.697  -5.924  27.861  0.00  0.00    -0.480 OA
ATOM     17  H   UNL     1       7.869  -6.887  27.758  0.00  0.00    +0.295 HD
ENDBRANCH  14  16
ENDBRANCH  13  14
ENDBRANCH  11  13
ENDBRANCH  10  11
ENDBRANCH   4  10
BRANCH   5  18
ATOM     18  C   UNL     1       7.530  -0.874  23.653  0.00  0.00    +0.209 C 
BRANCH  18  19
ATOM     19  O   UNL     1       7.509   0.108  22.609  0.00  0.00    -0.282 OA
BRANCH  19  20
ATOM     20  P   UNL     1       8.984   0.941  22.260  0.00  0.00    +0.473 P 
ATOM     21  O   UNL     1      10.305   1.687  21.947  0.00  0.00    -0.228 OA
BRANCH  20  22
ATOM     22  O   UNL     1       8.177   1.780  21.113  0.00  0.00    -0.303 OA
ATOM     23  H   UNL     1       7.864   1.178  20.414  0.00  0.00    +0.222 HD
ENDBRANCH  20  22
BRANCH  20  24
ATOM     24  O   UNL     1       9.414  -0.364  21.368  0.00  0.00    -0.303 OA
ATOM     25  H   UNL     1       8.731  -0.574  20.708  0.00  0.00    +0.222 HD
ENDBRANCH  20  24
ENDBRANCH  19  20
ENDBRANCH  18  19
ENDBRANCH   5  18
TORSDOF 11
ENDMDL
MODEL 2
REMARK VINA RESULT:      -5.6      2.989      6.331
REMARK  Name = 
REMARK  12 active torsions:
REMARK  status: ('A' for Active; 'I' for Inactive)
REMARK    1  A    between atoms: C_1  and  C_2
REMARK    2  A    between atoms: C_5  and  C_6
REMARK    3  A    between atoms: C_6  and  O_7
REMARK    4  A    between atoms: O_7  and  P_8
REMARK    5  A    between atoms: P_8  and  O_9
REMARK    6  A    between atoms: P_8  and  O_10
REMARK    7  A    between atoms: C_12  and  C_13
REMARK    8  A    between atoms: C_13  and  N_14
REMARK    9  A    between atoms: N_14  and  C_15
REMARK   10  A    between atoms: C_15  and  C_16
REMARK   11  A    between atoms: C_16  and  O_17
REMARK   12  A    between atoms: C_19  and  O_20
REMARK                            x       y       z     vdW  Elec       q    Type
REMARK                         _______ _______ _______ _____ _____    ______ ____
ROOT
ATOM      1  C   UNL     1       6.198  -5.531  21.090  0.00  0.00    +0.069 C 
ATOM      2  C   UNL     1       6.319  -5.206  22.547  0.00  0.00    +0.080 A 
ATOM      3  C   UNL     1       7.107  -4.138  22.988  0.00  0.00    +0.142 A 
ATOM      4  C   UNL     1       7.196  -3.841  24.360  0.00  0.00    +0.016 A 
ATOM      5  C   UNL     1       6.509  -4.703  25.251  0.00  0.00    +0.005 A 
ATOM      6  C   UNL     1       5.730  -5.727  24.711  0.00  0.00    +0.117 A 
ATOM      7  N   UNL     1       5.619  -5.994  23.395  0.00  0.00    -0.256 NA
ENDROOT
BRANCH   3   8
ATOM      8  O   UNL     1       7.788  -3.406  22.049  0.00  0.00    -0.505 OA
ATOM      9  H   UNL     1       7.986  -3.985  21.293  0.00  0.00    +0.292 HD
ENDBRANCH   3   8
BRANCH   4  10
ATOM     10  C   UNL     1       8.046  -2.685  24.855  0.00  0.00    +0.121 C 
BRANCH  10  11
ATOM     11  N   UNL     1       9.385  -2.638  24.219  0.00  0.00    -0.303 NA
ATOM     12  H   UNL     1       9.240  -2.925  23.242  0.00  0.00    +0.123 HD
BRANCH  11  13
ATOM     13  C   UNL     1       9.826  -1.207  24.183  0.00  0.00    +0.202 C 
BRANCH  13  14
ATOM     14  C   UNL     1      10.096  -0.756  22.753  0.00  0.00    +0.319 C 
ATOM     15  O   UNL     1      10.186   0.405  22.392  0.00  0.00    -0.250 OA
BRANCH  14  16
ATOM     16  O   UNL     1      10.283  -1.811  21.911  0.00  0.00    -0.480 OA
ATOM     17  H   UNL     1      10.092  -1.502  20.996  0.00  0.00    +0.295 HD
ENDBRANCH  14  16
ENDBRANCH  13  14
ENDBRANCH  11  13
ENDBRANCH  10  11
ENDBRANCH   4  10
BRANCH   5  18
ATOM     18  C   UNL     1       6.487  -4.504  26.746  0.00  0.00    +0.209 C 
BRANCH  18  19
ATOM     19  O   UNL     1       5.489  -5.309  27.387  0.00  0.00    -0.282 OA
BRANCH  19  20
ATOM     20  P   UNL     1       5.950  -6.182  28.808  0.00  0.00    +0.473 P 
ATOM     21  O   UNL     1       6.361  -6.963  30.080  0.00  0.00    -0.228 OA
BRANCH  20  22
ATOM     22  O   UNL     1       7.456  -6.299  28.185  0.00  0.00    -0.303 OA
ATOM     23  H   UNL     1       7.893  -5.430  28.197  0.00  0.00    +0.222 HD
ENDBRANCH  20  22
BRANCH  20  24
ATOM     24  O   UNL     1       5.280  -7.505  28.112  0.00  0.00    -0.303 OA
ATOM     25  H   UNL     1       4.526  -7.828  28.635  0.00  0.00    +0.222 HD
ENDBRANCH  20  24
ENDBRANCH  19  20
ENDBRANCH  18  19
ENDBRANCH   5  18
TORSDOF 11
ENDMDL
MODEL 3
REMARK VINA RESULT:      -5.6      5.453      8.349
REMARK  Name = 
REMARK  12 active torsions:
REMARK  status: ('A' for Active; 'I' for Inactive)
REMARK    1  A    between atoms: C_1  and  C_2
REMARK    2  A    between atoms: C_5  and  C_6
REMARK    3  A    between atoms: C_6  and  O_7
REMARK    4  A    between atoms: O_7  and  P_8
REMARK    5  A    between atoms: P_8  and  O_9
REMARK    6  A    between atoms: P_8  and  O_10
REMARK    7  A    between atoms: C_12  and  C_13
REMARK    8  A    between atoms: C_13  and  N_14
REMARK    9  A    between atoms: N_14  and  C_15
REMARK   10  A    between atoms: C_15  and  C_16
REMARK   11  A    between atoms: C_16  and  O_17
REMARK   12  A    between atoms: C_19  and  O_20
REMARK                            x       y       z     vdW  Elec       q    Type
REMARK                         _______ _______ _______ _____ _____    ______ ____
ROOT
ATOM      1  C   UNL     1       5.325   4.646  23.001  0.00  0.00    +0.069 C 
ATOM      2  C   UNL     1       6.575   3.846  22.799  0.00  0.00    +0.080 A 
ATOM      3  C   UNL     1       7.801   4.275  23.319  0.00  0.00    +0.142 A 
ATOM      4  C   UNL     1       8.961   3.502  23.128  0.00  0.00    +0.016 A 
ATOM      5  C   UNL     1       8.831   2.326  22.348  0.00  0.00    +0.005 A 
ATOM      6  C   UNL     1       7.560   1.972  21.894  0.00  0.00    +0.117 A 
ATOM      7  N   UNL     1       6.442   2.696  22.101  0.00  0.00    -0.256 NA
ENDROOT
BRANCH   3   8
ATOM      8  O   UNL     1       7.834   5.463  24.002  0.00  0.00    -0.505 OA
ATOM      9  H   UNL     1       7.164   5.431  24.706  0.00  0.00    +0.292 HD
ENDBRANCH   3   8
BRANCH   4  10
ATOM     10  C   UNL     1      10.299   3.952  23.686  0.00  0.00    +0.121 C 
BRANCH  10  11
ATOM     11  N   UNL     1      10.682   5.314  23.241  0.00  0.00    -0.303 NA
ATOM     12  H   UNL     1      10.035   5.957  23.719  0.00  0.00    +0.123 HD
BRANCH  11  13
ATOM     13  C   UNL     1      12.049   5.606  23.780  0.00  0.00    +0.202 C 
BRANCH  13  14
ATOM     14  C   UNL     1      13.118   5.336  22.727  0.00  0.00    +0.319 C 
ATOM     15  O   UNL     1      12.958   5.456  21.525  0.00  0.00    -0.250 OA
BRANCH  14  16
ATOM     16  O   UNL     1      14.311   4.991  23.287  0.00  0.00    -0.480 OA
ATOM     17  H   UNL     1      15.026   5.328  22.700  0.00  0.00    +0.295 HD
ENDBRANCH  14  16
ENDBRANCH  13  14
ENDBRANCH  11  13
ENDBRANCH  10  11
ENDBRANCH   4  10
BRANCH   5  18
ATOM     18  C   UNL     1       9.974   1.381  22.075  0.00  0.00    +0.209 C 
BRANCH  18  19
ATOM     19  O   UNL     1       9.525   0.117  21.570  0.00  0.00    -0.282 OA
BRANCH  19  20
ATOM     20  P   UNL     1       9.924  -1.300  22.478  0.00  0.00    +0.473 P 
ATOM     21  O   UNL     1      10.282  -2.569  23.292  0.00  0.00    -0.228 OA
BRANCH  20  22
ATOM     22  O   UNL     1       8.420  -1.253  23.114  0.00  0.00    -0.303 OA
ATOM     23  H   UNL     1       8.431  -0.786  23.968  0.00  0.00    +0.222 HD
ENDBRANCH  20  22
BRANCH  20  24
ATOM     24  O   UNL     1      10.682  -0.307  23.538  0.00  0.00    -0.303 OA
ATOM     25  H   UNL     1      11.033   0.480  23.087  0.00  0.00    +0.222 HD
ENDBRANCH  20  24
ENDBRANCH  19  20
ENDBRANCH  18  19
ENDBRANCH   5  18
TORSDOF 11
ENDMDL
MODEL 4
REMARK VINA RESULT:      -5.6      3.065      4.926
REMARK  Name = 
REMARK  12 active torsions:
REMARK  status: ('A' for Active; 'I' for Inactive)
REMARK    1  A    between atoms: C_1  and  C_2
REMARK    2  A    between atoms: C_5  and  C_6
REMARK    3  A    between atoms: C_6  and  O_7
REMARK    4  A    between atoms: O_7  and  P_8
REMARK    5  A    between atoms: P_8  and  O_9
REMARK    6  A    between atoms: P_8  and  O_10
REMARK    7  A    between atoms: C_12  and  C_13
REMARK    8  A    between atoms: C_13  and  N_14
REMARK    9  A    between atoms: N_14  and  C_15
REMARK   10  A    between atoms: C_15  and  C_16
REMARK   11  A    between atoms: C_16  and  O_17
REMARK   12  A    between atoms: C_19  and  O_20
REMARK                            x       y       z     vdW  Elec       q    Type
REMARK                         _______ _______ _______ _____ _____    ______ ____
ROOT
ATOM      1  C   UNL     1      11.027   1.178  24.335  0.00  0.00    +0.069 C 
ATOM      2  C   UNL     1      10.226  -0.040  23.994  0.00  0.00    +0.080 A 
ATOM      3  C   UNL     1       9.441  -0.684  24.957  0.00  0.00    +0.142 A 
ATOM      4  C   UNL     1       8.685  -1.820  24.611  0.00  0.00    +0.016 A 
ATOM      5  C   UNL     1       8.810  -2.297  23.283  0.00  0.00    +0.005 A 
ATOM      6  C   UNL     1       9.601  -1.571  22.391  0.00  0.00    +0.117 A 
ATOM      7  N   UNL     1      10.301  -0.466  22.712  0.00  0.00    -0.256 NA
ENDROOT
BRANCH   3   8
ATOM      8  O   UNL     1       9.442  -0.182  26.232  0.00  0.00    -0.505 OA
ATOM      9  H   UNL     1      10.357   0.042  26.473  0.00  0.00    +0.292 HD
ENDBRANCH   3   8
BRANCH   4  10
ATOM     10  C   UNL     1       7.828  -2.529  25.643  0.00  0.00    +0.121 C 
BRANCH  10  11
ATOM     11  N   UNL     1       8.627  -3.276  26.644  0.00  0.00    -0.303 NA
ATOM     12  H   UNL     1       8.070  -3.269  27.509  0.00  0.00    +0.123 HD
BRANCH  11  13
ATOM     13  C   UNL     1       8.705  -4.704  26.197  0.00  0.00    +0.202 C 
BRANCH  13  14
ATOM     14  C   UNL     1       7.464  -5.477  26.628  0.00  0.00    +0.319 C 
ATOM     15  O   UNL     1       6.470  -5.638  25.942  0.00  0.00    -0.250 OA
BRANCH  14  16
ATOM     16  O   UNL     1       7.608  -6.027  27.866  0.00  0.00    -0.480 OA
ATOM     17  H   UNL     1       7.082  -5.486  28.497  0.00  0.00    +0.295 HD
ENDBRANCH  14  16
ENDBRANCH  13  14
ENDBRANCH  11  13
ENDBRANCH  10  11
ENDBRANCH   4  10
BRANCH   5  18
ATOM     18  C   UNL     1       8.049  -3.487  22.754  0.00  0.00    +0.209 C 
BRANCH  18  19
ATOM     19  O   UNL     1       6.744  -3.129  22.279  0.00  0.00    -0.282 OA
BRANCH  19  20
ATOM     20  P   UNL     1       5.486  -4.308  22.415  0.00  0.00    +0.473 P 
ATOM     21  O   UNL     1       4.360  -5.364  22.536  0.00  0.00    -0.228 OA
BRANCH  20  22
ATOM     22  O   UNL     1       6.567  -5.302  23.132  0.00  0.00    -0.303 OA
ATOM     23  H   UNL     1       7.468  -4.950  23.027  0.00  0.00    +0.222 HD
ENDBRANCH  20  22
BRANCH  20  24
ATOM     24  O   UNL     1       5.787  -4.689  20.850  0.00  0.00    -0.303 OA
ATOM     25  H   UNL     1       6.737  -4.838  20.705  0.00  0.00    +0.222 HD
ENDBRANCH  20  24
ENDBRANCH  19  20
ENDBRANCH  18  19
ENDBRANCH   5  18
TORSDOF 11
ENDMDL
MODEL 5
REMARK VINA RESULT:      -5.6      2.778      5.698
REMARK  Name = 
REMARK  12 active torsions:
REMARK  status: ('A' for Active; 'I' for Inactive)
REMARK    1  A    between atoms: C_1  and  C_2
REMARK    2  A    between atoms: C_5  and  C_6
REMARK    3  A    between atoms: C_6  and  O_7
REMARK    4  A    between atoms: O_7  and  P_8
REMARK    5  A    between atoms: P_8  and  O_9
REMARK    6  A    between atoms: P_8  and  O_10
REMARK    7  A    between atoms: C_12  and  C_13
REMARK    8  A    between atoms: C_13  and  N_14
REMARK    9  A    between atoms: N_14  and  C_15
REMARK   10  A    between atoms: C_15  and  C_16
REMARK   11  A    between atoms: C_16  and  O_17
REMARK   12  A    between atoms: C_19  and  O_20
REMARK                            x       y       z     vdW  Elec       q    Type
REMARK                         _______ _______ _______ _____ _____    ______ ____
ROOT
ATOM      1  C   UNL     1       8.702   2.160  21.895  0.00  0.00    +0.069 C 
ATOM      2  C   UNL     1       8.772   0.780  22.472  0.00  0.00    +0.080 A 
ATOM      3  C   UNL     1       7.611   0.065  22.785  0.00  0.00    +0.142 A 
ATOM      4  C   UNL     1       7.700  -1.235  23.314  0.00  0.00    +0.016 A 
ATOM      5  C   UNL     1       9.000  -1.742  23.564  0.00  0.00    +0.005 A 
ATOM      6  C   UNL     1      10.095  -0.961  23.196  0.00  0.00    +0.117 A 
ATOM      7  N   UNL     1      10.012   0.274  22.660  0.00  0.00    -0.256 NA
ENDROOT
BRANCH   3   8
ATOM      8  O   UNL     1       6.401   0.672  22.569  0.00  0.00    -0.505 OA
ATOM      9  H   UNL     1       6.366   1.485  23.101  0.00  0.00    +0.292 HD
ENDBRANCH   3   8
BRANCH   4  10
ATOM     10  C   UNL     1       6.450  -2.025  23.658  0.00  0.00    +0.121 C 
BRANCH  10  11
ATOM     11  N   UNL     1       5.662  -2.408  22.462  0.00  0.00    -0.303 NA
ATOM     12  H   UNL     1       5.810  -1.656  21.776  0.00  0.00    +0.123 HD
BRANCH  11  13
ATOM     13  C   UNL     1       6.280  -3.644  21.881  0.00  0.00    +0.202 C 
BRANCH  13  14
ATOM     14  C   UNL     1       5.697  -4.897  22.522  0.00  0.00    +0.319 C 
ATOM     15  O   UNL     1       6.353  -5.808  22.997  0.00  0.00    -0.250 OA
BRANCH  14  16
ATOM     16  O   UNL     1       4.335  -4.868  22.557  0.00  0.00    -0.480 OA
ATOM     17  H   UNL     1       4.024  -5.753  22.853  0.00  0.00    +0.295 HD
ENDBRANCH  14  16
ENDBRANCH  13  14
ENDBRANCH  11  13
ENDBRANCH  10  11
ENDBRANCH   4  10
BRANCH   5  18
ATOM     18  C   UNL     1       9.261  -3.125  24.106  0.00  0.00    +0.209 C 
BRANCH  18  19
ATOM     19  O   UNL     1       9.021  -3.210  25.516  0.00  0.00    -0.282 OA
BRANCH  19  20
ATOM     20  P   UNL     1       8.207  -4.616  26.111  0.00  0.00    +0.473 P 
ATOM     21  O   UNL     1       7.479  -5.875  26.644  0.00  0.00    -0.228 OA
BRANCH  20  22
ATOM     22  O   UNL     1       9.521  -4.922  27.034  0.00  0.00    -0.303 OA
ATOM     23  H   UNL     1       9.656  -4.201  27.675  0.00  0.00    +0.222 HD
ENDBRANCH  20  22
BRANCH  20  24
ATOM     24  O   UNL     1       8.679  -5.370  24.736  0.00  0.00    -0.303 OA
ATOM     25  H   UNL     1       8.996  -4.727  24.078  0.00  0.00    +0.222 HD
ENDBRANCH  20  24
ENDBRANCH  19  20
ENDBRANCH  18  19
ENDBRANCH   5  18
TORSDOF 11
ENDMDL
MODEL 6
REMARK VINA RESULT:      -5.5      3.105      5.008
REMARK  Name = 
REMARK  12 active torsions:
REMARK  status: ('A' for Active; 'I' for Inactive)
REMARK    1  A    between atoms: C_1  and  C_2
REMARK    2  A    between atoms: C_5  and  C_6
REMARK    3  A    between atoms: C_6  and  O_7
REMARK    4  A    between atoms: O_7  and  P_8
REMARK    5  A    between atoms: P_8  and  O_9
REMARK    6  A    between atoms: P_8  and  O_10
REMARK    7  A    between atoms: C_12  and  C_13
REMARK    8  A    between atoms: C_13  and  N_14
REMARK    9  A    between atoms: N_14  and  C_15
REMARK   10  A    between atoms: C_15  and  C_16
REMARK   11  A    between atoms: C_16  and  O_17
REMARK   12  A    between atoms: C_19  and  O_20
REMARK                            x       y       z     vdW  Elec       q    Type
REMARK                         _______ _______ _______ _____ _____    ______ ____
ROOT
ATOM      1  C   UNL     1      10.812   2.725  23.448  0.00  0.00    +0.069 C 
ATOM      2  C   UNL     1      10.157   1.414  23.136  0.00  0.00    +0.080 A 
ATOM      3  C   UNL     1      10.045   0.412  24.106  0.00  0.00    +0.142 A 
ATOM      4  C   UNL     1       9.413  -0.807  23.795  0.00  0.00    +0.016 A 
ATOM      5  C   UNL     1       8.966  -0.979  22.462  0.00  0.00    +0.005 A 
ATOM      6  C   UNL     1       9.104   0.089  21.575  0.00  0.00    +0.117 A 
ATOM      7  N   UNL     1       9.681   1.269  21.879  0.00  0.00    -0.256 NA
ENDROOT
BRANCH   3   8
ATOM      8  O   UNL     1      10.571   0.652  25.348  0.00  0.00    -0.505 OA
ATOM      9  H   UNL     1       9.928   1.175  25.858  0.00  0.00    +0.292 HD
ENDBRANCH   3   8
BRANCH   4  10
ATOM     10  C   UNL     1       9.282  -1.904  24.836  0.00  0.00    +0.121 C 
BRANCH  10  11
ATOM     11  N   UNL     1       7.873  -2.191  25.198  0.00  0.00    -0.303 NA
ATOM     12  H   UNL     1       7.523  -2.834  24.474  0.00  0.00    +0.123 HD
BRANCH  11  13
ATOM     13  C   UNL     1       7.877  -2.959  26.484  0.00  0.00    +0.202 C 
BRANCH  13  14
ATOM     14  C   UNL     1       7.902  -4.461  26.222  0.00  0.00    +0.319 C 
ATOM     15  O   UNL     1       7.048  -5.076  25.608  0.00  0.00    -0.250 OA
BRANCH  14  16
ATOM     16  O   UNL     1       9.031  -5.046  26.712  0.00  0.00    -0.480 OA
ATOM     17  H   UNL     1       8.871  -5.255  27.661  0.00  0.00    +0.295 HD
ENDBRANCH  14  16
ENDBRANCH  13  14
ENDBRANCH  11  13
ENDBRANCH  10  11
ENDBRANCH   4  10
BRANCH   5  18
ATOM     18  C   UNL     1       8.251  -2.217  21.980  0.00  0.00    +0.209 C 
BRANCH  18  19
ATOM     19  O   UNL     1       6.848  -2.180  22.269  0.00  0.00    -0.282 OA
BRANCH  19  20
ATOM     20  P   UNL     1       5.982  -3.678  22.249  0.00  0.00    +0.473 P 
ATOM     21  O   UNL     1       5.207  -5.019  22.230  0.00  0.00    -0.228 OA
BRANCH  20  22
ATOM     22  O   UNL     1       5.370  -3.285  23.712  0.00  0.00    -0.303 OA
ATOM     23  H   UNL     1       6.080  -3.265  24.378  0.00  0.00    +0.222 HD
ENDBRANCH  20  22
BRANCH  20  24
ATOM     24  O   UNL     1       7.373  -4.394  22.736  0.00  0.00    -0.303 OA
ATOM     25  H   UNL     1       7.543  -5.204  22.226  0.00  0.00    +0.222 HD
ENDBRANCH  20  24
ENDBRANCH  19  20
ENDBRANCH  18  19
ENDBRANCH   5  18
TORSDOF 11
ENDMDL
MODEL 7
REMARK VINA RESULT:      -5.4      4.045      6.290
REMARK  Name = 
REMARK  12 active torsions:
REMARK  status: ('A' for Active; 'I' for Inactive)
REMARK    1  A    between atoms: C_1  and  C_2
REMARK    2  A    between atoms: C_5  and  C_6
REMARK    3  A    between atoms: C_6  and  O_7
REMARK    4  A    between atoms: O_7  and  P_8
REMARK    5  A    between atoms: P_8  and  O_9
REMARK    6  A    between atoms: P_8  and  O_10
REMARK    7  A    between atoms: C_12  and  C_13
REMARK    8  A    between atoms: C_13  and  N_14
REMARK    9  A    between atoms: N_14  and  C_15
REMARK   10  A    between atoms: C_15  and  C_16
REMARK   11  A    between atoms: C_16  and  O_17
REMARK   12  A    between atoms: C_19  and  O_20
REMARK                            x       y       z     vdW  Elec       q    Type
REMARK                         _______ _______ _______ _____ _____    ______ ____
ROOT
ATOM      1  C   UNL     1       6.369  -6.755  29.282  0.00  0.00    +0.069 C 
ATOM      2  C   UNL     1       6.335  -6.181  27.898  0.00  0.00    +0.080 A 
ATOM      3  C   UNL     1       5.251  -6.412  27.044  0.00  0.00    +0.142 A 
ATOM      4  C   UNL     1       5.234  -5.852  25.754  0.00  0.00    +0.016 A 
ATOM      5  C   UNL     1       6.375  -5.113  25.357  0.00  0.00    +0.005 A 
ATOM      6  C   UNL     1       7.395  -4.920  26.290  0.00  0.00    +0.117 A 
ATOM      7  N   UNL     1       7.400  -5.430  27.537  0.00  0.00    -0.256 NA
ENDROOT
BRANCH   3   8
ATOM      8  O   UNL     1       4.225  -7.199  27.501  0.00  0.00    -0.505 OA
ATOM      9  H   UNL     1       4.548  -8.113  27.572  0.00  0.00    +0.292 HD
ENDBRANCH   3   8
BRANCH   4  10
ATOM     10  C   UNL     1       4.065  -6.092  24.815  0.00  0.00    +0.121 C 
BRANCH  10  11
ATOM     11  N   UNL     1       3.923  -7.514  24.419  0.00  0.00    -0.303 NA
ATOM     12  H   UNL     1       4.095  -8.061  25.274  0.00  0.00    +0.123 HD
BRANCH  11  13
ATOM     13  C   UNL     1       2.491  -7.746  24.044  0.00  0.00    +0.202 C 
BRANCH  13  14
ATOM     14  C   UNL     1       1.839  -8.753  24.983  0.00  0.00    +0.319 C 
ATOM     15  O   UNL     1       1.187  -9.719  24.626  0.00  0.00    -0.250 OA
BRANCH  14  16
ATOM     16  O   UNL     1       2.112  -8.485  26.291  0.00  0.00    -0.480 OA
ATOM     17  H   UNL     1       2.947  -8.950  26.524  0.00  0.00    +0.295 HD
ENDBRANCH  14  16
ENDBRANCH  13  14
ENDBRANCH  11  13
ENDBRANCH  10  11
ENDBRANCH   4  10
BRANCH   5  18
ATOM     18  C   UNL     1       6.498  -4.433  24.016  0.00  0.00    +0.209 C 
BRANCH  18  19
ATOM     19  O   UNL     1       7.250  -5.213  23.078  0.00  0.00    -0.282 OA
BRANCH  19  20
ATOM     20  P   UNL     1       6.574  -5.451  21.504  0.00  0.00    +0.473 P 
ATOM     21  O   UNL     1       5.969  -5.664  20.094  0.00  0.00    -0.228 OA
BRANCH  20  22
ATOM     22  O   UNL     1       5.347  -4.464  21.939  0.00  0.00    -0.303 OA
ATOM     23  H   UNL     1       4.740  -4.928  22.542  0.00  0.00    +0.222 HD
ENDBRANCH  20  22
BRANCH  20  24
ATOM     24  O   UNL     1       5.975  -6.868  22.065  0.00  0.00    -0.303 OA
ATOM     25  H   UNL     1       5.920  -7.528  21.353  0.00  0.00    +0.222 HD
ENDBRANCH  20  24
ENDBRANCH  19  20
ENDBRANCH  18  19
ENDBRANCH   5  18
TORSDOF 11
ENDMDL
MODEL 8
REMARK VINA RESULT:      -5.3      1.716      3.776
REMARK  Name = 
REMARK  12 active torsions:
REMARK  status: ('A' for Active; 'I' for Inactive)
REMARK    1  A    between atoms: C_1  and  C_2
REMARK    2  A    between atoms: C_5  and  C_6
REMARK    3  A    between atoms: C_6  and  O_7
REMARK    4  A    between atoms: O_7  and  P_8
REMARK    5  A    between atoms: P_8  and  O_9
REMARK    6  A    between atoms: P_8  and  O_10
REMARK    7  A    between atoms: C_12  and  C_13
REMARK    8  A    between atoms: C_13  and  N_14
REMARK    9  A    between atoms: N_14  and  C_15
REMARK   10  A    between atoms: C_15  and  C_16
REMARK   11  A    between atoms: C_16  and  O_17
REMARK   12  A    between atoms: C_19  and  O_20
REMARK                            x       y       z     vdW  Elec       q    Type
REMARK                         _______ _______ _______ _____ _____    ______ ____
ROOT
ATOM      1  C   UNL     1       9.717  -5.110  25.493  0.00  0.00    +0.069 C 
ATOM      2  C   UNL     1       9.244  -3.897  24.752  0.00  0.00    +0.080 A 
ATOM      3  C   UNL     1       7.895  -3.529  24.749  0.00  0.00    +0.142 A 
ATOM      4  C   UNL     1       7.475  -2.378  24.057  0.00  0.00    +0.016 A 
ATOM      5  C   UNL     1       8.462  -1.667  23.331  0.00  0.00    +0.005 A 
ATOM      6  C   UNL     1       9.786  -2.101  23.416  0.00  0.00    +0.117 A 
ATOM      7  N   UNL     1      10.195  -3.186  24.103  0.00  0.00    -0.256 NA
ENDROOT
BRANCH   3   8
ATOM      8  O   UNL     1       7.007  -4.324  25.427  0.00  0.00    -0.505 OA
ATOM      9  H   UNL     1       7.348  -5.235  25.425  0.00  0.00    +0.292 HD
ENDBRANCH   3   8
BRANCH   4  10
ATOM     10  C   UNL     1       6.015  -1.965  24.045  0.00  0.00    +0.121 C 
BRANCH  10  11
ATOM     11  N   UNL     1       5.106  -3.064  23.639  0.00  0.00    -0.303 NA
ATOM     12  H   UNL     1       4.158  -2.663  23.652  0.00  0.00    +0.123 HD
BRANCH  11  13
ATOM     13  C   UNL     1       5.406  -3.404  22.211  0.00  0.00    +0.202 C 
BRANCH  13  14
ATOM     14  C   UNL     1       5.737  -4.884  22.062  0.00  0.00    +0.319 C 
ATOM     15  O   UNL     1       5.752  -5.691  22.975  0.00  0.00    -0.250 OA
BRANCH  14  16
ATOM     16  O   UNL     1       5.969  -5.228  20.764  0.00  0.00    -0.480 OA
ATOM     17  H   UNL     1       5.126  -5.572  20.391  0.00  0.00    +0.295 HD
ENDBRANCH  14  16
ENDBRANCH  13  14
ENDBRANCH  11  13
ENDBRANCH  10  11
ENDBRANCH   4  10
BRANCH   5  18
ATOM     18  C   UNL     1       8.175  -0.402  22.561  0.00  0.00    +0.209 C 
BRANCH  18  19
ATOM     19  O   UNL     1       9.366   0.347  22.284  0.00  0.00    -0.282 OA
BRANCH  19  20
ATOM     20  P   UNL     1       9.482   1.944  22.938  0.00  0.00    +0.473 P 
ATOM     21  O   UNL     1       9.585   3.374  23.524  0.00  0.00    -0.228 OA
BRANCH  20  22
ATOM     22  O   UNL     1      10.333   2.370  21.609  0.00  0.00    -0.303 OA
ATOM     23  H   UNL     1       9.814   2.189  20.806  0.00  0.00    +0.222 HD
ENDBRANCH  20  22
BRANCH  20  24
ATOM     24  O   UNL     1      10.713   1.387  23.863  0.00  0.00    -0.303 OA
ATOM     25  H   UNL     1      10.378   0.994  24.688  0.00  0.00    +0.222 HD
ENDBRANCH  20  24
ENDBRANCH  19  20
ENDBRANCH  18  19
ENDBRANCH   5  18
TORSDOF 11
ENDMDL
MODEL 9
REMARK VINA RESULT:      -5.3      2.879      5.921
REMARK  Name = 
REMARK  12 active torsions:
REMARK  status: ('A' for Active; 'I' for Inactive)
REMARK    1  A    between atoms: C_1  and  C_2
REMARK    2  A    between atoms: C_5  and  C_6
REMARK    3  A    between atoms: C_6  and  O_7
REMARK    4  A    between atoms: O_7  and  P_8
REMARK    5  A    between atoms: P_8  and  O_9
REMARK    6  A    between atoms: P_8  and  O_10
REMARK    7  A    between atoms: C_12  and  C_13
REMARK    8  A    between atoms: C_13  and  N_14
REMARK    9  A    between atoms: N_14  and  C_15
REMARK   10  A    between atoms: C_15  and  C_16
REMARK   11  A    between atoms: C_16  and  O_17
REMARK   12  A    between atoms: C_19  and  O_20
REMARK                            x       y       z     vdW  Elec       q    Type
REMARK                         _______ _______ _______ _____ _____    ______ ____
ROOT
ATOM      1  C   UNL     1       9.913   0.770  23.104  0.00  0.00    +0.069 C 
ATOM      2  C   UNL     1       9.433  -0.340  23.988  0.00  0.00    +0.080 A 
ATOM      3  C   UNL     1       9.292  -1.644  23.501  0.00  0.00    +0.142 A 
ATOM      4  C   UNL     1       8.852  -2.674  24.352  0.00  0.00    +0.016 A 
ATOM      5  C   UNL     1       8.510  -2.312  25.679  0.00  0.00    +0.005 A 
ATOM      6  C   UNL     1       8.708  -0.989  26.075  0.00  0.00    +0.117 A 
ATOM      7  N   UNL     1       9.158  -0.007  25.269  0.00  0.00    -0.256 NA
ENDROOT
BRANCH   3   8
ATOM      8  O   UNL     1       9.585  -1.877  22.182  0.00  0.00    -0.505 OA
ATOM      9  H   UNL     1       8.856  -1.529  21.640  0.00  0.00    +0.292 HD
ENDBRANCH   3   8
BRANCH   4  10
ATOM     10  C   UNL     1       8.694  -4.095  23.841  0.00  0.00    +0.121 C 
BRANCH  10  11
ATOM     11  N   UNL     1       7.344  -4.365  23.291  0.00  0.00    -0.303 NA
ATOM     12  H   UNL     1       7.102  -3.540  22.726  0.00  0.00    +0.123 HD
BRANCH  11  13
ATOM     13  C   UNL     1       7.458  -5.517  22.340  0.00  0.00    +0.202 C 
BRANCH  13  14
ATOM     14  C   UNL     1       6.124  -5.791  21.655  0.00  0.00    +0.319 C 
ATOM     15  O   UNL     1       5.889  -5.586  20.477  0.00  0.00    -0.250 OA
BRANCH  14  16
ATOM     16  O   UNL     1       5.218  -6.351  22.506  0.00  0.00    -0.480 OA
ATOM     17  H   UNL     1       5.714  -6.707  23.278  0.00  0.00    +0.295 HD
ENDBRANCH  14  16
ENDBRANCH  13  14
ENDBRANCH  11  13
ENDBRANCH  10  11
ENDBRANCH   4  10
BRANCH   5  18
ATOM     18  C   UNL     1       8.046  -3.304  26.716  0.00  0.00    +0.209 C 
BRANCH  18  19
ATOM     19  O   UNL     1       6.729  -3.799  26.443  0.00  0.00    -0.282 OA
BRANCH  19  20
ATOM     20  P   UNL     1       6.325  -5.378  27.024  0.00  0.00    +0.473 P 
ATOM     21  O   UNL     1       5.964  -6.791  27.544  0.00  0.00    -0.228 OA
BRANCH  20  22
ATOM     22  O   UNL     1       7.919  -5.740  26.991  0.00  0.00    -0.303 OA
ATOM     23  H   UNL     1       8.427  -4.986  26.644  0.00  0.00    +0.222 HD
ENDBRANCH  20  22
BRANCH  20  24
ATOM     24  O   UNL     1       5.944  -5.760  25.478  0.00  0.00    -0.303 OA
ATOM     25  H   UNL     1       6.615  -5.421  24.860  0.00  0.00    +0.222 HD
ENDBRANCH  20  24
ENDBRANCH  19  20
ENDBRANCH  18  19
ENDBRANCH   5  18
TORSDOF 11
ENDMDL
