MODEL 1
REMARK VINA RESULT:      -6.5      0.000      0.000
REMARK  Name = 
REMARK  9 active torsions:
REMARK  status: ('A' for Active; 'I' for Inactive)
REMARK    1  A    between atoms: C_1  and  C_2
REMARK    2  A    between atoms: N_4  and  C_5
REMARK    3  A    between atoms: C_8  and  O_9
REMARK    4  A    between atoms: O_9  and  C_10
REMARK    5  A    between atoms: C_10  and  C_12
REMARK    6  A    between atoms: C_12  and  C_13
REMARK    7  A    between atoms: C_13  and  C_14
REMARK    8  A    between atoms: C_14  and  O_15
REMARK    9  A    between atoms: O_15  and  N_16
REMARK                            x       y       z     vdW  Elec       q    Type
REMARK                         _______ _______ _______ _____ _____    ______ ____
ROOT
ATOM      1  C   UNL     1      10.278   2.341  23.113  0.00  0.00    +0.034 A 
ATOM      2  C   UNL     1       9.773   1.776  21.935  0.00  0.00    +0.027 A 
ATOM      3  C   UNL     1       9.736   0.386  21.763  0.00  0.00    +0.048 A 
ATOM      4  C   UNL     1      10.180  -0.447  22.786  0.00  0.00    +0.132 A 
ATOM      5  C   UNL     1      10.664   0.101  23.972  0.00  0.00    +0.048 A 
ATOM      6  C   UNL     1      10.707   1.490  24.135  0.00  0.00    +0.027 A 
ENDROOT
BRANCH   1   9
ATOM      7  C   UNL     1      10.005   6.029  23.862  0.00  0.00    +0.109 C 
ATOM      8  C   UNL     1       9.584   4.586  23.975  0.00  0.00    +0.214 C 
ATOM      9  N   UNL     1      10.352   3.748  23.183  0.00  0.00    -0.286 N 
ATOM     10  H   UNL     1      11.081   4.185  22.631  0.00  0.00    +0.155 HD
ATOM     11  O   UNL     1       8.669   4.261  24.720  0.00  0.00    -0.276 OA
ENDBRANCH   1   9
BRANCH   4  12
ATOM     12  O   UNL     1      10.255  -1.851  22.684  0.00  0.00    -0.426 OA
BRANCH  12  13
ATOM     13  C   UNL     1       9.598  -2.690  23.580  0.00  0.00    +0.312 C 
ATOM     14  O   UNL     1      10.106  -3.523  24.318  0.00  0.00    -0.250 OA
BRANCH  13  15
ATOM     15  C   UNL     1       8.108  -2.499  23.459  0.00  0.00    +0.124 C 
BRANCH  15  16
ATOM     16  C   UNL     1       7.489  -3.497  22.488  0.00  0.00    +0.059 C 
BRANCH  16  17
ATOM     17  C   UNL     1       7.260  -4.884  23.093  0.00  0.00    +0.321 C 
BRANCH  17  18
ATOM     18  O   UNL     1       7.143  -5.806  22.011  0.00  0.00    -0.217 OA
BRANCH  18  19
ATOM     19  N   UNL     1       5.896  -5.712  21.348  0.00  0.00    +0.284 N 
ATOM     20  O   UNL     1       6.015  -5.615  20.128  0.00  0.00    +0.093 OA
ATOM     21  O   UNL     1       4.882  -5.731  22.045  0.00  0.00    -0.534 OA
ENDBRANCH  18  19
ENDBRANCH  17  18
ENDBRANCH  16  17
ENDBRANCH  15  16
ENDBRANCH  13  15
ENDBRANCH  12  13
ENDBRANCH   4  12
TORSDOF 8
ENDMDL
MODEL 2
REMARK VINA RESULT:      -6.5      2.474      3.162
REMARK  Name = 
REMARK  9 active torsions:
REMARK  status: ('A' for Active; 'I' for Inactive)
REMARK    1  A    between atoms: C_1  and  C_2
REMARK    2  A    between atoms: N_4  and  C_5
REMARK    3  A    between atoms: C_8  and  O_9
REMARK    4  A    between atoms: O_9  and  C_10
REMARK    5  A    between atoms: C_10  and  C_12
REMARK    6  A    between atoms: C_12  and  C_13
REMARK    7  A    between atoms: C_13  and  C_14
REMARK    8  A    between atoms: C_14  and  O_15
REMARK    9  A    between atoms: O_15  and  N_16
REMARK                            x       y       z     vdW  Elec       q    Type
REMARK                         _______ _______ _______ _____ _____    ______ ____
ROOT
ATOM      1  C   UNL     1      10.131   2.333  23.178  0.00  0.00    +0.034 A 
ATOM      2  C   UNL     1      10.537   1.488  24.219  0.00  0.00    +0.027 A 
ATOM      3  C   UNL     1      10.537   0.096  24.057  0.00  0.00    +0.048 A 
ATOM      4  C   UNL     1      10.156  -0.455  22.836  0.00  0.00    +0.132 A 
ATOM      5  C   UNL     1       9.772   0.374  21.785  0.00  0.00    +0.048 A 
ATOM      6  C   UNL     1       9.765   1.762  21.956  0.00  0.00    +0.027 A 
ENDROOT
BRANCH   1   9
ATOM      7  C   UNL     1      10.729   6.021  23.703  0.00  0.00    +0.109 C 
ATOM      8  C   UNL     1      11.161   4.592  23.491  0.00  0.00    +0.214 C 
ATOM      9  N   UNL     1      10.087   3.718  23.441  0.00  0.00    -0.286 N 
ATOM     10  H   UNL     1       9.165   4.123  23.553  0.00  0.00    +0.155 HD
ATOM     11  O   UNL     1      12.346   4.312  23.366  0.00  0.00    -0.276 OA
ENDBRANCH   1   9
BRANCH   4  12
ATOM     12  O   UNL     1      10.049  -1.840  22.596  0.00  0.00    -0.426 OA
BRANCH  12  13
ATOM     13  C   UNL     1       9.507  -2.711  23.537  0.00  0.00    +0.312 C 
ATOM     14  O   UNL     1      10.117  -3.485  24.263  0.00  0.00    -0.250 OA
BRANCH  13  15
ATOM     15  C   UNL     1       8.002  -2.644  23.489  0.00  0.00    +0.124 C 
BRANCH  15  16
ATOM     16  C   UNL     1       7.368  -4.000  23.772  0.00  0.00    +0.059 C 
BRANCH  16  17
ATOM     17  C   UNL     1       6.683  -4.086  25.138  0.00  0.00    +0.321 C 
BRANCH  17  18
ATOM     18  O   UNL     1       7.068  -5.326  25.728  0.00  0.00    -0.217 OA
BRANCH  18  19
ATOM     19  N   UNL     1       7.766  -5.157  26.947  0.00  0.00    +0.284 N 
ATOM     20  O   UNL     1       7.450  -5.991  27.793  0.00  0.00    +0.093 OA
ATOM     21  O   UNL     1       8.567  -4.225  27.016  0.00  0.00    -0.534 OA
ENDBRANCH  18  19
ENDBRANCH  17  18
ENDBRANCH  16  17
ENDBRANCH  15  16
ENDBRANCH  13  15
ENDBRANCH  12  13
ENDBRANCH   4  12
TORSDOF 8
ENDMDL
MODEL 3
REMARK VINA RESULT:      -5.7      2.855      8.328
REMARK  Name = 
REMARK  9 active torsions:
REMARK  status: ('A' for Active; 'I' for Inactive)
REMARK    1  A    between atoms: C_1  and  C_2
REMARK    2  A    between atoms: N_4  and  C_5
REMARK    3  A    between atoms: C_8  and  O_9
REMARK    4  A    between atoms: O_9  and  C_10
REMARK    5  A    between atoms: C_10  and  C_12
REMARK    6  A    between atoms: C_12  and  C_13
REMARK    7  A    between atoms: C_13  and  C_14
REMARK    8  A    between atoms: C_14  and  O_15
REMARK    9  A    between atoms: O_15  and  N_16
REMARK                            x       y       z     vdW  Elec       q    Type
REMARK                         _______ _______ _______ _____ _____    ______ ____
ROOT
ATOM      1  C   UNL     1       5.313  -6.184  23.488  0.00  0.00    +0.034 A 
ATOM      2  C   UNL     1       6.146  -6.154  22.362  0.00  0.00    +0.027 A 
ATOM      3  C   UNL     1       7.354  -5.446  22.380  0.00  0.00    +0.048 A 
ATOM      4  C   UNL     1       7.748  -4.786  23.541  0.00  0.00    +0.132 A 
ATOM      5  C   UNL     1       6.941  -4.826  24.676  0.00  0.00    +0.048 A 
ATOM      6  C   UNL     1       5.731  -5.526  24.649  0.00  0.00    +0.027 A 
ENDROOT
BRANCH   1   9
ATOM      7  C   UNL     1       1.751  -7.316  22.969  0.00  0.00    +0.109 C 
ATOM      8  C   UNL     1       2.838  -6.284  23.130  0.00  0.00    +0.214 C 
ATOM      9  N   UNL     1       4.078  -6.855  23.370  0.00  0.00    -0.286 N 
ATOM     10  H   UNL     1       4.112  -7.866  23.414  0.00  0.00    +0.155 HD
ATOM     11  O   UNL     1       2.584  -5.091  23.028  0.00  0.00    -0.276 OA
ENDBRANCH   1   9
BRANCH   4  12
ATOM     12  O   UNL     1       8.905  -3.985  23.639  0.00  0.00    -0.426 OA
BRANCH  12  13
ATOM     13  C   UNL     1       8.832  -2.603  23.789  0.00  0.00    +0.312 C 
ATOM     14  O   UNL     1       9.048  -1.959  24.806  0.00  0.00    -0.250 OA
BRANCH  13  15
ATOM     15  C   UNL     1       8.346  -1.975  22.507  0.00  0.00    +0.124 C 
BRANCH  15  16
ATOM     16  C   UNL     1       9.454  -1.203  21.802  0.00  0.00    +0.059 C 
BRANCH  16  17
ATOM     17  C   UNL     1       9.188   0.300  21.700  0.00  0.00    +0.321 C 
BRANCH  17  18
ATOM     18  O   UNL     1      10.296   0.970  22.298  0.00  0.00    -0.217 OA
BRANCH  18  19
ATOM     19  N   UNL     1      10.146   1.132  23.695  0.00  0.00    +0.284 N 
ATOM     20  O   UNL     1       9.119   1.740  23.993  0.00  0.00    +0.093 OA
ATOM     21  O   UNL     1      11.030   0.672  24.417  0.00  0.00    -0.534 OA
ENDBRANCH  18  19
ENDBRANCH  17  18
ENDBRANCH  16  17
ENDBRANCH  15  16
ENDBRANCH  13  15
ENDBRANCH  12  13
ENDBRANCH   4  12
TORSDOF 8
ENDMDL
MODEL 4
REMARK VINA RESULT:      -5.7      3.486      4.152
REMARK  Name = 
REMARK  9 active torsions:
REMARK  status: ('A' for Active; 'I' for Inactive)
REMARK    1  A    between atoms: C_1  and  C_2
REMARK    2  A    between atoms: N_4  and  C_5
REMARK    3  A    between atoms: C_8  and  O_9
REMARK    4  A    between atoms: O_9  and  C_10
REMARK    5  A    between atoms: C_10  and  C_12
REMARK    6  A    between atoms: C_12  and  C_13
REMARK    7  A    between atoms: C_13  and  C_14
REMARK    8  A    between atoms: C_14  and  O_15
REMARK    9  A    between atoms: O_15  and  N_16
REMARK                            x       y       z     vdW  Elec       q    Type
REMARK                         _______ _______ _______ _____ _____    ______ ____
ROOT
ATOM      1  C   UNL     1       9.269   0.728  24.022  0.00  0.00    +0.034 A 
ATOM      2  C   UNL     1       9.247   0.037  25.241  0.00  0.00    +0.027 A 
ATOM      3  C   UNL     1       9.459  -1.347  25.287  0.00  0.00    +0.048 A 
ATOM      4  C   UNL     1       9.725  -2.043  24.111  0.00  0.00    +0.132 A 
ATOM      5  C   UNL     1       9.772  -1.366  22.895  0.00  0.00    +0.048 A 
ATOM      6  C   UNL     1       9.549   0.014  22.853  0.00  0.00    +0.027 A 
ENDROOT
BRANCH   1   9
ATOM      7  C   UNL     1       9.153   4.493  23.805  0.00  0.00    +0.109 C 
ATOM      8  C   UNL     1       9.841   3.151  23.777  0.00  0.00    +0.214 C 
ATOM      9  N   UNL     1       8.972   2.106  24.047  0.00  0.00    -0.286 N 
ATOM     10  H   UNL     1       8.008   2.353  24.232  0.00  0.00    +0.155 HD
ATOM     11  O   UNL     1      11.035   3.069  23.518  0.00  0.00    -0.276 OA
ENDBRANCH   1   9
BRANCH   4  12
ATOM     12  O   UNL     1       9.877  -3.443  24.040  0.00  0.00    -0.426 OA
BRANCH  12  13
ATOM     13  C   UNL     1       9.327  -4.292  24.997  0.00  0.00    +0.312 C 
ATOM     14  O   UNL     1       9.924  -4.896  25.877  0.00  0.00    -0.250 OA
BRANCH  13  15
ATOM     15  C   UNL     1       7.848  -4.452  24.748  0.00  0.00    +0.124 C 
BRANCH  15  16
ATOM     16  C   UNL     1       7.043  -4.318  26.035  0.00  0.00    +0.059 C 
BRANCH  16  17
ATOM     17  C   UNL     1       6.546  -5.654  26.592  0.00  0.00    +0.321 C 
BRANCH  17  18
ATOM     18  O   UNL     1       7.237  -5.886  27.818  0.00  0.00    -0.217 OA
BRANCH  18  19
ATOM     19  N   UNL     1       6.384  -6.354  28.845  0.00  0.00    +0.284 N 
ATOM     20  O   UNL     1       6.254  -5.543  29.759  0.00  0.00    +0.093 OA
ATOM     21  O   UNL     1       5.900  -7.478  28.710  0.00  0.00    -0.534 OA
ENDBRANCH  18  19
ENDBRANCH  17  18
ENDBRANCH  16  17
ENDBRANCH  15  16
ENDBRANCH  13  15
ENDBRANCH  12  13
ENDBRANCH   4  12
TORSDOF 8
ENDMDL
MODEL 5
REMARK VINA RESULT:      -5.7      4.423      7.910
REMARK  Name = 
REMARK  9 active torsions:
REMARK  status: ('A' for Active; 'I' for Inactive)
REMARK    1  A    between atoms: C_1  and  C_2
REMARK    2  A    between atoms: N_4  and  C_5
REMARK    3  A    between atoms: C_8  and  O_9
REMARK    4  A    between atoms: O_9  and  C_10
REMARK    5  A    between atoms: C_10  and  C_12
REMARK    6  A    between atoms: C_12  and  C_13
REMARK    7  A    between atoms: C_13  and  C_14
REMARK    8  A    between atoms: C_14  and  O_15
REMARK    9  A    between atoms: O_15  and  N_16
REMARK                            x       y       z     vdW  Elec       q    Type
REMARK                         _______ _______ _______ _____ _____    ______ ____
ROOT
ATOM      1  C   UNL     1       4.813  -5.507  22.907  0.00  0.00    +0.034 A 
ATOM      2  C   UNL     1       6.054  -5.998  22.481  0.00  0.00    +0.027 A 
ATOM      3  C   UNL     1       7.125  -5.130  22.236  0.00  0.00    +0.048 A 
ATOM      4  C   UNL     1       6.966  -3.763  22.447  0.00  0.00    +0.132 A 
ATOM      5  C   UNL     1       5.745  -3.262  22.892  0.00  0.00    +0.048 A 
ATOM      6  C   UNL     1       4.675  -4.133  23.125  0.00  0.00    +0.027 A 
ENDROOT
BRANCH   1   9
ATOM      7  C   UNL     1       2.213  -8.004  24.021  0.00  0.00    +0.109 C 
ATOM      8  C   UNL     1       3.472  -7.189  24.184  0.00  0.00    +0.214 C 
ATOM      9  N   UNL     1       3.761  -6.433  23.059  0.00  0.00    -0.286 N 
ATOM     10  H   UNL     1       3.119  -6.514  22.279  0.00  0.00    +0.155 HD
ATOM     11  O   UNL     1       4.106  -7.226  25.230  0.00  0.00    -0.276 OA
ENDBRANCH   1   9
BRANCH   4  12
ATOM     12  O   UNL     1       7.956  -2.800  22.159  0.00  0.00    -0.426 OA
BRANCH  12  13
ATOM     13  C   UNL     1       8.473  -1.961  23.142  0.00  0.00    +0.312 C 
ATOM     14  O   UNL     1       8.404  -0.740  23.180  0.00  0.00    -0.250 OA
BRANCH  13  15
ATOM     15  C   UNL     1       9.241  -2.772  24.155  0.00  0.00    +0.124 C 
BRANCH  15  16
ATOM     16  C   UNL     1       8.805  -2.453  25.579  0.00  0.00    +0.059 C 
BRANCH  16  17
ATOM     17  C   UNL     1       7.638  -3.312  26.072  0.00  0.00    +0.321 C 
BRANCH  17  18
ATOM     18  O   UNL     1       8.165  -4.242  27.016  0.00  0.00    -0.217 OA
BRANCH  18  19
ATOM     19  N   UNL     1       7.448  -5.462  27.037  0.00  0.00    +0.284 N 
ATOM     20  O   UNL     1       7.116  -5.836  25.914  0.00  0.00    +0.093 OA
ATOM     21  O   UNL     1       7.244  -5.980  28.135  0.00  0.00    -0.534 OA
ENDBRANCH  18  19
ENDBRANCH  17  18
ENDBRANCH  16  17
ENDBRANCH  15  16
ENDBRANCH  13  15
ENDBRANCH  12  13
ENDBRANCH   4  12
TORSDOF 8
ENDMDL
MODEL 6
REMARK VINA RESULT:      -5.6      2.790      3.580
REMARK  Name = 
REMARK  9 active torsions:
REMARK  status: ('A' for Active; 'I' for Inactive)
REMARK    1  A    between atoms: C_1  and  C_2
REMARK    2  A    between atoms: N_4  and  C_5
REMARK    3  A    between atoms: C_8  and  O_9
REMARK    4  A    between atoms: O_9  and  C_10
REMARK    5  A    between atoms: C_10  and  C_12
REMARK    6  A    between atoms: C_12  and  C_13
REMARK    7  A    between atoms: C_13  and  C_14
REMARK    8  A    between atoms: C_14  and  O_15
REMARK    9  A    between atoms: O_15  and  N_16
REMARK                            x       y       z     vdW  Elec       q    Type
REMARK                         _______ _______ _______ _____ _____    ______ ____
ROOT
ATOM      1  C   UNL     1      10.287   2.331  23.023  0.00  0.00    +0.034 A 
ATOM      2  C   UNL     1      10.788   1.551  24.075  0.00  0.00    +0.027 A 
ATOM      3  C   UNL     1      10.711   0.154  24.033  0.00  0.00    +0.048 A 
ATOM      4  C   UNL     1      10.156  -0.473  22.920  0.00  0.00    +0.132 A 
ATOM      5  C   UNL     1       9.675   0.288  21.858  0.00  0.00    +0.048 A 
ATOM      6  C   UNL     1       9.745   1.684  21.909  0.00  0.00    +0.027 A 
ENDROOT
BRANCH   1   9
ATOM      7  C   UNL     1       9.917   5.967  23.958  0.00  0.00    +0.109 C 
ATOM      8  C   UNL     1       9.520   4.513  23.978  0.00  0.00    +0.214 C 
ATOM      9  N   UNL     1      10.332   3.733  23.171  0.00  0.00    -0.286 N 
ATOM     10  H   UNL     1      11.071   4.212  22.670  0.00  0.00    +0.155 HD
ATOM     11  O   UNL     1       8.586   4.132  24.672  0.00  0.00    -0.276 OA
ENDBRANCH   1   9
BRANCH   4  12
ATOM     12  O   UNL     1       9.964  -1.866  22.814  0.00  0.00    -0.426 OA
BRANCH  12  13
ATOM     13  C   UNL     1       9.599  -2.644  23.909  0.00  0.00    +0.312 C 
ATOM     14  O   UNL     1      10.128  -3.680  24.287  0.00  0.00    -0.250 OA
BRANCH  13  15
ATOM     15  C   UNL     1       8.358  -2.075  24.549  0.00  0.00    +0.124 C 
BRANCH  15  16
ATOM     16  C   UNL     1       7.133  -2.254  23.661  0.00  0.00    +0.059 C 
BRANCH  16  17
ATOM     17  C   UNL     1       5.855  -1.649  24.246  0.00  0.00    +0.321 C 
BRANCH  17  18
ATOM     18  O   UNL     1       6.249  -0.627  25.160  0.00  0.00    -0.217 OA
BRANCH  18  19
ATOM     19  N   UNL     1       6.027   0.675  24.651  0.00  0.00    +0.284 N 
ATOM     20  O   UNL     1       4.879   1.069  24.844  0.00  0.00    +0.093 OA
ATOM     21  O   UNL     1       6.971   1.232  24.090  0.00  0.00    -0.534 OA
ENDBRANCH  18  19
ENDBRANCH  17  18
ENDBRANCH  16  17
ENDBRANCH  15  16
ENDBRANCH  13  15
ENDBRANCH  12  13
ENDBRANCH   4  12
TORSDOF 8
ENDMDL
MODEL 7
REMARK VINA RESULT:      -5.6      2.653      3.429
REMARK  Name = 
REMARK  9 active torsions:
REMARK  status: ('A' for Active; 'I' for Inactive)
REMARK    1  A    between atoms: C_1  and  C_2
REMARK    2  A    between atoms: N_4  and  C_5
REMARK    3  A    between atoms: C_8  and  O_9
REMARK    4  A    between atoms: O_9  and  C_10
REMARK    5  A    between atoms: C_10  and  C_12
REMARK    6  A    between atoms: C_12  and  C_13
REMARK    7  A    between atoms: C_13  and  C_14
REMARK    8  A    between atoms: C_14  and  O_15
REMARK    9  A    between atoms: O_15  and  N_16
REMARK                            x       y       z     vdW  Elec       q    Type
REMARK                         _______ _______ _______ _____ _____    ______ ____
ROOT
ATOM      1  C   UNL     1      10.374   2.334  23.107  0.00  0.00    +0.034 A 
ATOM      2  C   UNL     1      10.726   1.401  24.091  0.00  0.00    +0.027 A 
ATOM      3  C   UNL     1      10.559   0.028  23.873  0.00  0.00    +0.048 A 
ATOM      4  C   UNL     1      10.063  -0.420  22.651  0.00  0.00    +0.132 A 
ATOM      5  C   UNL     1       9.729   0.494  21.655  0.00  0.00    +0.048 A 
ATOM      6  C   UNL     1       9.889   1.865  21.882  0.00  0.00    +0.027 A 
ENDROOT
BRANCH   1   9
ATOM      7  C   UNL     1      10.019   5.924  24.212  0.00  0.00    +0.109 C 
ATOM      8  C   UNL     1       9.499   4.549  23.876  0.00  0.00    +0.214 C 
ATOM      9  N   UNL     1      10.500   3.701  23.427  0.00  0.00    -0.286 N 
ATOM     10  H   UNL     1      11.434   4.090  23.372  0.00  0.00    +0.155 HD
ATOM     11  O   UNL     1       8.316   4.276  24.028  0.00  0.00    -0.276 OA
ENDBRANCH   1   9
BRANCH   4  12
ATOM     12  O   UNL     1       9.787  -1.772  22.360  0.00  0.00    -0.426 OA
BRANCH  12  13
ATOM     13  C   UNL     1       9.237  -2.631  23.308  0.00  0.00    +0.312 C 
ATOM     14  O   UNL     1       9.835  -3.250  24.177  0.00  0.00    -0.250 OA
BRANCH  13  15
ATOM     15  C   UNL     1       7.757  -2.782  23.063  0.00  0.00    +0.124 C 
BRANCH  15  16
ATOM     16  C   UNL     1       6.976  -1.578  23.576  0.00  0.00    +0.059 C 
BRANCH  16  17
ATOM     17  C   UNL     1       6.178  -1.860  24.851  0.00  0.00    +0.321 C 
BRANCH  17  18
ATOM     18  O   UNL     1       6.799  -1.134  25.910  0.00  0.00    -0.217 OA
BRANCH  18  19
ATOM     19  N   UNL     1       7.824  -1.871  26.548  0.00  0.00    +0.284 N 
ATOM     20  O   UNL     1       8.808  -1.182  26.813  0.00  0.00    +0.093 OA
ATOM     21  O   UNL     1       7.620  -3.068  26.748  0.00  0.00    -0.534 OA
ENDBRANCH  18  19
ENDBRANCH  17  18
ENDBRANCH  16  17
ENDBRANCH  15  16
ENDBRANCH  13  15
ENDBRANCH  12  13
ENDBRANCH   4  12
TORSDOF 8
ENDMDL
MODEL 8
REMARK VINA RESULT:      -5.5      2.645      3.960
REMARK  Name = 
REMARK  9 active torsions:
REMARK  status: ('A' for Active; 'I' for Inactive)
REMARK    1  A    between atoms: C_1  and  C_2
REMARK    2  A    between atoms: N_4  and  C_5
REMARK    3  A    between atoms: C_8  and  O_9
REMARK    4  A    between atoms: O_9  and  C_10
REMARK    5  A    between atoms: C_10  and  C_12
REMARK    6  A    between atoms: C_12  and  C_13
REMARK    7  A    between atoms: C_13  and  C_14
REMARK    8  A    between atoms: C_14  and  O_15
REMARK    9  A    between atoms: O_15  and  N_16
REMARK                            x       y       z     vdW  Elec       q    Type
REMARK                         _______ _______ _______ _____ _____    ______ ____
ROOT
ATOM      1  C   UNL     1       9.266  -1.082  24.556  0.00  0.00    +0.034 A 
ATOM      2  C   UNL     1       8.617  -1.204  25.792  0.00  0.00    +0.027 A 
ATOM      3  C   UNL     1       8.370  -2.463  26.353  0.00  0.00    +0.048 A 
ATOM      4  C   UNL     1       8.801  -3.610  25.691  0.00  0.00    +0.132 A 
ATOM      5  C   UNL     1       9.468  -3.503  24.472  0.00  0.00    +0.048 A 
ATOM      6  C   UNL     1       9.702  -2.243  23.911  0.00  0.00    +0.027 A 
ENDROOT
BRANCH   1   9
ATOM      7  C   UNL     1      10.361   2.311  23.322  0.00  0.00    +0.109 C 
ATOM      8  C   UNL     1      10.531   1.026  24.094  0.00  0.00    +0.214 C 
ATOM      9  N   UNL     1       9.411   0.214  24.020  0.00  0.00    -0.286 N 
ATOM     10  H   UNL     1       8.630   0.564  23.479  0.00  0.00    +0.155 HD
ATOM     11  O   UNL     1      11.578   0.786  24.680  0.00  0.00    -0.276 OA
ENDBRANCH   1   9
BRANCH   4  12
ATOM     12  O   UNL     1       8.537  -4.922  26.132  0.00  0.00    -0.426 OA
BRANCH  12  13
ATOM     13  C   UNL     1       7.353  -5.255  26.785  0.00  0.00    +0.312 C 
ATOM     14  O   UNL     1       7.171  -5.326  27.992  0.00  0.00    -0.250 OA
BRANCH  13  15
ATOM     15  C   UNL     1       6.296  -5.619  25.772  0.00  0.00    +0.124 C 
BRANCH  15  16
ATOM     16  C   UNL     1       5.343  -4.460  25.510  0.00  0.00    +0.059 C 
BRANCH  16  17
ATOM     17  C   UNL     1       5.043  -4.233  24.027  0.00  0.00    +0.321 C 
BRANCH  17  18
ATOM     18  O   UNL     1       6.260  -3.824  23.406  0.00  0.00    -0.217 OA
BRANCH  18  19
ATOM     19  N   UNL     1       6.394  -4.323  22.088  0.00  0.00    +0.284 N 
ATOM     20  O   UNL     1       7.265  -5.186  21.996  0.00  0.00    +0.093 OA
ATOM     21  O   UNL     1       5.659  -3.845  21.224  0.00  0.00    -0.534 OA
ENDBRANCH  18  19
ENDBRANCH  17  18
ENDBRANCH  16  17
ENDBRANCH  15  16
ENDBRANCH  13  15
ENDBRANCH  12  13
ENDBRANCH   4  12
TORSDOF 8
ENDMDL
MODEL 9
REMARK VINA RESULT:      -5.5      1.989      2.642
REMARK  Name = 
REMARK  9 active torsions:
REMARK  status: ('A' for Active; 'I' for Inactive)
REMARK    1  A    between atoms: C_1  and  C_2
REMARK    2  A    between atoms: N_4  and  C_5
REMARK    3  A    between atoms: C_8  and  O_9
REMARK    4  A    between atoms: O_9  and  C_10
REMARK    5  A    between atoms: C_10  and  C_12
REMARK    6  A    between atoms: C_12  and  C_13
REMARK    7  A    between atoms: C_13  and  C_14
REMARK    8  A    between atoms: C_14  and  O_15
REMARK    9  A    between atoms: O_15  and  N_16
REMARK                            x       y       z     vdW  Elec       q    Type
REMARK                         _______ _______ _______ _____ _____    ______ ____
ROOT
ATOM      1  C   UNL     1      10.274   0.298  24.074  0.00  0.00    +0.034 A 
ATOM      2  C   UNL     1      10.343  -0.642  23.037  0.00  0.00    +0.027 A 
ATOM      3  C   UNL     1       9.744  -1.902  23.168  0.00  0.00    +0.048 A 
ATOM      4  C   UNL     1       9.046  -2.215  24.331  0.00  0.00    +0.132 A 
ATOM      5  C   UNL     1       8.950  -1.282  25.360  0.00  0.00    +0.048 A 
ATOM      6  C   UNL     1       9.558  -0.030  25.228  0.00  0.00    +0.027 A 
ENDROOT
BRANCH   1   9
ATOM      7  C   UNL     1      11.455   3.826  23.446  0.00  0.00    +0.109 C 
ATOM      8  C   UNL     1      10.451   2.702  23.402  0.00  0.00    +0.214 C 
ATOM      9  N   UNL     1      10.965   1.515  23.899  0.00  0.00    -0.286 N 
ATOM     10  H   UNL     1      11.926   1.534  24.219  0.00  0.00    +0.155 HD
ATOM     11  O   UNL     1       9.319   2.895  22.979  0.00  0.00    -0.276 OA
ENDBRANCH   1   9
BRANCH   4  12
ATOM     12  O   UNL     1       8.474  -3.477  24.591  0.00  0.00    -0.426 OA
BRANCH  12  13
ATOM     13  C   UNL     1       9.169  -4.474  25.270  0.00  0.00    +0.312 C 
ATOM     14  O   UNL     1      10.259  -4.946  24.974  0.00  0.00    -0.250 OA
BRANCH  13  15
ATOM     15  C   UNL     1       8.337  -4.987  26.418  0.00  0.00    +0.124 C 
BRANCH  15  16
ATOM     16  C   UNL     1       6.876  -4.573  26.283  0.00  0.00    +0.059 C 
BRANCH  16  17
ATOM     17  C   UNL     1       6.033  -5.550  25.461  0.00  0.00    +0.321 C 
BRANCH  17  18
ATOM     18  O   UNL     1       5.403  -4.800  24.425  0.00  0.00    -0.217 OA
BRANCH  18  19
ATOM     19  N   UNL     1       5.530  -5.410  23.155  0.00  0.00    +0.284 N 
ATOM     20  O   UNL     1       6.682  -5.764  22.913  0.00  0.00    +0.093 OA
ATOM     21  O   UNL     1       4.513  -5.503  22.467  0.00  0.00    -0.534 OA
ENDBRANCH  18  19
ENDBRANCH  17  18
ENDBRANCH  16  17
ENDBRANCH  15  16
ENDBRANCH  13  15
ENDBRANCH  12  13
ENDBRANCH   4  12
TORSDOF 8
ENDMDL
