MODEL 1
REMARK VINA RESULT:      -7.8      0.000      0.000
REMARK  Name = 
REMARK  4 active torsions:
REMARK  status: ('A' for Active; 'I' for Inactive)
REMARK    1  A    between atoms: C_1  and  O_2
REMARK    2  A    between atoms: O_2  and  C_3
REMARK    3  A    between atoms: C_12  and  C_15
REMARK    4  A    between atoms: C_15  and  C_17
REMARK                            x       y       z     vdW  Elec       q    Type
REMARK                         _______ _______ _______ _____ _____    ______ ____
ROOT
ATOM      1  C   UNL     1       2.249  -6.624  23.014  0.00  0.00    +0.406 C 
ATOM      2  N   UNL     1       3.584  -6.859  23.227  0.00  0.00    -0.221 N 
ATOM      3  H   UNL     1       3.834  -7.768  23.580  0.00  0.00    +0.161 HD
ATOM      4  C   UNL     1       4.508  -5.862  23.065  0.00  0.00    +0.203 A 
ATOM      5  N   UNL     1       5.837  -6.035  23.377  0.00  0.00    -0.326 N 
ATOM      6  H   UNL     1       6.264  -6.884  23.711  0.00  0.00    +0.169 HD
ATOM      7  C   UNL     1       6.471  -4.821  23.226  0.00  0.00    +0.068 A 
ATOM      8  C   UNL     1       7.776  -4.382  23.473  0.00  0.00    +0.039 A 
ATOM      9  C   UNL     1       8.035  -3.020  23.233  0.00  0.00    +0.024 A 
ATOM     10  C   UNL     1       7.058  -2.175  22.687  0.00  0.00    +0.014 A 
ATOM     11  C   UNL     1       5.766  -2.647  22.445  0.00  0.00    +0.030 A 
ATOM     12  C   UNL     1       5.475  -3.983  22.740  0.00  0.00    +0.091 A 
ATOM     13  N   UNL     1       4.290  -4.643  22.639  0.00  0.00    -0.214 NA
ATOM     14  O   UNL     1       1.706  -5.601  22.625  0.00  0.00    -0.226 OA
ENDROOT
BRANCH   1  16
ATOM     15  C   UNL     1       1.052  -8.446  22.197  0.00  0.00    +0.282 C 
ATOM     16  O   UNL     1       1.554  -7.752  23.342  0.00  0.00    -0.453 OA
ENDBRANCH   1  16
BRANCH   9  17
ATOM     17  C   UNL     1       9.384  -2.491  23.574  0.00  0.00    +0.193 C 
ATOM     18  O   UNL     1      10.238  -3.266  23.994  0.00  0.00    -0.287 OA
BRANCH  17  19
ATOM     19  C   UNL     1       9.704  -1.040  23.441  0.00  0.00    +0.022 A 
ATOM     20  C   UNL     1       9.796  -0.411  22.191  0.00  0.00    +0.012 A 
ATOM     21  C   UNL     1      10.081   0.954  22.110  0.00  0.00    +0.001 A 
ATOM     22  C   UNL     1      10.252   1.700  23.275  0.00  0.00    +0.000 A 
ATOM     23  C   UNL     1      10.143   1.084  24.521  0.00  0.00    +0.001 A 
ATOM     24  C   UNL     1       9.868  -0.283  24.605  0.00  0.00    +0.012 A 
ENDBRANCH  17  19
ENDBRANCH   9  17
TORSDOF 3
ENDMDL
MODEL 2
REMARK VINA RESULT:      -7.5      4.406      5.996
REMARK  Name = 
REMARK  4 active torsions:
REMARK  status: ('A' for Active; 'I' for Inactive)
REMARK    1  A    between atoms: C_1  and  O_2
REMARK    2  A    between atoms: O_2  and  C_3
REMARK    3  A    between atoms: C_12  and  C_15
REMARK    4  A    between atoms: C_15  and  C_17
REMARK                            x       y       z     vdW  Elec       q    Type
REMARK                         _______ _______ _______ _____ _____    ______ ____
ROOT
ATOM      1  C   UNL     1       8.787  -4.779  25.403  0.00  0.00    +0.406 C 
ATOM      2  N   UNL     1       8.670  -3.535  25.969  0.00  0.00    -0.221 N 
ATOM      3  H   UNL     1       8.274  -3.492  26.893  0.00  0.00    +0.161 HD
ATOM      4  C   UNL     1       8.979  -2.408  25.257  0.00  0.00    +0.203 A 
ATOM      5  N   UNL     1       8.768  -1.142  25.755  0.00  0.00    -0.326 N 
ATOM      6  H   UNL     1       8.410  -0.915  26.669  0.00  0.00    +0.169 HD
ATOM      7  C   UNL     1       9.058  -0.238  24.758  0.00  0.00    +0.068 A 
ATOM      8  C   UNL     1       8.952   1.155  24.664  0.00  0.00    +0.039 A 
ATOM      9  C   UNL     1       9.311   1.728  23.429  0.00  0.00    +0.024 A 
ATOM     10  C   UNL     1       9.833   0.950  22.386  0.00  0.00    +0.014 A 
ATOM     11  C   UNL     1       9.932  -0.437  22.516  0.00  0.00    +0.030 A 
ATOM     12  C   UNL     1       9.519  -1.030  23.713  0.00  0.00    +0.091 A 
ATOM     13  N   UNL     1       9.473  -2.348  24.045  0.00  0.00    -0.214 NA
ATOM     14  O   UNL     1       9.203  -5.079  24.295  0.00  0.00    -0.226 OA
ENDROOT
BRANCH   1  16
ATOM     15  C   UNL     1       7.211  -5.229  27.057  0.00  0.00    +0.282 C 
ATOM     16  O   UNL     1       8.322  -5.704  26.293  0.00  0.00    -0.453 OA
ENDBRANCH   1  16
BRANCH   9  17
ATOM     17  C   UNL     1       9.123   3.194  23.255  0.00  0.00    +0.193 C 
ATOM     18  O   UNL     1       8.046   3.609  22.837  0.00  0.00    -0.287 OA
BRANCH  17  19
ATOM     19  C   UNL     1      10.222   4.157  23.550  0.00  0.00    +0.022 A 
ATOM     20  C   UNL     1      11.550   3.906  23.176  0.00  0.00    +0.012 A 
ATOM     21  C   UNL     1      12.548   4.843  23.455  0.00  0.00    +0.001 A 
ATOM     22  C   UNL     1      12.221   6.042  24.087  0.00  0.00    +0.000 A 
ATOM     23  C   UNL     1      10.899   6.306  24.443  0.00  0.00    +0.001 A 
ATOM     24  C   UNL     1       9.901   5.367  24.175  0.00  0.00    +0.012 A 
ENDBRANCH  17  19
ENDBRANCH   9  17
TORSDOF 3
ENDMDL
MODEL 3
REMARK VINA RESULT:      -7.5      4.021      4.622
REMARK  Name = 
REMARK  4 active torsions:
REMARK  status: ('A' for Active; 'I' for Inactive)
REMARK    1  A    between atoms: C_1  and  O_2
REMARK    2  A    between atoms: O_2  and  C_3
REMARK    3  A    between atoms: C_12  and  C_15
REMARK    4  A    between atoms: C_15  and  C_17
REMARK                            x       y       z     vdW  Elec       q    Type
REMARK                         _______ _______ _______ _____ _____    ______ ____
ROOT
ATOM      1  C   UNL     1       5.780  -6.688  29.370  0.00  0.00    +0.406 C 
ATOM      2  N   UNL     1       5.539  -5.493  28.740  0.00  0.00    -0.221 N 
ATOM      3  H   UNL     1       4.657  -5.048  28.933  0.00  0.00    +0.161 HD
ATOM      4  C   UNL     1       6.418  -4.996  27.816  0.00  0.00    +0.203 A 
ATOM      5  N   UNL     1       6.154  -3.859  27.087  0.00  0.00    -0.326 N 
ATOM      6  H   UNL     1       5.337  -3.275  27.172  0.00  0.00    +0.169 HD
ATOM      7  C   UNL     1       7.164  -3.700  26.164  0.00  0.00    +0.068 A 
ATOM      8  C   UNL     1       7.380  -2.788  25.125  0.00  0.00    +0.039 A 
ATOM      9  C   UNL     1       8.538  -2.987  24.349  0.00  0.00    +0.024 A 
ATOM     10  C   UNL     1       9.467  -3.988  24.664  0.00  0.00    +0.014 A 
ATOM     11  C   UNL     1       9.223  -4.878  25.714  0.00  0.00    +0.030 A 
ATOM     12  C   UNL     1       8.045  -4.735  26.454  0.00  0.00    +0.091 A 
ATOM     13  N   UNL     1       7.575  -5.504  27.472  0.00  0.00    -0.214 NA
ATOM     14  O   UNL     1       6.752  -7.421  29.272  0.00  0.00    -0.226 OA
ENDROOT
BRANCH   1  16
ATOM     15  C   UNL     1       3.475  -7.012  29.427  0.00  0.00    +0.282 C 
ATOM     16  O   UNL     1       4.704  -6.986  30.156  0.00  0.00    -0.453 OA
ENDBRANCH   1  16
BRANCH   9  17
ATOM     17  C   UNL     1       8.757  -2.098  23.176  0.00  0.00    +0.193 C 
ATOM     18  O   UNL     1       8.429  -2.494  22.061  0.00  0.00    -0.287 OA
BRANCH  17  19
ATOM     19  C   UNL     1       9.389  -0.756  23.326  0.00  0.00    +0.022 A 
ATOM     20  C   UNL     1      10.014  -0.358  24.517  0.00  0.00    +0.012 A 
ATOM     21  C   UNL     1      10.610   0.901  24.611  0.00  0.00    +0.001 A 
ATOM     22  C   UNL     1      10.605   1.758  23.512  0.00  0.00    +0.000 A 
ATOM     23  C   UNL     1      10.002   1.362  22.319  0.00  0.00    +0.001 A 
ATOM     24  C   UNL     1       9.396   0.106  22.224  0.00  0.00    +0.012 A 
ENDBRANCH  17  19
ENDBRANCH   9  17
TORSDOF 3
ENDMDL
MODEL 4
REMARK VINA RESULT:      -7.5      3.252      4.109
REMARK  Name = 
REMARK  4 active torsions:
REMARK  status: ('A' for Active; 'I' for Inactive)
REMARK    1  A    between atoms: C_1  and  O_2
REMARK    2  A    between atoms: O_2  and  C_3
REMARK    3  A    between atoms: C_12  and  C_15
REMARK    4  A    between atoms: C_15  and  C_17
REMARK                            x       y       z     vdW  Elec       q    Type
REMARK                         _______ _______ _______ _____ _____    ______ ____
ROOT
ATOM      1  C   UNL     1       5.989  -6.692  27.830  0.00  0.00    +0.406 C 
ATOM      2  N   UNL     1       7.242  -6.160  27.658  0.00  0.00    -0.221 N 
ATOM      3  H   UNL     1       7.887  -6.261  28.424  0.00  0.00    +0.161 HD
ATOM      4  C   UNL     1       7.549  -5.434  26.539  0.00  0.00    +0.203 A 
ATOM      5  N   UNL     1       8.759  -4.795  26.387  0.00  0.00    -0.326 N 
ATOM      6  H   UNL     1       9.528  -4.815  27.037  0.00  0.00    +0.169 HD
ATOM      7  C   UNL     1       8.706  -4.056  25.225  0.00  0.00    +0.068 A 
ATOM      8  C   UNL     1       9.593  -3.161  24.616  0.00  0.00    +0.039 A 
ATOM      9  C   UNL     1       9.149  -2.552  23.427  0.00  0.00    +0.024 A 
ATOM     10  C   UNL     1       7.923  -2.899  22.841  0.00  0.00    +0.014 A 
ATOM     11  C   UNL     1       7.065  -3.803  23.472  0.00  0.00    +0.030 A 
ATOM     12  C   UNL     1       7.463  -4.367  24.688  0.00  0.00    +0.091 A 
ATOM     13  N   UNL     1       6.781  -5.219  25.500  0.00  0.00    -0.214 NA
ATOM     14  O   UNL     1       5.037  -6.668  27.066  0.00  0.00    -0.226 OA
ENDROOT
BRANCH   1  16
ATOM     15  C   UNL     1       5.988  -6.319  30.129  0.00  0.00    +0.282 C 
ATOM     16  O   UNL     1       5.932  -7.272  29.064  0.00  0.00    -0.453 OA
ENDBRANCH   1  16
BRANCH   9  17
ATOM     17  C   UNL     1      10.020  -1.522  22.798  0.00  0.00    +0.193 C 
ATOM     18  O   UNL     1      10.994  -1.886  22.146  0.00  0.00    -0.287 OA
BRANCH  17  19
ATOM     19  C   UNL     1       9.748  -0.066  22.970  0.00  0.00    +0.022 A 
ATOM     20  C   UNL     1      10.050   0.610  24.161  0.00  0.00    +0.012 A 
ATOM     21  C   UNL     1       9.796   1.979  24.275  0.00  0.00    +0.001 A 
ATOM     22  C   UNL     1       9.263   2.681  23.195  0.00  0.00    +0.000 A 
ATOM     23  C   UNL     1       8.979   2.018  22.002  0.00  0.00    +0.001 A 
ATOM     24  C   UNL     1       9.222   0.647  21.888  0.00  0.00    +0.012 A 
ENDBRANCH  17  19
ENDBRANCH   9  17
TORSDOF 3
ENDMDL
MODEL 5
REMARK VINA RESULT:      -7.4      3.632      5.944
REMARK  Name = 
REMARK  4 active torsions:
REMARK  status: ('A' for Active; 'I' for Inactive)
REMARK    1  A    between atoms: C_1  and  O_2
REMARK    2  A    between atoms: O_2  and  C_3
REMARK    3  A    between atoms: C_12  and  C_15
REMARK    4  A    between atoms: C_15  and  C_17
REMARK                            x       y       z     vdW  Elec       q    Type
REMARK                         _______ _______ _______ _____ _____    ______ ____
ROOT
ATOM      1  C   UNL     1       7.965  -4.241  23.415  0.00  0.00    +0.406 C 
ATOM      2  N   UNL     1       8.750  -3.416  24.180  0.00  0.00    -0.221 N 
ATOM      3  H   UNL     1       8.963  -3.728  25.113  0.00  0.00    +0.161 HD
ATOM      4  C   UNL     1       9.128  -2.183  23.721  0.00  0.00    +0.203 A 
ATOM      5  N   UNL     1       9.820  -1.287  24.505  0.00  0.00    -0.326 N 
ATOM      6  H   UNL     1      10.140  -1.445  25.447  0.00  0.00    +0.169 HD
ATOM      7  C   UNL     1       9.933  -0.107  23.804  0.00  0.00    +0.068 A 
ATOM      8  C   UNL     1      10.454   1.152  24.123  0.00  0.00    +0.039 A 
ATOM      9  C   UNL     1      10.340   2.145  23.132  0.00  0.00    +0.024 A 
ATOM     10  C   UNL     1       9.817   1.857  21.863  0.00  0.00    +0.014 A 
ATOM     11  C   UNL     1       9.311   0.587  21.576  0.00  0.00    +0.030 A 
ATOM     12  C   UNL     1       9.358  -0.394  22.573  0.00  0.00    +0.091 A 
ATOM     13  N   UNL     1       8.885  -1.669  22.541  0.00  0.00    -0.214 NA
ATOM     14  O   UNL     1       7.553  -4.067  22.279  0.00  0.00    -0.226 OA
ENDROOT
BRANCH   1  16
ATOM     15  C   UNL     1       6.770  -5.073  25.232  0.00  0.00    +0.282 C 
ATOM     16  O   UNL     1       7.662  -5.351  24.150  0.00  0.00    -0.453 OA
ENDBRANCH   1  16
BRANCH   9  17
ATOM     17  C   UNL     1      10.795   3.523  23.464  0.00  0.00    +0.193 C 
ATOM     18  O   UNL     1      11.988   3.796  23.363  0.00  0.00    -0.287 OA
BRANCH  17  19
ATOM     19  C   UNL     1       9.837   4.562  23.940  0.00  0.00    +0.022 A 
ATOM     20  C   UNL     1      10.075   5.932  23.755  0.00  0.00    +0.012 A 
ATOM     21  C   UNL     1       9.144   6.873  24.200  0.00  0.00    +0.001 A 
ATOM     22  C   UNL     1       7.963   6.451  24.809  0.00  0.00    +0.000 A 
ATOM     23  C   UNL     1       7.712   5.090  24.978  0.00  0.00    +0.001 A 
ATOM     24  C   UNL     1       8.646   4.146  24.543  0.00  0.00    +0.012 A 
ENDBRANCH  17  19
ENDBRANCH   9  17
TORSDOF 3
ENDMDL
MODEL 6
REMARK VINA RESULT:      -7.2      1.791      2.325
REMARK  Name = 
REMARK  4 active torsions:
REMARK  status: ('A' for Active; 'I' for Inactive)
REMARK    1  A    between atoms: C_1  and  O_2
REMARK    2  A    between atoms: O_2  and  C_3
REMARK    3  A    between atoms: C_12  and  C_15
REMARK    4  A    between atoms: C_15  and  C_17
REMARK                            x       y       z     vdW  Elec       q    Type
REMARK                         _______ _______ _______ _____ _____    ______ ____
ROOT
ATOM      1  C   UNL     1       4.297  -7.148  25.245  0.00  0.00    +0.406 C 
ATOM      2  N   UNL     1       4.689  -6.437  24.139  0.00  0.00    -0.221 N 
ATOM      3  H   UNL     1       4.313  -6.733  23.253  0.00  0.00    +0.161 HD
ATOM      4  C   UNL     1       5.628  -5.446  24.236  0.00  0.00    +0.203 A 
ATOM      5  N   UNL     1       6.123  -4.791  23.132  0.00  0.00    -0.326 N 
ATOM      6  H   UNL     1       5.838  -4.938  22.177  0.00  0.00    +0.169 HD
ATOM      7  C   UNL     1       7.133  -3.953  23.551  0.00  0.00    +0.068 A 
ATOM      8  C   UNL     1       8.030  -3.119  22.874  0.00  0.00    +0.039 A 
ATOM      9  C   UNL     1       8.973  -2.440  23.669  0.00  0.00    +0.024 A 
ATOM     10  C   UNL     1       8.949  -2.526  25.068  0.00  0.00    +0.014 A 
ATOM     11  C   UNL     1       8.034  -3.363  25.712  0.00  0.00    +0.030 A 
ATOM     12  C   UNL     1       7.132  -4.095  24.933  0.00  0.00    +0.091 A 
ATOM     13  N   UNL     1       6.198  -5.001  25.329  0.00  0.00    -0.214 NA
ATOM     14  O   UNL     1       4.638  -7.000  26.409  0.00  0.00    -0.226 OA
ENDROOT
BRANCH   1  16
ATOM     15  C   UNL     1       2.063  -7.743  24.967  0.00  0.00    +0.282 C 
ATOM     16  O   UNL     1       3.435  -8.128  24.846  0.00  0.00    -0.453 OA
ENDBRANCH   1  16
BRANCH   9  17
ATOM     17  C   UNL     1      10.007  -1.618  22.983  0.00  0.00    +0.193 C 
ATOM     18  O   UNL     1      10.969  -2.180  22.469  0.00  0.00    -0.287 OA
BRANCH  17  19
ATOM     19  C   UNL     1       9.908  -0.131  22.934  0.00  0.00    +0.022 A 
ATOM     20  C   UNL     1       9.246   0.536  21.893  0.00  0.00    +0.012 A 
ATOM     21  C   UNL     1       9.161   1.931  21.894  0.00  0.00    +0.001 A 
ATOM     22  C   UNL     1       9.714   2.662  22.944  0.00  0.00    +0.000 A 
ATOM     23  C   UNL     1      10.356   2.004  23.991  0.00  0.00    +0.001 A 
ATOM     24  C   UNL     1      10.453   0.610  23.989  0.00  0.00    +0.012 A 
ENDBRANCH  17  19
ENDBRANCH   9  17
TORSDOF 3
ENDMDL
MODEL 7
REMARK VINA RESULT:      -7.2      4.442      8.595
REMARK  Name = 
REMARK  4 active torsions:
REMARK  status: ('A' for Active; 'I' for Inactive)
REMARK    1  A    between atoms: C_1  and  O_2
REMARK    2  A    between atoms: O_2  and  C_3
REMARK    3  A    between atoms: C_12  and  C_15
REMARK    4  A    between atoms: C_15  and  C_17
REMARK                            x       y       z     vdW  Elec       q    Type
REMARK                         _______ _______ _______ _____ _____    ______ ____
ROOT
ATOM      1  C   UNL     1      10.024   3.709  23.989  0.00  0.00    +0.406 C 
ATOM      2  N   UNL     1      10.584   2.535  23.554  0.00  0.00    -0.221 N 
ATOM      3  H   UNL     1      11.291   2.606  22.841  0.00  0.00    +0.161 HD
ATOM      4  C   UNL     1      10.117   1.327  23.998  0.00  0.00    +0.203 A 
ATOM      5  N   UNL     1      10.582   0.131  23.498  0.00  0.00    -0.326 N 
ATOM      6  H   UNL     1      11.305   0.017  22.807  0.00  0.00    +0.169 HD
ATOM      7  C   UNL     1       9.830  -0.881  24.052  0.00  0.00    +0.068 A 
ATOM      8  C   UNL     1       9.795  -2.267  23.858  0.00  0.00    +0.039 A 
ATOM      9  C   UNL     1       8.828  -2.978  24.594  0.00  0.00    +0.024 A 
ATOM     10  C   UNL     1       8.011  -2.339  25.537  0.00  0.00    +0.014 A 
ATOM     11  C   UNL     1       8.076  -0.954  25.711  0.00  0.00    +0.030 A 
ATOM     12  C   UNL     1       8.987  -0.224  24.940  0.00  0.00    +0.091 A 
ATOM     13  N   UNL     1       9.189   1.120  24.898  0.00  0.00    -0.214 NA
ATOM     14  O   UNL     1       9.137   3.874  24.813  0.00  0.00    -0.226 OA
ENDROOT
BRANCH   1  16
ATOM     15  C   UNL     1      12.037   4.673  23.327  0.00  0.00    +0.282 C 
ATOM     16  O   UNL     1      10.609   4.743  23.316  0.00  0.00    -0.453 OA
ENDBRANCH   1  16
BRANCH   9  17
ATOM     17  C   UNL     1       8.693  -4.439  24.347  0.00  0.00    +0.193 C 
ATOM     18  O   UNL     1       9.614  -5.184  24.669  0.00  0.00    -0.287 OA
BRANCH  17  19
ATOM     19  C   UNL     1       7.479  -5.006  23.694  0.00  0.00    +0.022 A 
ATOM     20  C   UNL     1       6.340  -5.369  24.429  0.00  0.00    +0.012 A 
ATOM     21  C   UNL     1       5.216  -5.880  23.777  0.00  0.00    +0.001 A 
ATOM     22  C   UNL     1       5.215  -6.010  22.389  0.00  0.00    +0.000 A 
ATOM     23  C   UNL     1       6.336  -5.633  21.650  0.00  0.00    +0.001 A 
ATOM     24  C   UNL     1       7.466  -5.131  22.300  0.00  0.00    +0.012 A 
ENDBRANCH  17  19
ENDBRANCH   9  17
TORSDOF 3
ENDMDL
MODEL 8
REMARK VINA RESULT:      -7.1      3.241      8.235
REMARK  Name = 
REMARK  4 active torsions:
REMARK  status: ('A' for Active; 'I' for Inactive)
REMARK    1  A    between atoms: C_1  and  O_2
REMARK    2  A    between atoms: O_2  and  C_3
REMARK    3  A    between atoms: C_12  and  C_15
REMARK    4  A    between atoms: C_15  and  C_17
REMARK                            x       y       z     vdW  Elec       q    Type
REMARK                         _______ _______ _______ _____ _____    ______ ____
ROOT
ATOM      1  C   UNL     1      10.674   1.169  23.962  0.00  0.00    +0.406 C 
ATOM      2  N   UNL     1       9.878   0.575  23.016  0.00  0.00    -0.221 N 
ATOM      3  H   UNL     1       9.545   1.162  22.270  0.00  0.00    +0.161 HD
ATOM      4  C   UNL     1       9.477  -0.726  23.152  0.00  0.00    +0.203 A 
ATOM      5  N   UNL     1       8.590  -1.318  22.281  0.00  0.00    -0.326 N 
ATOM      6  H   UNL     1       8.183  -0.889  21.466  0.00  0.00    +0.169 HD
ATOM      7  C   UNL     1       8.295  -2.574  22.761  0.00  0.00    +0.068 A 
ATOM      8  C   UNL     1       7.412  -3.578  22.346  0.00  0.00    +0.039 A 
ATOM      9  C   UNL     1       7.358  -4.734  23.146  0.00  0.00    +0.024 A 
ATOM     10  C   UNL     1       8.212  -4.904  24.245  0.00  0.00    +0.014 A 
ATOM     11  C   UNL     1       9.087  -3.885  24.628  0.00  0.00    +0.030 A 
ATOM     12  C   UNL     1       9.107  -2.702  23.881  0.00  0.00    +0.091 A 
ATOM     13  N   UNL     1       9.827  -1.568  24.093  0.00  0.00    -0.214 NA
ATOM     14  O   UNL     1      11.167   0.676  24.965  0.00  0.00    -0.226 OA
ENDROOT
BRANCH   1  16
ATOM     15  C   UNL     1       9.642   3.250  23.804  0.00  0.00    +0.282 C 
ATOM     16  O   UNL     1      10.836   2.482  23.628  0.00  0.00    -0.453 OA
ENDBRANCH   1  16
BRANCH   9  17
ATOM     17  C   UNL     1       6.364  -5.785  22.795  0.00  0.00    +0.193 C 
ATOM     18  O   UNL     1       6.641  -6.594  21.914  0.00  0.00    -0.287 OA
BRANCH  17  19
ATOM     19  C   UNL     1       5.037  -5.854  23.470  0.00  0.00    +0.022 A 
ATOM     20  C   UNL     1       4.695  -6.905  24.332  0.00  0.00    +0.012 A 
ATOM     21  C   UNL     1       3.447  -6.923  24.959  0.00  0.00    +0.001 A 
ATOM     22  C   UNL     1       2.546  -5.881  24.747  0.00  0.00    +0.000 A 
ATOM     23  C   UNL     1       2.887  -4.822  23.906  0.00  0.00    +0.001 A 
ATOM     24  C   UNL     1       4.130  -4.807  23.269  0.00  0.00    +0.012 A 
ENDBRANCH  17  19
ENDBRANCH   9  17
TORSDOF 3
ENDMDL
MODEL 9
REMARK VINA RESULT:      -7.1      4.605      8.985
REMARK  Name = 
REMARK  4 active torsions:
REMARK  status: ('A' for Active; 'I' for Inactive)
REMARK    1  A    between atoms: C_1  and  O_2
REMARK    2  A    between atoms: O_2  and  C_3
REMARK    3  A    between atoms: C_12  and  C_15
REMARK    4  A    between atoms: C_15  and  C_17
REMARK                            x       y       z     vdW  Elec       q    Type
REMARK                         _______ _______ _______ _____ _____    ______ ____
ROOT
ATOM      1  C   UNL     1      10.917   4.679  23.472  0.00  0.00    +0.406 C 
ATOM      2  N   UNL     1       9.686   4.074  23.518  0.00  0.00    -0.221 N 
ATOM      3  H   UNL     1       8.890   4.676  23.652  0.00  0.00    +0.161 HD
ATOM      4  C   UNL     1       9.571   2.711  23.490  0.00  0.00    +0.203 A 
ATOM      5  N   UNL     1       8.362   2.071  23.645  0.00  0.00    -0.326 N 
ATOM      6  H   UNL     1       7.465   2.516  23.758  0.00  0.00    +0.169 HD
ATOM      7  C   UNL     1       8.601   0.716  23.697  0.00  0.00    +0.068 A 
ATOM      8  C   UNL     1       7.780  -0.396  23.919  0.00  0.00    +0.039 A 
ATOM      9  C   UNL     1       8.419  -1.650  23.947  0.00  0.00    +0.024 A 
ATOM     10  C   UNL     1       9.788  -1.780  23.673  0.00  0.00    +0.014 A 
ATOM     11  C   UNL     1      10.577  -0.649  23.448  0.00  0.00    +0.030 A 
ATOM     12  C   UNL     1       9.970   0.610  23.482  0.00  0.00    +0.091 A 
ATOM     13  N   UNL     1      10.538   1.838  23.346  0.00  0.00    -0.214 NA
ATOM     14  O   UNL     1      12.017   4.163  23.351  0.00  0.00    -0.226 OA
ENDROOT
BRANCH   1  16
ATOM     15  C   UNL     1       9.374   6.422  23.503  0.00  0.00    +0.282 C 
ATOM     16  O   UNL     1      10.743   6.025  23.616  0.00  0.00    -0.453 OA
ENDBRANCH   1  16
BRANCH   9  17
ATOM     17  C   UNL     1       7.599  -2.848  24.275  0.00  0.00    +0.193 C 
ATOM     18  O   UNL     1       7.303  -3.063  25.446  0.00  0.00    -0.287 OA
BRANCH  17  19
ATOM     19  C   UNL     1       7.157  -3.799  23.215  0.00  0.00    +0.022 A 
ATOM     20  C   UNL     1       6.329  -3.400  22.156  0.00  0.00    +0.012 A 
ATOM     21  C   UNL     1       5.953  -4.318  21.173  0.00  0.00    +0.001 A 
ATOM     22  C   UNL     1       6.420  -5.630  21.230  0.00  0.00    +0.000 A 
ATOM     23  C   UNL     1       7.259  -6.029  22.270  0.00  0.00    +0.001 A 
ATOM     24  C   UNL     1       7.629  -5.116  23.261  0.00  0.00    +0.012 A 
ENDBRANCH  17  19
ENDBRANCH   9  17
TORSDOF 3
ENDMDL
