MODEL 1
REMARK VINA RESULT:      -8.0      0.000      0.000
REMARK  Name = 
REMARK  5 active torsions:
REMARK  status: ('A' for Active; 'I' for Inactive)
REMARK    1  A    between atoms: C_5  and  N_8
REMARK    2  A    between atoms: C_10  and  C_11
REMARK    3  A    between atoms: N_14  and  C_15
REMARK    4  A    between atoms: C_15  and  C_16
REMARK    5  A    between atoms: C_16  and  N_17
REMARK                            x       y       z     vdW  Elec       q    Type
REMARK                         _______ _______ _______ _____ _____    ______ ____
ROOT
ATOM      1  N   UNL     1       7.877   4.071  24.251  0.00  0.00    -0.316 N 
ATOM      2  C   UNL     1       9.172   4.531  23.989  0.00  0.00    +0.054 A 
ATOM      3  C   UNL     1       9.759   5.816  24.038  0.00  0.00    +0.028 A 
ATOM      4  C   UNL     1      11.114   5.963  23.716  0.00  0.00    +0.022 A 
ATOM      5  C   UNL     1      11.883   4.861  23.384  0.00  0.00    +0.042 A 
ATOM      6  C   UNL     1      11.327   3.585  23.379  0.00  0.00    +0.030 A 
ATOM      7 CL   UNL     1      13.550   5.056  22.999  0.00  0.00    -0.084 Cl
ATOM      8  C   UNL     1       9.958   3.412  23.695  0.00  0.00    +0.005 A 
ATOM      9  C   UNL     1       9.140   2.246  23.789  0.00  0.00    -0.019 A 
ATOM     10  C   UNL     1       7.887   2.688  24.160  0.00  0.00    +0.096 A 
ENDROOT
BRANCH   1  15
ATOM     11  F   UNL     1       3.272   6.960  25.461  0.00  0.00    -0.205 F 
ATOM     12  C   UNL     1       4.395   6.291  25.169  0.00  0.00    +0.124 A 
ATOM     13  C   UNL     1       5.275   5.950  26.188  0.00  0.00    +0.040 A 
ATOM     14  C   UNL     1       6.440   5.236  25.888  0.00  0.00    +0.029 A 
ATOM     15  C   UNL     1       6.715   4.847  24.569  0.00  0.00    +0.047 A 
ATOM     16  C   UNL     1       5.833   5.237  23.545  0.00  0.00    +0.029 A 
ATOM     17  C   UNL     1       4.669   5.951  23.851  0.00  0.00    +0.040 A 
ENDBRANCH   1  15
BRANCH   9  18
ATOM     18  C   UNL     1       9.627   0.842  23.504  0.00  0.00    +0.023 C 
ATOM     19  C   UNL     1       8.757   0.171  22.424  0.00  0.00    +0.023 C 
ATOM     20  C   UNL     1       7.561  -0.580  23.008  0.00  0.00    +0.085 C 
ATOM     21  N   UNL     1       7.937  -1.546  24.052  0.00  0.00    -0.301 NA
ATOM     22  C   UNL     1       8.583  -0.819  25.155  0.00  0.00    +0.085 C 
ATOM     23  C   UNL     1       9.833  -0.044  24.739  0.00  0.00    +0.023 C 
BRANCH  21  24
ATOM     24  C   UNL     1       8.754  -2.649  23.498  0.00  0.00    +0.103 C 
BRANCH  24  25
ATOM     25  C   UNL     1       8.055  -4.018  23.510  0.00  0.00    +0.124 C 
BRANCH  25  26
ATOM     26  N   UNL     1       7.963  -4.602  24.834  0.00  0.00    -0.283 N 
ATOM     27  C   UNL     1       9.027  -5.197  25.506  0.00  0.00    +0.302 C 
ATOM     28  O   UNL     1      10.186  -5.271  25.143  0.00  0.00    -0.253 OA
ATOM     29  N   UNL     1       8.530  -5.688  26.708  0.00  0.00    -0.298 N 
ATOM     30  H   UNL     1       9.183  -5.955  27.432  0.00  0.00    +0.150 HD
ATOM     31  C   UNL     1       7.189  -5.206  26.917  0.00  0.00    +0.124 C 
ATOM     32  C   UNL     1       6.716  -4.899  25.500  0.00  0.00    +0.128 C 
ENDBRANCH  25  26
ENDBRANCH  24  25
ENDBRANCH  21  24
ENDBRANCH   9  18
TORSDOF 5
ENDMDL
MODEL 2
REMARK VINA RESULT:      -7.6      3.034      4.559
REMARK  Name = 
REMARK  5 active torsions:
REMARK  status: ('A' for Active; 'I' for Inactive)
REMARK    1  A    between atoms: C_5  and  N_8
REMARK    2  A    between atoms: C_10  and  C_11
REMARK    3  A    between atoms: N_14  and  C_15
REMARK    4  A    between atoms: C_15  and  C_16
REMARK    5  A    between atoms: C_16  and  N_17
REMARK                            x       y       z     vdW  Elec       q    Type
REMARK                         _______ _______ _______ _____ _____    ______ ____
ROOT
ATOM      1  N   UNL     1       9.079   3.364  23.435  0.00  0.00    -0.316 N 
ATOM      2  C   UNL     1       7.730   3.586  23.138  0.00  0.00    +0.054 A 
ATOM      3  C   UNL     1       6.975   4.764  22.943  0.00  0.00    +0.028 A 
ATOM      4  C   UNL     1       5.610   4.662  22.648  0.00  0.00    +0.022 A 
ATOM      5  C   UNL     1       5.008   3.422  22.515  0.00  0.00    +0.042 A 
ATOM      6  C   UNL     1       5.752   2.256  22.658  0.00  0.00    +0.030 A 
ATOM      7 CL   UNL     1       3.330   3.313  22.143  0.00  0.00    -0.084 Cl
ATOM      8  C   UNL     1       7.133   2.333  22.963  0.00  0.00    +0.005 A 
ATOM      9  C   UNL     1       8.130   1.326  23.141  0.00  0.00    -0.019 A 
ATOM     10  C   UNL     1       9.307   1.997  23.396  0.00  0.00    +0.096 A 
ENDROOT
BRANCH   1  15
ATOM     11  F   UNL     1      12.999   7.108  24.712  0.00  0.00    -0.205 F 
ATOM     12  C   UNL     1      12.053   6.221  24.378  0.00  0.00    +0.124 A 
ATOM     13  C   UNL     1      12.396   5.098  23.636  0.00  0.00    +0.040 A 
ATOM     14  C   UNL     1      11.413   4.161  23.300  0.00  0.00    +0.029 A 
ATOM     15  C   UNL     1      10.088   4.339  23.725  0.00  0.00    +0.047 A 
ATOM     16  C   UNL     1       9.752   5.502  24.440  0.00  0.00    +0.029 A 
ATOM     17  C   UNL     1      10.739   6.436  24.772  0.00  0.00    +0.040 A 
ENDBRANCH   1  15
BRANCH   9  18
ATOM     18  C   UNL     1       7.857  -0.160  23.065  0.00  0.00    +0.023 C 
ATOM     19  C   UNL     1       7.737  -0.765  24.477  0.00  0.00    +0.023 C 
ATOM     20  C   UNL     1       9.077  -1.244  25.033  0.00  0.00    +0.085 C 
ATOM     21  N   UNL     1       9.786  -2.164  24.128  0.00  0.00    -0.301 NA
ATOM     22  C   UNL     1      10.057  -1.463  22.864  0.00  0.00    +0.085 C 
ATOM     23  C   UNL     1       8.802  -0.955  22.154  0.00  0.00    +0.023 C 
BRANCH  21  24
ATOM     24  C   UNL     1       9.047  -3.436  23.964  0.00  0.00    +0.103 C 
BRANCH  24  25
ATOM     25  C   UNL     1       8.861  -4.229  25.268  0.00  0.00    +0.124 C 
BRANCH  25  26
ATOM     26  N   UNL     1       7.549  -4.834  25.387  0.00  0.00    -0.283 N 
ATOM     27  C   UNL     1       7.086  -5.489  26.524  0.00  0.00    +0.302 C 
ATOM     28  O   UNL     1       7.652  -5.607  27.595  0.00  0.00    -0.253 OA
ATOM     29  N   UNL     1       5.819  -5.981  26.227  0.00  0.00    -0.298 N 
ATOM     30  H   UNL     1       5.228  -6.291  26.986  0.00  0.00    +0.150 HD
ATOM     31  C   UNL     1       5.369  -5.444  24.969  0.00  0.00    +0.124 C 
ATOM     32  C   UNL     1       6.673  -5.088  24.266  0.00  0.00    +0.128 C 
ENDBRANCH  25  26
ENDBRANCH  24  25
ENDBRANCH  21  24
ENDBRANCH   9  18
TORSDOF 5
ENDMDL
MODEL 3
REMARK VINA RESULT:      -7.5      3.339      4.926
REMARK  Name = 
REMARK  5 active torsions:
REMARK  status: ('A' for Active; 'I' for Inactive)
REMARK    1  A    between atoms: C_5  and  N_8
REMARK    2  A    between atoms: C_10  and  C_11
REMARK    3  A    between atoms: N_14  and  C_15
REMARK    4  A    between atoms: C_15  and  C_16
REMARK    5  A    between atoms: C_16  and  N_17
REMARK                            x       y       z     vdW  Elec       q    Type
REMARK                         _______ _______ _______ _____ _____    ______ ____
ROOT
ATOM      1  N   UNL     1       8.686   3.082  23.807  0.00  0.00    -0.316 N 
ATOM      2  C   UNL     1       7.351   3.365  23.499  0.00  0.00    +0.054 A 
ATOM      3  C   UNL     1       6.702   4.532  23.035  0.00  0.00    +0.028 A 
ATOM      4  C   UNL     1       5.321   4.505  22.810  0.00  0.00    +0.022 A 
ATOM      5  C   UNL     1       4.597   3.341  23.006  0.00  0.00    +0.042 A 
ATOM      6  C   UNL     1       5.233   2.174  23.417  0.00  0.00    +0.030 A 
ATOM      7 CL   UNL     1       2.900   3.322  22.716  0.00  0.00    -0.084 Cl
ATOM      8  C   UNL     1       6.628   2.178  23.657  0.00  0.00    +0.005 A 
ATOM      9  C   UNL     1       7.532   1.147  24.055  0.00  0.00    -0.019 A 
ATOM     10  C   UNL     1       8.779   1.731  24.106  0.00  0.00    +0.096 A 
ENDROOT
BRANCH   1  15
ATOM     11  F   UNL     1      12.992   6.612  23.698  0.00  0.00    -0.205 F 
ATOM     12  C   UNL     1      11.963   5.756  23.753  0.00  0.00    +0.124 A 
ATOM     13  C   UNL     1      10.753   6.171  24.292  0.00  0.00    +0.040 A 
ATOM     14  C   UNL     1       9.671   5.285  24.335  0.00  0.00    +0.029 A 
ATOM     15  C   UNL     1       9.797   3.986  23.819  0.00  0.00    +0.047 A 
ATOM     16  C   UNL     1      11.042   3.571  23.314  0.00  0.00    +0.029 A 
ATOM     17  C   UNL     1      12.120   4.462  23.275  0.00  0.00    +0.040 A 
ENDBRANCH   1  15
BRANCH   9  18
ATOM     18  C   UNL     1       7.114  -0.275  24.360  0.00  0.00    +0.023 C 
ATOM     19  C   UNL     1       8.128  -0.951  25.303  0.00  0.00    +0.023 C 
ATOM     20  C   UNL     1       9.257  -1.657  24.554  0.00  0.00    +0.085 C 
ATOM     21  N   UNL     1       8.774  -2.607  23.538  0.00  0.00    -0.301 NA
ATOM     22  C   UNL     1       7.979  -1.869  22.546  0.00  0.00    +0.085 C 
ATOM     23  C   UNL     1       6.774  -1.136  23.136  0.00  0.00    +0.023 C 
BRANCH  21  24
ATOM     24  C   UNL     1       8.057  -3.743  24.159  0.00  0.00    +0.103 C 
BRANCH  24  25
ATOM     25  C   UNL     1       7.865  -4.951  23.228  0.00  0.00    +0.124 C 
BRANCH  25  26
ATOM     26  N   UNL     1       6.528  -5.510  23.286  0.00  0.00    -0.283 N 
ATOM     27  C   UNL     1       5.758  -5.824  22.169  0.00  0.00    +0.302 C 
ATOM     28  O   UNL     1       6.082  -5.748  20.999  0.00  0.00    -0.253 OA
ATOM     29  N   UNL     1       4.526  -6.273  22.634  0.00  0.00    -0.298 N 
ATOM     30  H   UNL     1       3.912  -6.756  21.993  0.00  0.00    +0.150 HD
ATOM     31  C   UNL     1       4.583  -6.468  24.060  0.00  0.00    +0.124 C 
ATOM     32  C   UNL     1       5.720  -5.545  24.482  0.00  0.00    +0.128 C 
ENDBRANCH  25  26
ENDBRANCH  24  25
ENDBRANCH  21  24
ENDBRANCH   9  18
TORSDOF 5
ENDMDL
MODEL 4
REMARK VINA RESULT:      -7.1      1.266      1.578
REMARK  Name = 
REMARK  5 active torsions:
REMARK  status: ('A' for Active; 'I' for Inactive)
REMARK    1  A    between atoms: C_5  and  N_8
REMARK    2  A    between atoms: C_10  and  C_11
REMARK    3  A    between atoms: N_14  and  C_15
REMARK    4  A    between atoms: C_15  and  C_16
REMARK    5  A    between atoms: C_16  and  N_17
REMARK                            x       y       z     vdW  Elec       q    Type
REMARK                         _______ _______ _______ _____ _____    ______ ____
ROOT
ATOM      1  N   UNL     1       7.655   3.758  24.437  0.00  0.00    -0.316 N 
ATOM      2  C   UNL     1       8.934   4.237  24.136  0.00  0.00    +0.054 A 
ATOM      3  C   UNL     1       9.510   5.527  24.189  0.00  0.00    +0.028 A 
ATOM      4  C   UNL     1      10.849   5.695  23.818  0.00  0.00    +0.022 A 
ATOM      5  C   UNL     1      11.617   4.609  23.434  0.00  0.00    +0.042 A 
ATOM      6  C   UNL     1      11.074   3.328  23.424  0.00  0.00    +0.030 A 
ATOM      7 CL   UNL     1      13.265   4.831  22.990  0.00  0.00    -0.084 Cl
ATOM      8  C   UNL     1       9.719   3.133  23.788  0.00  0.00    +0.005 A 
ATOM      9  C   UNL     1       8.918   1.956  23.890  0.00  0.00    -0.019 A 
ATOM     10  C   UNL     1       7.676   2.377  24.317  0.00  0.00    +0.096 A 
ENDROOT
BRANCH   1  15
ATOM     11  F   UNL     1       3.069   6.583  25.848  0.00  0.00    -0.205 F 
ATOM     12  C   UNL     1       4.188   5.928  25.515  0.00  0.00    +0.124 A 
ATOM     13  C   UNL     1       4.957   5.335  26.507  0.00  0.00    +0.040 A 
ATOM     14  C   UNL     1       6.118   4.635  26.160  0.00  0.00    +0.029 A 
ATOM     15  C   UNL     1       6.498   4.514  24.816  0.00  0.00    +0.047 A 
ATOM     16  C   UNL     1       5.729   5.156  23.829  0.00  0.00    +0.029 A 
ATOM     17  C   UNL     1       4.570   5.855  24.182  0.00  0.00    +0.040 A 
ENDBRANCH   1  15
BRANCH   9  18
ATOM     18  C   UNL     1       9.408   0.564  23.557  0.00  0.00    +0.023 C 
ATOM     19  C   UNL     1       8.579  -0.048  22.412  0.00  0.00    +0.023 C 
ATOM     20  C   UNL     1       7.356  -0.816  22.909  0.00  0.00    +0.085 C 
ATOM     21  N   UNL     1       7.683  -1.835  23.920  0.00  0.00    -0.301 NA
ATOM     22  C   UNL     1       8.287  -1.167  25.082  0.00  0.00    +0.085 C 
ATOM     23  C   UNL     1       9.558  -0.383  24.756  0.00  0.00    +0.023 C 
BRANCH  21  24
ATOM     24  C   UNL     1       8.515  -2.916  23.347  0.00  0.00    +0.103 C 
BRANCH  24  25
ATOM     25  C   UNL     1       8.414  -4.254  24.097  0.00  0.00    +0.124 C 
BRANCH  25  26
ATOM     26  N   UNL     1       7.166  -4.952  23.854  0.00  0.00    -0.283 N 
ATOM     27  C   UNL     1       6.839  -5.585  22.658  0.00  0.00    +0.302 C 
ATOM     28  O   UNL     1       7.539  -5.712  21.671  0.00  0.00    -0.253 OA
ATOM     29  N   UNL     1       5.546  -6.078  22.795  0.00  0.00    -0.298 N 
ATOM     30  H   UNL     1       5.212  -6.757  22.125  0.00  0.00    +0.150 HD
ATOM     31  C   UNL     1       5.123  -5.965  24.167  0.00  0.00    +0.124 C 
ATOM     32  C   UNL     1       6.001  -4.840  24.700  0.00  0.00    +0.128 C 
ENDBRANCH  25  26
ENDBRANCH  24  25
ENDBRANCH  21  24
ENDBRANCH   9  18
TORSDOF 5
ENDMDL
MODEL 5
REMARK VINA RESULT:      -7.0      4.495      9.452
REMARK  Name = 
REMARK  5 active torsions:
REMARK  status: ('A' for Active; 'I' for Inactive)
REMARK    1  A    between atoms: C_5  and  N_8
REMARK    2  A    between atoms: C_10  and  C_11
REMARK    3  A    between atoms: N_14  and  C_15
REMARK    4  A    between atoms: C_15  and  C_16
REMARK    5  A    between atoms: C_16  and  N_17
REMARK                            x       y       z     vdW  Elec       q    Type
REMARK                         _______ _______ _______ _____ _____    ______ ____
ROOT
ATOM      1  N   UNL     1       5.543  -5.003  26.805  0.00  0.00    -0.316 N 
ATOM      2  C   UNL     1       5.696  -5.336  25.455  0.00  0.00    +0.054 A 
ATOM      3  C   UNL     1       4.905  -6.091  24.560  0.00  0.00    +0.028 A 
ATOM      4  C   UNL     1       5.331  -6.249  23.235  0.00  0.00    +0.022 A 
ATOM      5  C   UNL     1       6.496  -5.647  22.792  0.00  0.00    +0.042 A 
ATOM      6  C   UNL     1       7.258  -4.863  23.652  0.00  0.00    +0.030 A 
ATOM      7 CL   UNL     1       7.001  -5.844  21.158  0.00  0.00    -0.084 Cl
ATOM      8  C   UNL     1       6.851  -4.693  24.998  0.00  0.00    +0.005 A 
ATOM      9  C   UNL     1       7.410  -3.943  26.077  0.00  0.00    -0.019 A 
ATOM     10  C   UNL     1       6.567  -4.134  27.151  0.00  0.00    +0.096 A 
ENDROOT
BRANCH   1  15
ATOM     11  F   UNL     1       1.494  -6.759  30.201  0.00  0.00    -0.205 F 
ATOM     12  C   UNL     1       2.481  -6.324  29.408  0.00  0.00    +0.124 A 
ATOM     13  C   UNL     1       3.646  -7.071  29.290  0.00  0.00    +0.040 A 
ATOM     14  C   UNL     1       4.672  -6.628  28.449  0.00  0.00    +0.029 A 
ATOM     15  C   UNL     1       4.524  -5.445  27.710  0.00  0.00    +0.047 A 
ATOM     16  C   UNL     1       3.355  -4.681  27.874  0.00  0.00    +0.029 A 
ATOM     17  C   UNL     1       2.332  -5.129  28.717  0.00  0.00    +0.040 A 
ENDBRANCH   1  15
BRANCH   9  18
ATOM     18  C   UNL     1       8.689  -3.141  25.980  0.00  0.00    +0.023 C 
ATOM     19  C   UNL     1       8.595  -1.858  26.827  0.00  0.00    +0.023 C 
ATOM     20  C   UNL     1       8.029  -0.672  26.047  0.00  0.00    +0.085 C 
ATOM     21  N   UNL     1       8.742  -0.414  24.786  0.00  0.00    -0.301 NA
ATOM     22  C   UNL     1       8.625  -1.603  23.928  0.00  0.00    +0.085 C 
ATOM     23  C   UNL     1       9.191  -2.878  24.553  0.00  0.00    +0.023 C 
BRANCH  21  24
ATOM     24  C   UNL     1      10.137   0.015  25.032  0.00  0.00    +0.103 C 
BRANCH  24  25
ATOM     25  C   UNL     1      10.742   0.869  23.906  0.00  0.00    +0.124 C 
BRANCH  25  26
ATOM     26  N   UNL     1       9.762   1.692  23.224  0.00  0.00    -0.283 N 
ATOM     27  C   UNL     1       9.282   1.444  21.941  0.00  0.00    +0.302 C 
ATOM     28  O   UNL     1       9.542   0.497  21.223  0.00  0.00    -0.253 OA
ATOM     29  N   UNL     1       8.414   2.482  21.620  0.00  0.00    -0.298 N 
ATOM     30  H   UNL     1       7.796   2.371  20.827  0.00  0.00    +0.150 HD
ATOM     31  C   UNL     1       8.155   3.282  22.789  0.00  0.00    +0.124 C 
ATOM     32  C   UNL     1       9.376   3.015  23.660  0.00  0.00    +0.128 C 
ENDBRANCH  25  26
ENDBRANCH  24  25
ENDBRANCH  21  24
ENDBRANCH   9  18
TORSDOF 5
ENDMDL
MODEL 6
REMARK VINA RESULT:      -6.9      5.359     10.031
REMARK  Name = 
REMARK  5 active torsions:
REMARK  status: ('A' for Active; 'I' for Inactive)
REMARK    1  A    between atoms: C_5  and  N_8
REMARK    2  A    between atoms: C_10  and  C_11
REMARK    3  A    between atoms: N_14  and  C_15
REMARK    4  A    between atoms: C_15  and  C_16
REMARK    5  A    between atoms: C_16  and  N_17
REMARK                            x       y       z     vdW  Elec       q    Type
REMARK                         _______ _______ _______ _____ _____    ______ ____
ROOT
ATOM      1  N   UNL     1       3.851  -5.569  25.407  0.00  0.00    -0.316 N 
ATOM      2  C   UNL     1       3.570  -4.958  26.634  0.00  0.00    +0.054 A 
ATOM      3  C   UNL     1       2.473  -5.051  27.520  0.00  0.00    +0.028 A 
ATOM      4  C   UNL     1       2.481  -4.301  28.702  0.00  0.00    +0.022 A 
ATOM      5  C   UNL     1       3.564  -3.501  29.022  0.00  0.00    +0.042 A 
ATOM      6  C   UNL     1       4.671  -3.439  28.181  0.00  0.00    +0.030 A 
ATOM      7 CL   UNL     1       3.563  -2.592  30.485  0.00  0.00    -0.084 Cl
ATOM      8  C   UNL     1       4.683  -4.183  26.976  0.00  0.00    +0.005 A 
ATOM      9  C   UNL     1       5.668  -4.327  25.953  0.00  0.00    -0.019 A 
ATOM     10  C   UNL     1       5.135  -5.203  25.031  0.00  0.00    +0.096 A 
ENDROOT
BRANCH   1  15
ATOM     11  F   UNL     1       0.673  -8.935  22.313  0.00  0.00    -0.205 F 
ATOM     12  C   UNL     1       1.413  -8.119  23.074  0.00  0.00    +0.124 A 
ATOM     13  C   UNL     1       1.939  -8.586  24.271  0.00  0.00    +0.040 A 
ATOM     14  C   UNL     1       2.727  -7.740  25.060  0.00  0.00    +0.029 A 
ATOM     15  C   UNL     1       3.004  -6.431  24.639  0.00  0.00    +0.047 A 
ATOM     16  C   UNL     1       2.429  -5.964  23.443  0.00  0.00    +0.029 A 
ATOM     17  C   UNL     1       1.641  -6.814  22.660  0.00  0.00    +0.040 A 
ENDBRANCH   1  15
BRANCH   9  18
ATOM     18  C   UNL     1       7.000  -3.610  25.951  0.00  0.00    +0.023 C 
ATOM     19  C   UNL     1       6.992  -2.448  24.939  0.00  0.00    +0.023 C 
ATOM     20  C   UNL     1       7.447  -2.872  23.544  0.00  0.00    +0.085 C 
ATOM     21  N   UNL     1       8.750  -3.559  23.542  0.00  0.00    -0.301 NA
ATOM     22  C   UNL     1       8.641  -4.775  24.361  0.00  0.00    +0.085 C 
ATOM     23  C   UNL     1       8.232  -4.514  25.810  0.00  0.00    +0.023 C 
BRANCH  21  24
ATOM     24  C   UNL     1       9.840  -2.649  23.959  0.00  0.00    +0.103 C 
BRANCH  24  25
ATOM     25  C   UNL     1      10.346  -1.720  22.844  0.00  0.00    +0.124 C 
BRANCH  25  26
ATOM     26  N   UNL     1      10.166  -0.313  23.146  0.00  0.00    -0.283 N 
ATOM     27  C   UNL     1       9.682   0.630  22.244  0.00  0.00    +0.302 C 
ATOM     28  O   UNL     1       9.280   0.436  21.112  0.00  0.00    -0.253 OA
ATOM     29  N   UNL     1       9.717   1.865  22.883  0.00  0.00    -0.298 N 
ATOM     30  H   UNL     1       9.202   2.636  22.479  0.00  0.00    +0.150 HD
ATOM     31  C   UNL     1      10.008   1.684  24.282  0.00  0.00    +0.124 C 
ATOM     32  C   UNL     1      10.728   0.341  24.306  0.00  0.00    +0.128 C 
ENDBRANCH  25  26
ENDBRANCH  24  25
ENDBRANCH  21  24
ENDBRANCH   9  18
TORSDOF 5
ENDMDL
MODEL 7
REMARK VINA RESULT:      -6.6      1.992      2.530
REMARK  Name = 
REMARK  5 active torsions:
REMARK  status: ('A' for Active; 'I' for Inactive)
REMARK    1  A    between atoms: C_5  and  N_8
REMARK    2  A    between atoms: C_10  and  C_11
REMARK    3  A    between atoms: N_14  and  C_15
REMARK    4  A    between atoms: C_15  and  C_16
REMARK    5  A    between atoms: C_16  and  N_17
REMARK                            x       y       z     vdW  Elec       q    Type
REMARK                         _______ _______ _______ _____ _____    ______ ____
ROOT
ATOM      1  N   UNL     1       7.524   3.414  25.649  0.00  0.00    -0.316 N 
ATOM      2  C   UNL     1       8.609   4.028  25.013  0.00  0.00    +0.054 A 
ATOM      3  C   UNL     1       9.089   5.357  25.010  0.00  0.00    +0.028 A 
ATOM      4  C   UNL     1      10.226   5.673  24.258  0.00  0.00    +0.022 A 
ATOM      5  C   UNL     1      10.899   4.691  23.550  0.00  0.00    +0.042 A 
ATOM      6  C   UNL     1      10.462   3.371  23.583  0.00  0.00    +0.030 A 
ATOM      7 CL   UNL     1      12.302   5.094  22.638  0.00  0.00    -0.084 Cl
ATOM      8  C   UNL     1       9.310   3.028  24.331  0.00  0.00    +0.005 A 
ATOM      9  C   UNL     1       8.658   1.779  24.562  0.00  0.00    -0.019 A 
ATOM     10  C   UNL     1       7.593   2.052  25.394  0.00  0.00    +0.096 A 
ENDROOT
BRANCH   1  15
ATOM     11  F   UNL     1       3.475   5.683  28.725  0.00  0.00    -0.205 F 
ATOM     12  C   UNL     1       4.461   5.165  27.982  0.00  0.00    +0.124 A 
ATOM     13  C   UNL     1       5.681   4.864  28.573  0.00  0.00    +0.040 A 
ATOM     14  C   UNL     1       6.707   4.306  27.802  0.00  0.00    +0.029 A 
ATOM     15  C   UNL     1       6.504   4.032  26.442  0.00  0.00    +0.047 A 
ATOM     16  C   UNL     1       5.275   4.381  25.852  0.00  0.00    +0.029 A 
ATOM     17  C   UNL     1       4.254   4.939  26.628  0.00  0.00    +0.040 A 
ENDBRANCH   1  15
BRANCH   9  18
ATOM     18  C   UNL     1       9.103   0.465  23.958  0.00  0.00    +0.023 C 
ATOM     19  C   UNL     1       8.019  -0.101  23.021  0.00  0.00    +0.023 C 
ATOM     20  C   UNL     1       7.021  -1.004  23.745  0.00  0.00    +0.085 C 
ATOM     21  N   UNL     1       7.666  -2.083  24.511  0.00  0.00    -0.301 NA
ATOM     22  C   UNL     1       8.537  -1.480  25.531  0.00  0.00    +0.085 C 
ATOM     23  C   UNL     1       9.627  -0.573  24.959  0.00  0.00    +0.023 C 
BRANCH  21  24
ATOM     24  C   UNL     1       8.357  -3.040  23.619  0.00  0.00    +0.103 C 
BRANCH  24  25
ATOM     25  C   UNL     1       8.063  -4.516  23.929  0.00  0.00    +0.124 C 
BRANCH  25  26
ATOM     26  N   UNL     1       7.101  -5.110  23.020  0.00  0.00    -0.283 N 
ATOM     27  C   UNL     1       5.783  -5.409  23.354  0.00  0.00    +0.302 C 
ATOM     28  O   UNL     1       5.213  -5.174  24.402  0.00  0.00    -0.253 OA
ATOM     29  N   UNL     1       5.207  -6.019  22.245  0.00  0.00    -0.298 N 
ATOM     30  H   UNL     1       4.201  -6.109  22.208  0.00  0.00    +0.150 HD
ATOM     31  C   UNL     1       6.089  -5.906  21.111  0.00  0.00    +0.124 C 
ATOM     32  C   UNL     1       7.455  -5.727  21.762  0.00  0.00    +0.128 C 
ENDBRANCH  25  26
ENDBRANCH  24  25
ENDBRANCH  21  24
ENDBRANCH   9  18
TORSDOF 5
ENDMDL
MODEL 8
REMARK VINA RESULT:      -6.6      5.046      9.251
REMARK  Name = 
REMARK  5 active torsions:
REMARK  status: ('A' for Active; 'I' for Inactive)
REMARK    1  A    between atoms: C_5  and  N_8
REMARK    2  A    between atoms: C_10  and  C_11
REMARK    3  A    between atoms: N_14  and  C_15
REMARK    4  A    between atoms: C_15  and  C_16
REMARK    5  A    between atoms: C_16  and  N_17
REMARK                            x       y       z     vdW  Elec       q    Type
REMARK                         _______ _______ _______ _____ _____    ______ ____
ROOT
ATOM      1  N   UNL     1       4.367  -3.927  25.086  0.00  0.00    -0.316 N 
ATOM      2  C   UNL     1       3.782  -2.917  25.858  0.00  0.00    +0.054 A 
ATOM      3  C   UNL     1       2.534  -2.816  26.514  0.00  0.00    +0.028 A 
ATOM      4  C   UNL     1       2.228  -1.651  27.228  0.00  0.00    +0.022 A 
ATOM      5  C   UNL     1       3.147  -0.620  27.323  0.00  0.00    +0.042 A 
ATOM      6  C   UNL     1       4.397  -0.729  26.722  0.00  0.00    +0.030 A 
ATOM      7 CL   UNL     1       2.759   0.801  28.214  0.00  0.00    -0.084 Cl
ATOM      8  C   UNL     1       4.727  -1.894  25.988  0.00  0.00    +0.005 A 
ATOM      9  C   UNL     1       5.915  -2.284  25.299  0.00  0.00    -0.019 A 
ATOM     10  C   UNL     1       5.666  -3.541  24.790  0.00  0.00    +0.096 A 
ENDROOT
BRANCH   1  15
ATOM     11  F   UNL     1       1.969  -8.707  23.535  0.00  0.00    -0.205 F 
ATOM     12  C   UNL     1       2.570  -7.564  23.891  0.00  0.00    +0.124 A 
ATOM     13  C   UNL     1       2.476  -6.453  23.064  0.00  0.00    +0.040 A 
ATOM     14  C   UNL     1       3.088  -5.253  23.441  0.00  0.00    +0.029 A 
ATOM     15  C   UNL     1       3.779  -5.161  24.659  0.00  0.00    +0.047 A 
ATOM     16  C   UNL     1       3.897  -6.308  25.464  0.00  0.00    +0.029 A 
ATOM     17  C   UNL     1       3.283  -7.505  25.080  0.00  0.00    +0.040 A 
ENDBRANCH   1  15
BRANCH   9  18
ATOM     18  C   UNL     1       7.151  -1.419  25.184  0.00  0.00    +0.023 C 
ATOM     19  C   UNL     1       7.143  -0.628  23.862  0.00  0.00    +0.023 C 
ATOM     20  C   UNL     1       7.810  -1.382  22.713  0.00  0.00    +0.085 C 
ATOM     21  N   UNL     1       9.169  -1.846  23.036  0.00  0.00    -0.301 NA
ATOM     22  C   UNL     1       9.092  -2.764  24.183  0.00  0.00    +0.085 C 
ATOM     23  C   UNL     1       8.482  -2.140  25.438  0.00  0.00    +0.023 C 
BRANCH  21  24
ATOM     24  C   UNL     1      10.094  -0.708  23.237  0.00  0.00    +0.103 C 
BRANCH  24  25
ATOM     25  C   UNL     1      10.070   0.331  22.105  0.00  0.00    +0.124 C 
BRANCH  25  26
ATOM     26  N   UNL     1       9.702   1.659  22.556  0.00  0.00    -0.283 N 
ATOM     27  C   UNL     1       8.594   2.367  22.097  0.00  0.00    +0.302 C 
ATOM     28  O   UNL     1       7.740   1.985  21.318  0.00  0.00    -0.253 OA
ATOM     29  N   UNL     1       8.619   3.612  22.714  0.00  0.00    -0.298 N 
ATOM     30  H   UNL     1       7.786   4.185  22.686  0.00  0.00    +0.150 HD
ATOM     31  C   UNL     1       9.618   3.625  23.751  0.00  0.00    +0.124 C 
ATOM     32  C   UNL     1      10.578   2.526  23.309  0.00  0.00    +0.128 C 
ENDBRANCH  25  26
ENDBRANCH  24  25
ENDBRANCH  21  24
ENDBRANCH   9  18
TORSDOF 5
ENDMDL
MODEL 9
REMARK VINA RESULT:      -6.5      3.312      4.966
REMARK  Name = 
REMARK  5 active torsions:
REMARK  status: ('A' for Active; 'I' for Inactive)
REMARK    1  A    between atoms: C_5  and  N_8
REMARK    2  A    between atoms: C_10  and  C_11
REMARK    3  A    between atoms: N_14  and  C_15
REMARK    4  A    between atoms: C_15  and  C_16
REMARK    5  A    between atoms: C_16  and  N_17
REMARK                            x       y       z     vdW  Elec       q    Type
REMARK                         _______ _______ _______ _____ _____    ______ ____
ROOT
ATOM      1  N   UNL     1       8.794   2.710  23.761  0.00  0.00    -0.316 N 
ATOM      2  C   UNL     1       7.569   2.750  24.435  0.00  0.00    +0.054 A 
ATOM      3  C   UNL     1       6.914   3.764  25.171  0.00  0.00    +0.028 A 
ATOM      4  C   UNL     1       5.663   3.498  25.740  0.00  0.00    +0.022 A 
ATOM      5  C   UNL     1       5.053   2.268  25.561  0.00  0.00    +0.042 A 
ATOM      6  C   UNL     1       5.667   1.279  24.799  0.00  0.00    +0.030 A 
ATOM      7 CL   UNL     1       3.510   1.960  26.259  0.00  0.00    -0.084 Cl
ATOM      8  C   UNL     1       6.936   1.521  24.219  0.00  0.00    +0.005 A 
ATOM      9  C   UNL     1       7.775   0.719  23.388  0.00  0.00    -0.019 A 
ATOM     10  C   UNL     1       8.883   1.490  23.107  0.00  0.00    +0.096 A 
ENDROOT
BRANCH   1  15
ATOM     11  F   UNL     1      12.731   6.648  23.736  0.00  0.00    -0.205 F 
ATOM     12  C   UNL     1      11.780   5.705  23.713  0.00  0.00    +0.124 A 
ATOM     13  C   UNL     1      12.107   4.410  23.334  0.00  0.00    +0.040 A 
ATOM     14  C   UNL     1      11.119   3.419  23.326  0.00  0.00    +0.029 A 
ATOM     15  C   UNL     1       9.806   3.722  23.714  0.00  0.00    +0.047 A 
ATOM     16  C   UNL     1       9.485   5.048  24.055  0.00  0.00    +0.029 A 
ATOM     17  C   UNL     1      10.477   6.035  24.061  0.00  0.00    +0.040 A 
ENDBRANCH   1  15
BRANCH   9  18
ATOM     18  C   UNL     1       7.446  -0.696  22.965  0.00  0.00    +0.023 C 
ATOM     19  C   UNL     1       6.789  -1.473  24.120  0.00  0.00    +0.023 C 
ATOM     20  C   UNL     1       7.805  -2.191  25.008  0.00  0.00    +0.085 C 
ATOM     21  N   UNL     1       8.725  -3.056  24.252  0.00  0.00    -0.301 NA
ATOM     22  C   UNL     1       9.478  -2.225  23.301  0.00  0.00    +0.085 C 
ATOM     23  C   UNL     1       8.598  -1.468  22.306  0.00  0.00    +0.023 C 
BRANCH  21  24
ATOM     24  C   UNL     1       8.008  -4.189  23.625  0.00  0.00    +0.103 C 
BRANCH  24  25
ATOM     25  C   UNL     1       7.226  -5.065  24.616  0.00  0.00    +0.124 C 
BRANCH  25  26
ATOM     26  N   UNL     1       5.811  -5.154  24.307  0.00  0.00    -0.283 N 
ATOM     27  C   UNL     1       4.797  -4.635  25.108  0.00  0.00    +0.302 C 
ATOM     28  O   UNL     1       4.918  -3.986  26.130  0.00  0.00    -0.253 OA
ATOM     29  N   UNL     1       3.589  -4.976  24.510  0.00  0.00    -0.298 N 
ATOM     30  H   UNL     1       2.747  -4.505  24.813  0.00  0.00    +0.150 HD
ATOM     31  C   UNL     1       3.827  -5.518  23.198  0.00  0.00    +0.124 C 
ATOM     32  C   UNL     1       5.260  -6.029  23.298  0.00  0.00    +0.128 C 
ENDBRANCH  25  26
ENDBRANCH  24  25
ENDBRANCH  21  24
ENDBRANCH   9  18
TORSDOF 5
ENDMDL
