MODEL 1
REMARK VINA RESULT:      -7.1      0.000      0.000
REMARK  Name = 
REMARK  7 active torsions:
REMARK  status: ('A' for Active; 'I' for Inactive)
REMARK    1  A    between atoms: N_1  and  S_2
REMARK    2  A    between atoms: S_2  and  C_5
REMARK    3  A    between atoms: C_8  and  N_9
REMARK    4  A    between atoms: N_9  and  C_10
REMARK    5  A    between atoms: C_12  and  O_13
REMARK    6  A    between atoms: O_13  and  C_14
REMARK    7  A    between atoms: C_14  and  C_15
REMARK                            x       y       z     vdW  Elec       q    Type
REMARK                         _______ _______ _______ _____ _____    ______ ____
ROOT
ATOM      1  C   UNL     1       6.723  -5.448  27.018  0.00  0.00    +0.133 A 
ATOM      2  N   UNL     1       6.108  -5.960  28.186  0.00  0.00    -0.182 N 
ATOM      3  C   UNL     1       4.915  -6.707  28.114  0.00  0.00    +0.258 A 
ATOM      4  N   UNL     1       4.525  -7.012  29.333  0.00  0.00    -0.197 NA
ATOM      5  C   UNL     1       5.482  -6.456  30.123  0.00  0.00    +0.247 A 
ATOM      6  N   UNL     1       4.321  -7.014  26.920  0.00  0.00    -0.175 NA
ATOM      7  C   UNL     1       4.932  -6.556  25.880  0.00  0.00    +0.221 A 
ATOM      8  N   UNL     1       6.474  -5.833  29.491  0.00  0.00    -0.151 NA
ATOM      9  C   UNL     1       6.155  -5.730  25.833  0.00  0.00    +0.111 A 
ENDROOT
BRANCH   1  10
ATOM     10  N   UNL     1       7.880  -4.692  27.142  0.00  0.00    -0.299 N 
ATOM     11  H   UNL     1       8.543  -5.040  27.829  0.00  0.00    +0.154 HD
BRANCH  10  15
ATOM     12  C   UNL     1       9.219  -1.848  24.332  0.00  0.00    +0.105 A 
ATOM     13  C   UNL     1       8.407  -1.456  25.398  0.00  0.00    +0.030 A 
ATOM     14  C   UNL     1       7.979  -2.406  26.330  0.00  0.00    +0.025 A 
ATOM     15  C   UNL     1       8.365  -3.750  26.218  0.00  0.00    +0.032 A 
ATOM     16  C   UNL     1       9.239  -4.109  25.180  0.00  0.00    +0.025 A 
ATOM     17  C   UNL     1       9.660  -3.168  24.233  0.00  0.00    +0.030 A 
BRANCH  12  18
ATOM     18  S   UNL     1       9.708  -0.640  23.136  0.00  0.00    +0.056 S 
ATOM     19  O   UNL     1       8.532  -0.022  22.573  0.00  0.00    -0.153 OA
ATOM     20  O   UNL     1      10.813   0.132  23.662  0.00  0.00    -0.153 OA
BRANCH  18  21
ATOM     21  N   UNL     1      10.346  -1.605  21.919  0.00  0.00    -0.204 NA
ATOM     22  H   UNL     1      11.364  -1.630  21.977  0.00  0.00    +0.144 HD
ATOM     23  H   UNL     1       9.911  -2.528  21.951  0.00  0.00    +0.144 HD
ENDBRANCH  18  21
ENDBRANCH  12  18
ENDBRANCH  10  15
ENDBRANCH   1  10
BRANCH   7  24
ATOM     24  O   UNL     1       4.542  -6.768  24.603  0.00  0.00    -0.476 OA
BRANCH  24  25
ATOM     25  C   UNL     1       5.502  -6.616  23.540  0.00  0.00    +0.234 C 
BRANCH  25  26
ATOM     26  C   UNL     1       4.898  -5.692  22.468  0.00  0.00    +0.027 C 
ATOM     27  C   UNL     1       5.947  -5.245  21.442  0.00  0.00    +0.007 C 
ATOM     28  C   UNL     1       6.907  -4.192  21.993  0.00  0.00    +0.000 C 
ATOM     29  C   UNL     1       6.155  -2.988  22.554  0.00  0.00    +0.000 C 
ATOM     30  C   UNL     1       5.130  -3.404  23.604  0.00  0.00    +0.000 C 
ATOM     31  C   UNL     1       4.175  -4.471  23.073  0.00  0.00    +0.007 C 
ENDBRANCH  25  26
ENDBRANCH  24  25
ENDBRANCH   7  24
TORSDOF 7
ENDMDL
MODEL 2
REMARK VINA RESULT:      -6.8      3.059      4.785
REMARK  Name = 
REMARK  7 active torsions:
REMARK  status: ('A' for Active; 'I' for Inactive)
REMARK    1  A    between atoms: N_1  and  S_2
REMARK    2  A    between atoms: S_2  and  C_5
REMARK    3  A    between atoms: C_8  and  N_9
REMARK    4  A    between atoms: N_9  and  C_10
REMARK    5  A    between atoms: C_12  and  O_13
REMARK    6  A    between atoms: O_13  and  C_14
REMARK    7  A    between atoms: C_14  and  C_15
REMARK                            x       y       z     vdW  Elec       q    Type
REMARK                         _______ _______ _______ _____ _____    ______ ____
ROOT
ATOM      1  C   UNL     1       8.009  -3.136  22.827  0.00  0.00    +0.133 A 
ATOM      2  N   UNL     1       8.534  -3.912  23.889  0.00  0.00    -0.182 N 
ATOM      3  C   UNL     1       7.725  -4.822  24.598  0.00  0.00    +0.258 A 
ATOM      4  N   UNL     1       8.435  -5.366  25.563  0.00  0.00    -0.197 NA
ATOM      5  C   UNL     1       9.658  -4.789  25.425  0.00  0.00    +0.247 A 
ATOM      6  N   UNL     1       6.415  -5.037  24.269  0.00  0.00    -0.175 NA
ATOM      7  C   UNL     1       5.985  -4.334  23.275  0.00  0.00    +0.221 A 
ATOM      8  N   UNL     1       9.788  -3.925  24.419  0.00  0.00    -0.151 NA
ATOM      9  C   UNL     1       6.722  -3.324  22.489  0.00  0.00    +0.111 A 
ENDROOT
BRANCH   1  10
ATOM     10  N   UNL     1       8.837  -2.231  22.179  0.00  0.00    -0.299 N 
ATOM     11  H   UNL     1       9.108  -2.502  21.238  0.00  0.00    +0.154 HD
BRANCH  10  15
ATOM     12  C   UNL     1       9.327   1.815  23.259  0.00  0.00    +0.105 A 
ATOM     13  C   UNL     1       8.930   0.876  24.212  0.00  0.00    +0.030 A 
ATOM     14  C   UNL     1       8.782  -0.465  23.844  0.00  0.00    +0.025 A 
ATOM     15  C   UNL     1       9.040  -0.885  22.531  0.00  0.00    +0.032 A 
ATOM     16  C   UNL     1       9.506   0.063  21.608  0.00  0.00    +0.025 A 
ATOM     17  C   UNL     1       9.642   1.410  21.961  0.00  0.00    +0.030 A 
BRANCH  12  18
ATOM     18  S   UNL     1       9.459   3.515  23.732  0.00  0.00    +0.056 S 
ATOM     19  O   UNL     1       8.780   3.715  24.989  0.00  0.00    -0.153 OA
ATOM     20  O   UNL     1      10.812   3.970  23.500  0.00  0.00    -0.153 OA
BRANCH  18  21
ATOM     21  N   UNL     1       8.506   4.266  22.572  0.00  0.00    -0.204 NA
ATOM     22  H   UNL     1       7.560   3.885  22.582  0.00  0.00    +0.144 HD
ATOM     23  H   UNL     1       8.540   5.278  22.703  0.00  0.00    +0.144 HD
ENDBRANCH  18  21
ENDBRANCH  12  18
ENDBRANCH  10  15
ENDBRANCH   1  10
BRANCH   7  24
ATOM     24  O   UNL     1       4.737  -4.411  22.761  0.00  0.00    -0.476 OA
BRANCH  24  25
ATOM     25  C   UNL     1       4.060  -5.682  22.745  0.00  0.00    +0.234 C 
BRANCH  25  26
ATOM     26  C   UNL     1       2.780  -5.561  23.591  0.00  0.00    +0.027 C 
ATOM     27  C   UNL     1       2.913  -6.289  24.935  0.00  0.00    +0.007 C 
ATOM     28  C   UNL     1       2.832  -7.808  24.799  0.00  0.00    +0.000 C 
ATOM     29  C   UNL     1       1.559  -8.239  24.076  0.00  0.00    +0.000 C 
ATOM     30  C   UNL     1       1.422  -7.555  22.719  0.00  0.00    +0.000 C 
ATOM     31  C   UNL     1       1.521  -6.036  22.838  0.00  0.00    +0.007 C 
ENDBRANCH  25  26
ENDBRANCH  24  25
ENDBRANCH   7  24
TORSDOF 7
ENDMDL
MODEL 3
REMARK VINA RESULT:      -6.6      3.361      7.059
REMARK  Name = 
REMARK  7 active torsions:
REMARK  status: ('A' for Active; 'I' for Inactive)
REMARK    1  A    between atoms: N_1  and  S_2
REMARK    2  A    between atoms: S_2  and  C_5
REMARK    3  A    between atoms: C_8  and  N_9
REMARK    4  A    between atoms: N_9  and  C_10
REMARK    5  A    between atoms: C_12  and  O_13
REMARK    6  A    between atoms: O_13  and  C_14
REMARK    7  A    between atoms: C_14  and  C_15
REMARK                            x       y       z     vdW  Elec       q    Type
REMARK                         _______ _______ _______ _____ _____    ______ ____
ROOT
ATOM      1  C   UNL     1       7.010  -2.885  24.316  0.00  0.00    +0.133 A 
ATOM      2  N   UNL     1       7.673  -3.728  25.240  0.00  0.00    -0.182 N 
ATOM      3  C   UNL     1       9.059  -3.967  25.145  0.00  0.00    +0.258 A 
ATOM      4  N   UNL     1       9.412  -4.824  26.079  0.00  0.00    -0.197 NA
ATOM      5  C   UNL     1       8.246  -5.089  26.727  0.00  0.00    +0.247 A 
ATOM      6  N   UNL     1       9.837  -3.363  24.196  0.00  0.00    -0.175 NA
ATOM      7  C   UNL     1       9.199  -2.576  23.396  0.00  0.00    +0.221 A 
ATOM      8  N   UNL     1       7.170  -4.440  26.286  0.00  0.00    -0.151 NA
ATOM      9  C   UNL     1       7.751  -2.284  23.369  0.00  0.00    +0.111 A 
ENDROOT
BRANCH   1  10
ATOM     10  N   UNL     1       5.639  -2.705  24.431  0.00  0.00    -0.299 N 
ATOM     11  H   UNL     1       5.340  -1.735  24.464  0.00  0.00    +0.154 HD
BRANCH  10  15
ATOM     12  C   UNL     1       2.670  -5.618  23.740  0.00  0.00    +0.105 A 
ATOM     13  C   UNL     1       2.439  -4.577  24.641  0.00  0.00    +0.030 A 
ATOM     14  C   UNL     1       3.427  -3.611  24.853  0.00  0.00    +0.025 A 
ATOM     15  C   UNL     1       4.646  -3.663  24.162  0.00  0.00    +0.032 A 
ATOM     16  C   UNL     1       4.830  -4.677  23.209  0.00  0.00    +0.025 A 
ATOM     17  C   UNL     1       3.854  -5.658  23.001  0.00  0.00    +0.030 A 
BRANCH  12  18
ATOM     18  S   UNL     1       1.429  -6.860  23.524  0.00  0.00    +0.056 S 
ATOM     19  O   UNL     1       0.592  -6.907  24.699  0.00  0.00    -0.153 OA
ATOM     20  O   UNL     1       0.884  -6.761  22.187  0.00  0.00    -0.153 OA
BRANCH  18  21
ATOM     21  N   UNL     1       2.344  -8.266  23.556  0.00  0.00    -0.204 NA
ATOM     22  H   UNL     1       2.988  -8.294  22.766  0.00  0.00    +0.144 HD
ATOM     23  H   UNL     1       2.805  -8.355  24.463  0.00  0.00    +0.144 HD
ENDBRANCH  18  21
ENDBRANCH  12  18
ENDBRANCH  10  15
ENDBRANCH   1  10
BRANCH   7  24
ATOM     24  O   UNL     1       9.772  -1.853  22.408  0.00  0.00    -0.476 OA
BRANCH  24  25
ATOM     25  C   UNL     1       9.181  -0.597  22.022  0.00  0.00    +0.234 C 
BRANCH  25  26
ATOM     26  C   UNL     1      10.185   0.527  22.329  0.00  0.00    +0.027 C 
ATOM     27  C   UNL     1      10.626   0.511  23.799  0.00  0.00    +0.007 C 
ATOM     28  C   UNL     1       9.551   1.037  24.748  0.00  0.00    +0.000 C 
ATOM     29  C   UNL     1       9.078   2.430  24.342  0.00  0.00    +0.000 C 
ATOM     30  C   UNL     1       8.600   2.463  22.894  0.00  0.00    +0.000 C 
ATOM     31  C   UNL     1       9.658   1.922  21.935  0.00  0.00    +0.007 C 
ENDBRANCH  25  26
ENDBRANCH  24  25
ENDBRANCH   7  24
TORSDOF 7
ENDMDL
MODEL 4
REMARK VINA RESULT:      -6.5      2.515      4.989
REMARK  Name = 
REMARK  7 active torsions:
REMARK  status: ('A' for Active; 'I' for Inactive)
REMARK    1  A    between atoms: N_1  and  S_2
REMARK    2  A    between atoms: S_2  and  C_5
REMARK    3  A    between atoms: C_8  and  N_9
REMARK    4  A    between atoms: N_9  and  C_10
REMARK    5  A    between atoms: C_12  and  O_13
REMARK    6  A    between atoms: O_13  and  C_14
REMARK    7  A    between atoms: C_14  and  C_15
REMARK                            x       y       z     vdW  Elec       q    Type
REMARK                         _______ _______ _______ _____ _____    ______ ____
ROOT
ATOM      1  C   UNL     1       8.071  -4.327  24.472  0.00  0.00    +0.133 A 
ATOM      2  N   UNL     1       7.117  -4.268  23.429  0.00  0.00    -0.182 N 
ATOM      3  C   UNL     1       5.876  -4.928  23.536  0.00  0.00    +0.258 A 
ATOM      4  N   UNL     1       5.205  -4.765  22.416  0.00  0.00    -0.197 NA
ATOM      5  C   UNL     1       6.038  -4.009  21.651  0.00  0.00    +0.247 A 
ATOM      6  N   UNL     1       5.513  -5.613  24.663  0.00  0.00    -0.175 NA
ATOM      7  C   UNL     1       6.398  -5.614  25.602  0.00  0.00    +0.221 A 
ATOM      8  N   UNL     1       7.191  -3.656  22.215  0.00  0.00    -0.151 NA
ATOM      9  C   UNL     1       7.741  -5.000  25.588  0.00  0.00    +0.111 A 
ENDROOT
BRANCH   1  10
ATOM     10  N   UNL     1       9.291  -3.687  24.308  0.00  0.00    -0.299 N 
ATOM     11  H   UNL     1      10.069  -4.305  24.093  0.00  0.00    +0.154 HD
BRANCH  10  15
ATOM     12  C   UNL     1       9.764   0.440  23.586  0.00  0.00    +0.105 A 
ATOM     13  C   UNL     1       9.162  -0.004  24.765  0.00  0.00    +0.030 A 
ATOM     14  C   UNL     1       9.022  -1.375  24.998  0.00  0.00    +0.025 A 
ATOM     15  C   UNL     1       9.489  -2.316  24.069  0.00  0.00    +0.032 A 
ATOM     16  C   UNL     1      10.155  -1.850  22.925  0.00  0.00    +0.025 A 
ATOM     17  C   UNL     1      10.287  -0.479  22.675  0.00  0.00    +0.030 A 
BRANCH  12  18
ATOM     18  S   UNL     1       9.887   2.179  23.286  0.00  0.00    +0.056 S 
ATOM     19  O   UNL     1       8.642   2.814  23.647  0.00  0.00    -0.153 OA
ATOM     20  O   UNL     1      11.167   2.655  23.762  0.00  0.00    -0.153 OA
BRANCH  18  21
ATOM     21  N   UNL     1       9.959   2.231  21.610  0.00  0.00    -0.204 NA
ATOM     22  H   UNL     1       9.622   1.357  21.208  0.00  0.00    +0.144 HD
ATOM     23  H   UNL     1       9.461   3.056  21.271  0.00  0.00    +0.144 HD
ENDBRANCH  18  21
ENDBRANCH  12  18
ENDBRANCH  10  15
ENDBRANCH   1  10
BRANCH   7  24
ATOM     24  O   UNL     1       6.237  -6.198  26.811  0.00  0.00    -0.476 OA
BRANCH  24  25
ATOM     25  C   UNL     1       4.952  -6.749  27.160  0.00  0.00    +0.234 C 
BRANCH  25  26
ATOM     26  C   UNL     1       4.842  -6.789  28.694  0.00  0.00    +0.027 C 
ATOM     27  C   UNL     1       3.400  -7.038  29.155  0.00  0.00    +0.007 C 
ATOM     28  C   UNL     1       2.504  -5.811  28.995  0.00  0.00    +0.000 C 
ATOM     29  C   UNL     1       3.092  -4.592  29.699  0.00  0.00    +0.000 C 
ATOM     30  C   UNL     1       4.515  -4.302  29.229  0.00  0.00    +0.000 C 
ATOM     31  C   UNL     1       5.417  -5.526  29.366  0.00  0.00    +0.007 C 
ENDBRANCH  25  26
ENDBRANCH  24  25
ENDBRANCH   7  24
TORSDOF 7
ENDMDL
MODEL 5
REMARK VINA RESULT:      -6.4      4.698      7.579
REMARK  Name = 
REMARK  7 active torsions:
REMARK  status: ('A' for Active; 'I' for Inactive)
REMARK    1  A    between atoms: N_1  and  S_2
REMARK    2  A    between atoms: S_2  and  C_5
REMARK    3  A    between atoms: C_8  and  N_9
REMARK    4  A    between atoms: N_9  and  C_10
REMARK    5  A    between atoms: C_12  and  O_13
REMARK    6  A    between atoms: O_13  and  C_14
REMARK    7  A    between atoms: C_14  and  C_15
REMARK                            x       y       z     vdW  Elec       q    Type
REMARK                         _______ _______ _______ _____ _____    ______ ____
ROOT
ATOM      1  C   UNL     1       5.609   1.269  24.589  0.00  0.00    +0.133 A 
ATOM      2  N   UNL     1       4.601   2.262  24.632  0.00  0.00    -0.182 N 
ATOM      3  C   UNL     1       4.735   3.468  23.915  0.00  0.00    +0.258 A 
ATOM      4  N   UNL     1       3.697   4.236  24.169  0.00  0.00    -0.197 NA
ATOM      5  C   UNL     1       2.949   3.490  25.026  0.00  0.00    +0.247 A 
ATOM      6  N   UNL     1       5.812   3.719  23.110  0.00  0.00    -0.175 NA
ATOM      7  C   UNL     1       6.690   2.774  23.073  0.00  0.00    +0.221 A 
ATOM      8  N   UNL     1       3.428   2.283  25.322  0.00  0.00    -0.151 NA
ATOM      9  C   UNL     1       6.681   1.494  23.810  0.00  0.00    +0.111 A 
ENDROOT
BRANCH   1  10
ATOM     10  N   UNL     1       5.447   0.111  25.337  0.00  0.00    -0.299 N 
ATOM     11  H   UNL     1       4.566   0.051  25.840  0.00  0.00    +0.154 HD
BRANCH  10  15
ATOM     12  C   UNL     1       7.740  -3.400  24.903  0.00  0.00    +0.105 A 
ATOM     13  C   UNL     1       7.953  -2.550  25.989  0.00  0.00    +0.030 A 
ATOM     14  C   UNL     1       7.178  -1.395  26.129  0.00  0.00    +0.025 A 
ATOM     15  C   UNL     1       6.177  -1.081  25.197  0.00  0.00    +0.032 A 
ATOM     16  C   UNL     1       5.932  -1.986  24.153  0.00  0.00    +0.025 A 
ATOM     17  C   UNL     1       6.712  -3.137  23.995  0.00  0.00    +0.030 A 
BRANCH  12  18
ATOM     18  S   UNL     1       8.764  -4.831  24.717  0.00  0.00    +0.056 S 
ATOM     19  O   UNL     1       8.276  -5.627  23.617  0.00  0.00    -0.153 OA
ATOM     20  O   UNL     1      10.152  -4.441  24.836  0.00  0.00    -0.153 OA
BRANCH  18  21
ATOM     21  N   UNL     1       8.397  -5.696  26.107  0.00  0.00    -0.204 NA
ATOM     22  H   UNL     1       7.854  -6.528  25.880  0.00  0.00    +0.144 HD
ATOM     23  H   UNL     1       9.256  -5.896  26.623  0.00  0.00    +0.144 HD
ENDBRANCH  18  21
ENDBRANCH  12  18
ENDBRANCH  10  15
ENDBRANCH   1  10
BRANCH   7  24
ATOM     24  O   UNL     1       7.813   2.795  22.320  0.00  0.00    -0.476 OA
BRANCH  24  25
ATOM     25  C   UNL     1       8.237   1.588  21.657  0.00  0.00    +0.234 C 
BRANCH  25  26
ATOM     26  C   UNL     1       9.759   1.446  21.836  0.00  0.00    +0.027 C 
ATOM     27  C   UNL     1      10.181  -0.021  21.984  0.00  0.00    +0.007 C 
ATOM     28  C   UNL     1       9.837  -0.604  23.353  0.00  0.00    +0.000 C 
ATOM     29  C   UNL     1      10.417   0.240  24.483  0.00  0.00    +0.000 C 
ATOM     30  C   UNL     1       9.981   1.698  24.379  0.00  0.00    +0.000 C 
ATOM     31  C   UNL     1      10.302   2.289  23.008  0.00  0.00    +0.007 C 
ENDBRANCH  25  26
ENDBRANCH  24  25
ENDBRANCH   7  24
TORSDOF 7
ENDMDL
MODEL 6
REMARK VINA RESULT:      -6.4      3.663      7.357
REMARK  Name = 
REMARK  7 active torsions:
REMARK  status: ('A' for Active; 'I' for Inactive)
REMARK    1  A    between atoms: N_1  and  S_2
REMARK    2  A    between atoms: S_2  and  C_5
REMARK    3  A    between atoms: C_8  and  N_9
REMARK    4  A    between atoms: N_9  and  C_10
REMARK    5  A    between atoms: C_12  and  O_13
REMARK    6  A    between atoms: O_13  and  C_14
REMARK    7  A    between atoms: C_14  and  C_15
REMARK                            x       y       z     vdW  Elec       q    Type
REMARK                         _______ _______ _______ _____ _____    ______ ____
ROOT
ATOM      1  C   UNL     1       7.141  -4.396  24.161  0.00  0.00    +0.133 A 
ATOM      2  N   UNL     1       6.706  -4.904  22.913  0.00  0.00    -0.182 N 
ATOM      3  C   UNL     1       6.516  -4.053  21.805  0.00  0.00    +0.258 A 
ATOM      4  N   UNL     1       6.057  -4.760  20.795  0.00  0.00    -0.197 NA
ATOM      5  C   UNL     1       5.981  -6.022  21.296  0.00  0.00    +0.247 A 
ATOM      6  N   UNL     1       6.786  -2.714  21.864  0.00  0.00    -0.175 NA
ATOM      7  C   UNL     1       7.212  -2.299  23.010  0.00  0.00    +0.221 A 
ATOM      8  N   UNL     1       6.382  -6.178  22.556  0.00  0.00    -0.151 NA
ATOM      9  C   UNL     1       7.407  -3.082  24.246  0.00  0.00    +0.111 A 
ENDROOT
BRANCH   1  10
ATOM     10  N   UNL     1       7.284  -5.268  25.231  0.00  0.00    -0.299 N 
ATOM     11  H   UNL     1       8.246  -5.486  25.475  0.00  0.00    +0.154 HD
BRANCH  10  15
ATOM     12  C   UNL     1       4.422  -6.287  28.156  0.00  0.00    +0.105 A 
ATOM     13  C   UNL     1       5.531  -5.509  28.496  0.00  0.00    +0.030 A 
ATOM     14  C   UNL     1       6.466  -5.168  27.515  0.00  0.00    +0.025 A 
ATOM     15  C   UNL     1       6.302  -5.586  26.186  0.00  0.00    +0.032 A 
ATOM     16  C   UNL     1       5.145  -6.306  25.851  0.00  0.00    +0.025 A 
ATOM     17  C   UNL     1       4.210  -6.666  26.829  0.00  0.00    +0.030 A 
BRANCH  12  18
ATOM     18  S   UNL     1       3.277  -6.751  29.421  0.00  0.00    +0.056 S 
ATOM     19  O   UNL     1       3.986  -7.419  30.485  0.00  0.00    -0.153 OA
ATOM     20  O   UNL     1       2.367  -5.653  29.666  0.00  0.00    -0.153 OA
BRANCH  18  21
ATOM     21  N   UNL     1       2.380  -7.941  28.649  0.00  0.00    -0.204 NA
ATOM     22  H   UNL     1       1.402  -7.660  28.570  0.00  0.00    +0.144 HD
ATOM     23  H   UNL     1       2.813  -8.170  27.754  0.00  0.00    +0.144 HD
ENDBRANCH  18  21
ENDBRANCH  12  18
ENDBRANCH  10  15
ENDBRANCH   1  10
BRANCH   7  24
ATOM     24  O   UNL     1       7.570  -1.024  23.282  0.00  0.00    -0.476 OA
BRANCH  24  25
ATOM     25  C   UNL     1       8.650  -0.778  24.203  0.00  0.00    +0.234 C 
BRANCH  25  26
ATOM     26  C   UNL     1       9.939  -0.558  23.392  0.00  0.00    +0.027 C 
ATOM     27  C   UNL     1      10.910   0.389  24.109  0.00  0.00    +0.007 C 
ATOM     28  C   UNL     1      10.470   1.850  24.050  0.00  0.00    +0.000 C 
ATOM     29  C   UNL     1      10.236   2.307  22.613  0.00  0.00    +0.000 C 
ATOM     30  C   UNL     1       9.245   1.402  21.889  0.00  0.00    +0.000 C 
ATOM     31  C   UNL     1       9.663  -0.065  21.956  0.00  0.00    +0.007 C 
ENDBRANCH  25  26
ENDBRANCH  24  25
ENDBRANCH   7  24
TORSDOF 7
ENDMDL
MODEL 7
REMARK VINA RESULT:      -6.2      4.640      7.694
REMARK  Name = 
REMARK  7 active torsions:
REMARK  status: ('A' for Active; 'I' for Inactive)
REMARK    1  A    between atoms: N_1  and  S_2
REMARK    2  A    between atoms: S_2  and  C_5
REMARK    3  A    between atoms: C_8  and  N_9
REMARK    4  A    between atoms: N_9  and  C_10
REMARK    5  A    between atoms: C_12  and  O_13
REMARK    6  A    between atoms: O_13  and  C_14
REMARK    7  A    between atoms: C_14  and  C_15
REMARK                            x       y       z     vdW  Elec       q    Type
REMARK                         _______ _______ _______ _____ _____    ______ ____
ROOT
ATOM      1  C   UNL     1       7.045   1.928  26.143  0.00  0.00    +0.133 A 
ATOM      2  N   UNL     1       6.934   3.026  27.029  0.00  0.00    -0.182 N 
ATOM      3  C   UNL     1       7.521   4.271  26.725  0.00  0.00    +0.258 A 
ATOM      4  N   UNL     1       7.323   5.096  27.730  0.00  0.00    -0.197 NA
ATOM      5  C   UNL     1       6.619   4.350  28.623  0.00  0.00    +0.247 A 
ATOM      6  N   UNL     1       8.180   4.494  25.547  0.00  0.00    -0.175 NA
ATOM      7  C   UNL     1       8.229   3.476  24.755  0.00  0.00    +0.221 A 
ATOM      8  N   UNL     1       6.331   3.105  28.247  0.00  0.00    -0.151 NA
ATOM      9  C   UNL     1       7.694   2.119  24.982  0.00  0.00    +0.111 A 
ENDROOT
BRANCH   1  10
ATOM     10  N   UNL     1       6.477   0.713  26.501  0.00  0.00    -0.299 N 
ATOM     11  H   UNL     1       5.514   0.773  26.821  0.00  0.00    +0.154 HD
BRANCH  10  15
ATOM     12  C   UNL     1       7.777  -3.165  25.477  0.00  0.00    +0.105 A 
ATOM     13  C   UNL     1       6.747  -2.555  24.759  0.00  0.00    +0.030 A 
ATOM     14  C   UNL     1       6.333  -1.265  25.100  0.00  0.00    +0.025 A 
ATOM     15  C   UNL     1       6.946  -0.564  26.149  0.00  0.00    +0.032 A 
ATOM     16  C   UNL     1       8.027  -1.167  26.811  0.00  0.00    +0.025 A 
ATOM     17  C   UNL     1       8.439  -2.465  26.487  0.00  0.00    +0.030 A 
BRANCH  12  18
ATOM     18  S   UNL     1       8.253  -4.818  25.062  0.00  0.00    +0.056 S 
ATOM     19  O   UNL     1       7.176  -5.458  24.346  0.00  0.00    -0.153 OA
ATOM     20  O   UNL     1       9.614  -4.813  24.574  0.00  0.00    -0.153 OA
BRANCH  18  21
ATOM     21  N   UNL     1       8.297  -5.548  26.573  0.00  0.00    -0.204 NA
ATOM     22  H   UNL     1       7.570  -5.168  27.178  0.00  0.00    +0.144 HD
ATOM     23  H   UNL     1       8.250  -6.562  26.464  0.00  0.00    +0.144 HD
ENDBRANCH  18  21
ENDBRANCH  12  18
ENDBRANCH  10  15
ENDBRANCH   1  10
BRANCH   7  24
ATOM     24  O   UNL     1       8.800   3.482  23.529  0.00  0.00    -0.476 OA
BRANCH  24  25
ATOM     25  C   UNL     1       8.482   2.427  22.600  0.00  0.00    +0.234 C 
BRANCH  25  26
ATOM     26  C   UNL     1       9.793   1.739  22.182  0.00  0.00    +0.027 C 
ATOM     27  C   UNL     1       9.534   0.406  21.468  0.00  0.00    +0.007 C 
ATOM     28  C   UNL     1       9.104  -0.707  22.422  0.00  0.00    +0.000 C 
ATOM     29  C   UNL     1      10.107  -0.890  23.557  0.00  0.00    +0.000 C 
ATOM     30  C   UNL     1      10.354   0.416  24.307  0.00  0.00    +0.000 C 
ATOM     31  C   UNL     1      10.766   1.542  23.362  0.00  0.00    +0.007 C 
ENDBRANCH  25  26
ENDBRANCH  24  25
ENDBRANCH   7  24
TORSDOF 7
ENDMDL
MODEL 8
REMARK VINA RESULT:      -6.1      4.667      8.792
REMARK  Name = 
REMARK  7 active torsions:
REMARK  status: ('A' for Active; 'I' for Inactive)
REMARK    1  A    between atoms: N_1  and  S_2
REMARK    2  A    between atoms: S_2  and  C_5
REMARK    3  A    between atoms: C_8  and  N_9
REMARK    4  A    between atoms: N_9  and  C_10
REMARK    5  A    between atoms: C_12  and  O_13
REMARK    6  A    between atoms: O_13  and  C_14
REMARK    7  A    between atoms: C_14  and  C_15
REMARK                            x       y       z     vdW  Elec       q    Type
REMARK                         _______ _______ _______ _____ _____    ______ ____
ROOT
ATOM      1  C   UNL     1       9.979   2.740  23.769  0.00  0.00    +0.133 A 
ATOM      2  N   UNL     1      10.735   3.933  23.668  0.00  0.00    -0.182 N 
ATOM      3  C   UNL     1      10.198   5.173  24.069  0.00  0.00    +0.258 A 
ATOM      4  N   UNL     1      11.075   6.121  23.819  0.00  0.00    -0.197 NA
ATOM      5  C   UNL     1      12.128   5.450  23.279  0.00  0.00    +0.247 A 
ATOM      6  N   UNL     1       8.950   5.280  24.617  0.00  0.00    -0.175 NA
ATOM      7  C   UNL     1       8.308   4.166  24.721  0.00  0.00    +0.221 A 
ATOM      8  N   UNL     1      11.993   4.128  23.186  0.00  0.00    -0.151 NA
ATOM      9  C   UNL     1       8.746   2.821  24.298  0.00  0.00    +0.111 A 
ENDROOT
BRANCH   1  10
ATOM     10  N   UNL     1      10.539   1.548  23.332  0.00  0.00    -0.299 N 
ATOM     11  H   UNL     1      11.540   1.585  23.166  0.00  0.00    +0.154 HD
BRANCH  10  15
ATOM     12  C   UNL     1       8.702  -2.238  23.595  0.00  0.00    +0.105 A 
ATOM     13  C   UNL     1       8.800  -1.587  22.364  0.00  0.00    +0.030 A 
ATOM     14  C   UNL     1       9.422  -0.338  22.288  0.00  0.00    +0.025 A 
ATOM     15  C   UNL     1       9.962   0.270  23.431  0.00  0.00    +0.032 A 
ATOM     16  C   UNL     1       9.916  -0.433  24.644  0.00  0.00    +0.025 A 
ATOM     17  C   UNL     1       9.282  -1.678  24.734  0.00  0.00    +0.030 A 
BRANCH  12  18
ATOM     18  S   UNL     1       7.867  -3.796  23.680  0.00  0.00    +0.056 S 
ATOM     19  O   UNL     1       6.858  -3.740  24.710  0.00  0.00    -0.153 OA
ATOM     20  O   UNL     1       7.581  -4.257  22.339  0.00  0.00    -0.153 OA
BRANCH  18  21
ATOM     21  N   UNL     1       9.075  -4.798  24.274  0.00  0.00    -0.204 NA
ATOM     22  H   UNL     1       9.909  -4.259  24.503  0.00  0.00    +0.144 HD
ATOM     23  H   UNL     1       8.713  -5.343  25.058  0.00  0.00    +0.144 HD
ENDBRANCH  18  21
ENDBRANCH  12  18
ENDBRANCH  10  15
ENDBRANCH   1  10
BRANCH   7  24
ATOM     24  O   UNL     1       7.076   4.034  25.263  0.00  0.00    -0.476 OA
BRANCH  24  25
ATOM     25  C   UNL     1       6.856   3.033  26.275  0.00  0.00    +0.234 C 
BRANCH  25  26
ATOM     26  C   UNL     1       5.475   2.398  26.036  0.00  0.00    +0.027 C 
ATOM     27  C   UNL     1       5.190   1.264  27.029  0.00  0.00    +0.007 C 
ATOM     28  C   UNL     1       5.972  -0.010  26.719  0.00  0.00    +0.000 C 
ATOM     29  C   UNL     1       5.735  -0.477  25.286  0.00  0.00    +0.000 C 
ATOM     30  C   UNL     1       6.048   0.622  24.276  0.00  0.00    +0.000 C 
ATOM     31  C   UNL     1       5.286   1.909  24.586  0.00  0.00    +0.007 C 
ENDBRANCH  25  26
ENDBRANCH  24  25
ENDBRANCH   7  24
TORSDOF 7
ENDMDL
MODEL 9
REMARK VINA RESULT:      -6.0      3.639      7.366
REMARK  Name = 
REMARK  7 active torsions:
REMARK  status: ('A' for Active; 'I' for Inactive)
REMARK    1  A    between atoms: N_1  and  S_2
REMARK    2  A    between atoms: S_2  and  C_5
REMARK    3  A    between atoms: C_8  and  N_9
REMARK    4  A    between atoms: N_9  and  C_10
REMARK    5  A    between atoms: C_12  and  O_13
REMARK    6  A    between atoms: O_13  and  C_14
REMARK    7  A    between atoms: C_14  and  C_15
REMARK                            x       y       z     vdW  Elec       q    Type
REMARK                         _______ _______ _______ _____ _____    ______ ____
ROOT
ATOM      1  C   UNL     1       6.640  -3.341  25.338  0.00  0.00    +0.133 A 
ATOM      2  N   UNL     1       7.939  -3.902  25.306  0.00  0.00    -0.182 N 
ATOM      3  C   UNL     1       8.932  -3.395  24.444  0.00  0.00    +0.258 A 
ATOM      4  N   UNL     1      10.021  -4.124  24.567  0.00  0.00    -0.197 NA
ATOM      5  C   UNL     1       9.679  -5.054  25.499  0.00  0.00    +0.247 A 
ATOM      6  N   UNL     1       8.710  -2.314  23.637  0.00  0.00    -0.175 NA
ATOM      7  C   UNL     1       7.523  -1.812  23.721  0.00  0.00    +0.221 A 
ATOM      8  N   UNL     1       8.450  -4.956  26.001  0.00  0.00    -0.151 NA
ATOM      9  C   UNL     1       6.394  -2.281  24.548  0.00  0.00    +0.111 A 
ENDROOT
BRANCH   1  10
ATOM     10  N   UNL     1       5.687  -3.895  26.180  0.00  0.00    -0.299 N 
ATOM     11  H   UNL     1       5.496  -3.353  27.018  0.00  0.00    +0.154 HD
BRANCH  10  15
ATOM     12  C   UNL     1       2.931  -6.883  25.060  0.00  0.00    +0.105 A 
ATOM     13  C   UNL     1       4.290  -7.184  25.169  0.00  0.00    +0.030 A 
ATOM     14  C   UNL     1       5.192  -6.187  25.553  0.00  0.00    +0.025 A 
ATOM     15  C   UNL     1       4.751  -4.888  25.844  0.00  0.00    +0.032 A 
ATOM     16  C   UNL     1       3.373  -4.626  25.797  0.00  0.00    +0.025 A 
ATOM     17  C   UNL     1       2.463  -5.612  25.399  0.00  0.00    +0.030 A 
BRANCH  12  18
ATOM     18  S   UNL     1       1.812  -8.144  24.524  0.00  0.00    +0.056 S 
ATOM     19  O   UNL     1       2.312  -9.433  24.939  0.00  0.00    -0.153 OA
ATOM     20  O   UNL     1       0.455  -7.718  24.784  0.00  0.00    -0.153 OA
BRANCH  18  21
ATOM     21  N   UNL     1       2.011  -8.090  22.858  0.00  0.00    -0.204 NA
ATOM     22  H   UNL     1       1.287  -8.637  22.392  0.00  0.00    +0.144 HD
ATOM     23  H   UNL     1       2.053  -7.118  22.549  0.00  0.00    +0.144 HD
ENDBRANCH  18  21
ENDBRANCH  12  18
ENDBRANCH  10  15
ENDBRANCH   1  10
BRANCH   7  24
ATOM     24  O   UNL     1       7.097  -0.725  23.040  0.00  0.00    -0.476 OA
BRANCH  24  25
ATOM     25  C   UNL     1       7.519   0.584  23.471  0.00  0.00    +0.234 C 
BRANCH  25  26
ATOM     26  C   UNL     1       8.294   1.247  22.319  0.00  0.00    +0.027 C 
ATOM     27  C   UNL     1       9.771   0.834  22.312  0.00  0.00    +0.007 C 
ATOM     28  C   UNL     1      10.583   1.507  23.417  0.00  0.00    +0.000 C 
ATOM     29  C   UNL     1      10.448   3.026  23.363  0.00  0.00    +0.000 C 
ATOM     30  C   UNL     1       8.988   3.465  23.406  0.00  0.00    +0.000 C 
ATOM     31  C   UNL     1       8.160   2.784  22.318  0.00  0.00    +0.007 C 
ENDBRANCH  25  26
ENDBRANCH  24  25
ENDBRANCH   7  24
TORSDOF 7
ENDMDL
