MODEL 1
REMARK VINA RESULT:      -5.5      0.000      0.000
REMARK  Name = 
REMARK  5 active torsions:
REMARK  status: ('A' for Active; 'I' for Inactive)
REMARK    1  A    between atoms: C_1  and  C_2
REMARK    2  A    between atoms: C_2  and  C_3
REMARK    3  A    between atoms: C_4  and  C_5
REMARK    4  A    between atoms: C_5  and  N_6
REMARK    5  A    between atoms: N_6  and  C_7
REMARK                            x       y       z     vdW  Elec       q    Type
REMARK                         _______ _______ _______ _____ _____    ______ ____
ROOT
ATOM      1  C   UNL     1       8.621  -2.278  22.922  0.00  0.00    +0.150 A 
ATOM      2  N   UNL     1       9.591  -2.528  23.844  0.00  0.00    -0.219 NA
ATOM      3  C   UNL     1       9.600  -3.713  24.490  0.00  0.00    +0.225 A 
ATOM      4  N   UNL     1       8.753  -4.749  24.343  0.00  0.00    -0.216 NA
ATOM      5  C   UNL     1       7.821  -4.464  23.424  0.00  0.00    +0.163 A 
ATOM      6  N   UNL     1       6.800  -5.272  23.020  0.00  0.00    -0.329 N 
ATOM      7  H   UNL     1       6.617  -6.199  23.375  0.00  0.00    +0.168 HD
ATOM      8  C   UNL     1       6.091  -4.596  22.065  0.00  0.00    +0.198 A 
ATOM      9  N   UNL     1       6.593  -3.400  21.833  0.00  0.00    -0.231 NA
ATOM     10  C   UNL     1       7.677  -3.299  22.685  0.00  0.00    +0.147 A 
ENDROOT
BRANCH   1  11
ATOM     11  N   UNL     1       8.555  -1.037  22.281  0.00  0.00    -0.324 N 
ATOM     12  H   UNL     1       7.805  -1.032  21.592  0.00  0.00    +0.148 HD
BRANCH  11  13
ATOM     13  C   UNL     1       9.820  -0.522  21.804  0.00  0.00    +0.130 C 
BRANCH  13  16
ATOM     14  C   UNL     1      10.186   3.013  23.428  0.00  0.00    +0.038 C 
ATOM     15  C   UNL     1      10.305   1.524  23.256  0.00  0.00    -0.078 C 
ATOM     16  C   UNL     1       9.849   0.942  22.128  0.00  0.00    -0.010 C 
ATOM     17  C   UNL     1      10.917   0.744  24.383  0.00  0.00    +0.038 C 
ENDBRANCH  13  16
ENDBRANCH  11  13
ENDBRANCH   1  11
TORSDOF 3
ENDMDL
MODEL 2
REMARK VINA RESULT:      -5.4      1.556      2.950
REMARK  Name = 
REMARK  5 active torsions:
REMARK  status: ('A' for Active; 'I' for Inactive)
REMARK    1  A    between atoms: C_1  and  C_2
REMARK    2  A    between atoms: C_2  and  C_3
REMARK    3  A    between atoms: C_4  and  C_5
REMARK    4  A    between atoms: C_5  and  N_6
REMARK    5  A    between atoms: N_6  and  C_7
REMARK                            x       y       z     vdW  Elec       q    Type
REMARK                         _______ _______ _______ _____ _____    ______ ____
ROOT
ATOM      1  C   UNL     1       7.693  -3.465  23.459  0.00  0.00    +0.150 A 
ATOM      2  N   UNL     1       6.340  -3.616  23.470  0.00  0.00    -0.219 NA
ATOM      3  C   UNL     1       5.777  -4.477  24.343  0.00  0.00    +0.225 A 
ATOM      4  N   UNL     1       6.385  -5.245  25.266  0.00  0.00    -0.216 NA
ATOM      5  C   UNL     1       7.712  -5.062  25.225  0.00  0.00    +0.163 A 
ATOM      6  N   UNL     1       8.644  -5.675  26.009  0.00  0.00    -0.329 N 
ATOM      7  H   UNL     1       8.444  -6.358  26.724  0.00  0.00    +0.168 HD
ATOM      8  C   UNL     1       9.872  -5.195  25.642  0.00  0.00    +0.198 A 
ATOM      9  N   UNL     1       9.784  -4.312  24.668  0.00  0.00    -0.231 NA
ATOM     10  C   UNL     1       8.434  -4.223  24.390  0.00  0.00    +0.147 A 
ENDROOT
BRANCH   1  11
ATOM     11  N   UNL     1       8.305  -2.622  22.527  0.00  0.00    -0.324 N 
ATOM     12  H   UNL     1       9.294  -2.846  22.440  0.00  0.00    +0.148 HD
BRANCH  11  13
ATOM     13  C   UNL     1       8.014  -1.214  22.685  0.00  0.00    +0.130 C 
BRANCH  13  16
ATOM     14  C   UNL     1      10.939   0.730  24.398  0.00  0.00    +0.038 C 
ATOM     15  C   UNL     1       9.918   0.350  23.361  0.00  0.00    -0.078 C 
ATOM     16  C   UNL     1       9.051  -0.652  23.612  0.00  0.00    -0.010 C 
ATOM     17  C   UNL     1       9.935   1.106  22.064  0.00  0.00    +0.038 C 
ENDBRANCH  13  16
ENDBRANCH  11  13
ENDBRANCH   1  11
TORSDOF 3
ENDMDL
MODEL 3
REMARK VINA RESULT:      -5.2      2.188      5.445
REMARK  Name = 
REMARK  5 active torsions:
REMARK  status: ('A' for Active; 'I' for Inactive)
REMARK    1  A    between atoms: C_1  and  C_2
REMARK    2  A    between atoms: C_2  and  C_3
REMARK    3  A    between atoms: C_4  and  C_5
REMARK    4  A    between atoms: C_5  and  N_6
REMARK    5  A    between atoms: N_6  and  C_7
REMARK                            x       y       z     vdW  Elec       q    Type
REMARK                         _______ _______ _______ _____ _____    ______ ____
ROOT
ATOM      1  C   UNL     1       8.703  -2.962  25.214  0.00  0.00    +0.150 A 
ATOM      2  N   UNL     1       8.403  -2.299  26.365  0.00  0.00    -0.219 NA
ATOM      3  C   UNL     1       8.775  -1.009  26.500  0.00  0.00    +0.225 A 
ATOM      4  N   UNL     1       9.425  -0.230  25.615  0.00  0.00    -0.216 NA
ATOM      5  C   UNL     1       9.694  -0.919  24.497  0.00  0.00    +0.163 A 
ATOM      6  N   UNL     1      10.343  -0.456  23.391  0.00  0.00    -0.329 N 
ATOM      7  H   UNL     1      10.711   0.477  23.280  0.00  0.00    +0.168 HD
ATOM      8  C   UNL     1      10.397  -1.481  22.486  0.00  0.00    +0.198 A 
ATOM      9  N   UNL     1       9.824  -2.574  22.945  0.00  0.00    -0.231 NA
ATOM     10  C   UNL     1       9.384  -2.240  24.211  0.00  0.00    +0.147 A 
ENDROOT
BRANCH   1  11
ATOM     11  N   UNL     1       8.379  -4.314  25.070  0.00  0.00    -0.324 N 
ATOM     12  H   UNL     1       9.027  -4.770  24.430  0.00  0.00    +0.148 HD
BRANCH  11  13
ATOM     13  C   UNL     1       6.982  -4.590  24.816  0.00  0.00    +0.130 C 
BRANCH  13  16
ATOM     14  C   UNL     1       6.428  -5.665  21.100  0.00  0.00    +0.038 C 
ATOM     15  C   UNL     1       6.505  -4.779  22.313  0.00  0.00    -0.078 C 
ATOM     16  C   UNL     1       6.905  -5.293  23.494  0.00  0.00    -0.010 C 
ATOM     17  C   UNL     1       6.101  -3.343  22.147  0.00  0.00    +0.038 C 
ENDBRANCH  13  16
ENDBRANCH  11  13
ENDBRANCH   1  11
TORSDOF 3
ENDMDL
MODEL 4
REMARK VINA RESULT:      -5.2      1.566      2.577
REMARK  Name = 
REMARK  5 active torsions:
REMARK  status: ('A' for Active; 'I' for Inactive)
REMARK    1  A    between atoms: C_1  and  C_2
REMARK    2  A    between atoms: C_2  and  C_3
REMARK    3  A    between atoms: C_4  and  C_5
REMARK    4  A    between atoms: C_5  and  N_6
REMARK    5  A    between atoms: N_6  and  C_7
REMARK                            x       y       z     vdW  Elec       q    Type
REMARK                         _______ _______ _______ _____ _____    ______ ____
ROOT
ATOM      1  C   UNL     1       7.736  -4.232  24.104  0.00  0.00    +0.150 A 
ATOM      2  N   UNL     1       7.298  -4.342  25.388  0.00  0.00    -0.219 NA
ATOM      3  C   UNL     1       6.221  -5.109  25.657  0.00  0.00    +0.225 A 
ATOM      4  N   UNL     1       5.478  -5.833  24.798  0.00  0.00    -0.216 NA
ATOM      5  C   UNL     1       5.946  -5.702  23.549  0.00  0.00    +0.163 A 
ATOM      6  N   UNL     1       5.443  -6.284  22.425  0.00  0.00    -0.329 N 
ATOM      7  H   UNL     1       4.638  -6.892  22.395  0.00  0.00    +0.168 HD
ATOM      8  C   UNL     1       6.222  -5.890  21.371  0.00  0.00    +0.198 A 
ATOM      9  N   UNL     1       7.195  -5.087  21.752  0.00  0.00    -0.231 NA
ATOM     10  C   UNL     1       7.030  -4.953  23.117  0.00  0.00    +0.147 A 
ENDROOT
BRANCH   1  11
ATOM     11  N   UNL     1       8.815  -3.399  23.791  0.00  0.00    -0.324 N 
ATOM     12  H   UNL     1       9.527  -3.452  24.516  0.00  0.00    +0.148 HD
BRANCH  11  13
ATOM     13  C   UNL     1       8.460  -2.057  23.387  0.00  0.00    +0.130 C 
BRANCH  13  16
ATOM     14  C   UNL     1      10.997   0.715  24.459  0.00  0.00    +0.038 C 
ATOM     15  C   UNL     1      10.053  -0.070  23.590  0.00  0.00    -0.078 C 
ATOM     16  C   UNL     1       9.385  -1.121  24.107  0.00  0.00    -0.010 C 
ATOM     17  C   UNL     1       9.921   0.353  22.156  0.00  0.00    +0.038 C 
ENDBRANCH  13  16
ENDBRANCH  11  13
ENDBRANCH   1  11
TORSDOF 3
ENDMDL
MODEL 5
REMARK VINA RESULT:      -5.1      2.457      3.602
REMARK  Name = 
REMARK  5 active torsions:
REMARK  status: ('A' for Active; 'I' for Inactive)
REMARK    1  A    between atoms: C_1  and  C_2
REMARK    2  A    between atoms: C_2  and  C_3
REMARK    3  A    between atoms: C_4  and  C_5
REMARK    4  A    between atoms: C_5  and  N_6
REMARK    5  A    between atoms: N_6  and  C_7
REMARK                            x       y       z     vdW  Elec       q    Type
REMARK                         _______ _______ _______ _____ _____    ______ ____
ROOT
ATOM      1  C   UNL     1       9.936   0.040  24.325  0.00  0.00    +0.150 A 
ATOM      2  N   UNL     1      10.506  -0.364  23.157  0.00  0.00    -0.219 NA
ATOM      3  C   UNL     1      10.425  -1.662  22.796  0.00  0.00    +0.225 A 
ATOM      4  N   UNL     1       9.820  -2.673  23.448  0.00  0.00    -0.216 NA
ATOM      5  C   UNL     1       9.267  -2.231  24.586  0.00  0.00    +0.163 A 
ATOM      6  N   UNL     1       8.580  -2.972  25.500  0.00  0.00    -0.329 N 
ATOM      7  H   UNL     1       8.404  -3.963  25.431  0.00  0.00    +0.168 HD
ATOM      8  C   UNL     1       8.186  -2.129  26.503  0.00  0.00    +0.198 A 
ATOM      9  N   UNL     1       8.582  -0.891  26.289  0.00  0.00    -0.231 NA
ATOM     10  C   UNL     1       9.270  -0.940  25.092  0.00  0.00    +0.147 A 
ENDROOT
BRANCH   1  11
ATOM     11  N   UNL     1      10.054   1.367  24.750  0.00  0.00    -0.324 N 
ATOM     12  H   UNL     1       9.259   1.627  25.331  0.00  0.00    +0.148 HD
BRANCH  11  13
ATOM     13  C   UNL     1      10.384   2.319  23.713  0.00  0.00    +0.130 C 
BRANCH  13  16
ATOM     14  C   UNL     1       7.095   4.001  22.437  0.00  0.00    +0.038 C 
ATOM     15  C   UNL     1       8.212   2.999  22.552  0.00  0.00    -0.078 C 
ATOM     16  C   UNL     1       9.167   3.166  23.490  0.00  0.00    -0.010 C 
ATOM     17  C   UNL     1       8.218   1.855  21.580  0.00  0.00    +0.038 C 
ENDBRANCH  13  16
ENDBRANCH  11  13
ENDBRANCH   1  11
TORSDOF 3
ENDMDL
MODEL 6
REMARK VINA RESULT:      -5.1      2.106      5.374
REMARK  Name = 
REMARK  5 active torsions:
REMARK  status: ('A' for Active; 'I' for Inactive)
REMARK    1  A    between atoms: C_1  and  C_2
REMARK    2  A    between atoms: C_2  and  C_3
REMARK    3  A    between atoms: C_4  and  C_5
REMARK    4  A    between atoms: C_5  and  N_6
REMARK    5  A    between atoms: N_6  and  C_7
REMARK                            x       y       z     vdW  Elec       q    Type
REMARK                         _______ _______ _______ _____ _____    ______ ____
ROOT
ATOM      1  C   UNL     1       8.356  -2.146  23.226  0.00  0.00    +0.150 A 
ATOM      2  N   UNL     1       9.122  -1.900  22.128  0.00  0.00    -0.219 NA
ATOM      3  C   UNL     1      10.126  -1.001  22.209  0.00  0.00    +0.225 A 
ATOM      4  N   UNL     1      10.513  -0.278  23.277  0.00  0.00    -0.216 NA
ATOM      5  C   UNL     1       9.739  -0.555  24.334  0.00  0.00    +0.163 A 
ATOM      6  N   UNL     1       9.835  -0.010  25.580  0.00  0.00    -0.329 N 
ATOM      7  H   UNL     1      10.511   0.685  25.860  0.00  0.00    +0.168 HD
ATOM      8  C   UNL     1       8.859  -0.575  26.355  0.00  0.00    +0.198 A 
ATOM      9  N   UNL     1       8.140  -1.450  25.681  0.00  0.00    -0.231 NA
ATOM     10  C   UNL     1       8.676  -1.443  24.407  0.00  0.00    +0.147 A 
ENDROOT
BRANCH   1  11
ATOM     11  N   UNL     1       7.276  -3.030  23.154  0.00  0.00    -0.324 N 
ATOM     12  H   UNL     1       6.507  -2.702  23.735  0.00  0.00    +0.148 HD
BRANCH  11  13
ATOM     13  C   UNL     1       7.610  -4.427  23.323  0.00  0.00    +0.130 C 
BRANCH  13  16
ATOM     14  C   UNL     1       7.502  -5.489  27.083  0.00  0.00    +0.038 C 
ATOM     15  C   UNL     1       8.066  -5.055  25.758  0.00  0.00    -0.078 C 
ATOM     16  C   UNL     1       7.235  -4.802  24.726  0.00  0.00    -0.010 C 
ATOM     17  C   UNL     1       9.559  -4.947  25.644  0.00  0.00    +0.038 C 
ENDBRANCH  13  16
ENDBRANCH  11  13
ENDBRANCH   1  11
TORSDOF 3
ENDMDL
MODEL 7
REMARK VINA RESULT:      -5.1      2.359      5.753
REMARK  Name = 
REMARK  5 active torsions:
REMARK  status: ('A' for Active; 'I' for Inactive)
REMARK    1  A    between atoms: C_1  and  C_2
REMARK    2  A    between atoms: C_2  and  C_3
REMARK    3  A    between atoms: C_4  and  C_5
REMARK    4  A    between atoms: C_5  and  N_6
REMARK    5  A    between atoms: N_6  and  C_7
REMARK                            x       y       z     vdW  Elec       q    Type
REMARK                         _______ _______ _______ _____ _____    ______ ____
ROOT
ATOM      1  C   UNL     1       7.460  -0.821  22.789  0.00  0.00    +0.150 A 
ATOM      2  N   UNL     1       8.497  -1.678  22.578  0.00  0.00    -0.219 NA
ATOM      3  C   UNL     1       9.638  -1.212  22.027  0.00  0.00    +0.225 A 
ATOM      4  N   UNL     1       9.926   0.046  21.644  0.00  0.00    -0.216 NA
ATOM      5  C   UNL     1       8.883   0.855  21.874  0.00  0.00    +0.163 A 
ATOM      6  N   UNL     1       8.813   2.190  21.607  0.00  0.00    -0.329 N 
ATOM      7  H   UNL     1       9.550   2.739  21.191  0.00  0.00    +0.168 HD
ATOM      8  C   UNL     1       7.577   2.625  22.003  0.00  0.00    +0.198 A 
ATOM      9  N   UNL     1       6.849   1.649  22.505  0.00  0.00    -0.231 NA
ATOM     10  C   UNL     1       7.653   0.528  22.424  0.00  0.00    +0.147 A 
ENDROOT
BRANCH   1  11
ATOM     11  N   UNL     1       6.247  -1.288  23.305  0.00  0.00    -0.324 N 
ATOM     12  H   UNL     1       6.204  -1.130  24.310  0.00  0.00    +0.148 HD
BRANCH  11  13
ATOM     13  C   UNL     1       5.871  -2.620  22.885  0.00  0.00    +0.130 C 
BRANCH  13  16
ATOM     14  C   UNL     1       6.363  -5.379  25.608  0.00  0.00    +0.038 C 
ATOM     15  C   UNL     1       6.566  -4.607  24.333  0.00  0.00    -0.078 C 
ATOM     16  C   UNL     1       5.856  -3.481  24.112  0.00  0.00    -0.010 C 
ATOM     17  C   UNL     1       7.551  -5.155  23.342  0.00  0.00    +0.038 C 
ENDBRANCH  13  16
ENDBRANCH  11  13
ENDBRANCH   1  11
TORSDOF 3
ENDMDL
MODEL 8
REMARK VINA RESULT:      -5.1      1.983      5.783
REMARK  Name = 
REMARK  5 active torsions:
REMARK  status: ('A' for Active; 'I' for Inactive)
REMARK    1  A    between atoms: C_1  and  C_2
REMARK    2  A    between atoms: C_2  and  C_3
REMARK    3  A    between atoms: C_4  and  C_5
REMARK    4  A    between atoms: C_5  and  N_6
REMARK    5  A    between atoms: N_6  and  C_7
REMARK                            x       y       z     vdW  Elec       q    Type
REMARK                         _______ _______ _______ _____ _____    ______ ____
ROOT
ATOM      1  C   UNL     1       9.216  -0.478  22.971  0.00  0.00    +0.150 A 
ATOM      2  N   UNL     1      10.198  -0.630  23.901  0.00  0.00    -0.219 NA
ATOM      3  C   UNL     1      10.765   0.465  24.450  0.00  0.00    +0.225 A 
ATOM      4  N   UNL     1      10.481   1.759  24.212  0.00  0.00    -0.216 NA
ATOM      5  C   UNL     1       9.507   1.863  23.298  0.00  0.00    +0.163 A 
ATOM      6  N   UNL     1       8.968   3.016  22.809  0.00  0.00    -0.329 N 
ATOM      7  H   UNL     1       9.247   3.948  23.078  0.00  0.00    +0.168 HD
ATOM      8  C   UNL     1       8.002   2.669  21.904  0.00  0.00    +0.198 A 
ATOM      9  N   UNL     1       7.890   1.362  21.781  0.00  0.00    -0.231 NA
ATOM     10  C   UNL     1       8.835   0.841  22.645  0.00  0.00    +0.147 A 
ENDROOT
BRANCH   1  11
ATOM     11  N   UNL     1       8.651  -1.593  22.346  0.00  0.00    -0.324 N 
ATOM     12  H   UNL     1       8.559  -1.432  21.345  0.00  0.00    +0.148 HD
BRANCH  11  13
ATOM     13  C   UNL     1       7.468  -2.125  22.986  0.00  0.00    +0.130 C 
BRANCH  13  16
ATOM     14  C   UNL     1       7.065  -5.842  21.848  0.00  0.00    +0.038 C 
ATOM     15  C   UNL     1       7.417  -4.666  22.717  0.00  0.00    -0.078 C 
ATOM     16  C   UNL     1       7.137  -3.415  22.296  0.00  0.00    -0.010 C 
ATOM     17  C   UNL     1       8.099  -4.950  24.023  0.00  0.00    +0.038 C 
ENDBRANCH  13  16
ENDBRANCH  11  13
ENDBRANCH   1  11
TORSDOF 3
ENDMDL
MODEL 9
REMARK VINA RESULT:      -5.0      3.845      7.159
REMARK  Name = 
REMARK  5 active torsions:
REMARK  status: ('A' for Active; 'I' for Inactive)
REMARK    1  A    between atoms: C_1  and  C_2
REMARK    2  A    between atoms: C_2  and  C_3
REMARK    3  A    between atoms: C_4  and  C_5
REMARK    4  A    between atoms: C_5  and  N_6
REMARK    5  A    between atoms: N_6  and  C_7
REMARK                            x       y       z     vdW  Elec       q    Type
REMARK                         _______ _______ _______ _____ _____    ______ ____
ROOT
ATOM      1  C   UNL     1       8.618   2.794  23.894  0.00  0.00    +0.150 A 
ATOM      2  N   UNL     1       7.562   2.217  23.256  0.00  0.00    -0.219 NA
ATOM      3  C   UNL     1       6.796   2.965  22.435  0.00  0.00    +0.225 A 
ATOM      4  N   UNL     1       6.933   4.268  22.123  0.00  0.00    -0.216 NA
ATOM      5  C   UNL     1       7.985   4.794  22.766  0.00  0.00    +0.163 A 
ATOM      6  N   UNL     1       8.421   6.084  22.696  0.00  0.00    -0.329 N 
ATOM      7  H   UNL     1       7.993   6.813  22.146  0.00  0.00    +0.168 HD
ATOM      8  C   UNL     1       9.523   6.190  23.500  0.00  0.00    +0.198 A 
ATOM      9  N   UNL     1       9.820   5.047  24.084  0.00  0.00    -0.231 NA
ATOM     10  C   UNL     1       8.857   4.161  23.638  0.00  0.00    +0.147 A 
ENDROOT
BRANCH   1  11
ATOM     11  N   UNL     1       9.393   2.056  24.793  0.00  0.00    -0.324 N 
ATOM     12  H   UNL     1       9.532   2.579  25.656  0.00  0.00    +0.148 HD
BRANCH  11  13
ATOM     13  C   UNL     1      10.594   1.474  24.237  0.00  0.00    +0.130 C 
BRANCH  13  16
ATOM     14  C   UNL     1       9.906  -2.321  23.608  0.00  0.00    +0.038 C 
ATOM     15  C   UNL     1      10.081  -0.855  23.320  0.00  0.00    -0.078 C 
ATOM     16  C   UNL     1      10.437  -0.016  24.314  0.00  0.00    -0.010 C 
ATOM     17  C   UNL     1       9.819  -0.389  21.917  0.00  0.00    +0.038 C 
ENDBRANCH  13  16
ENDBRANCH  11  13
ENDBRANCH   1  11
TORSDOF 3
ENDMDL
