MODEL 1
REMARK VINA RESULT:      -8.1      0.000      0.000
REMARK  Name = 
REMARK  5 active torsions:
REMARK  status: ('A' for Active; 'I' for Inactive)
REMARK    1  A    between atoms: C_1  and  S_2
REMARK    2  A    between atoms: S_2  and  C_3
REMARK    3  A    between atoms: C_7  and  N_8
REMARK    4  A    between atoms: C_14  and  C_21
REMARK    5  A    between atoms: N_17  and  C_18
REMARK                            x       y       z     vdW  Elec       q    Type
REMARK                         _______ _______ _______ _____ _____    ______ ____
ROOT
ATOM      1  N   UNL     1      10.484   1.200  22.917  0.00  0.00    -0.284 N 
ATOM      2  H   UNL     1      11.415   0.957  22.609  0.00  0.00    +0.155 HD
ATOM      3  C   UNL     1       9.782   0.038  23.229  0.00  0.00    +0.221 A 
ATOM      4  N   UNL     1       8.493   0.081  23.597  0.00  0.00    -0.196 NA
ATOM      5  C   UNL     1       7.874  -1.076  23.896  0.00  0.00    +0.148 A 
ATOM      6  C   UNL     1       8.516  -2.297  23.827  0.00  0.00    +0.037 A 
ATOM      7  C   UNL     1       7.828  -3.534  24.148  0.00  0.00    +0.027 A 
ATOM      8  C   UNL     1       6.552  -3.491  24.560  0.00  0.00    +0.050 A 
ATOM      9  C   UNL     1       5.826  -2.182  24.687  0.00  0.00    +0.260 A 
ATOM     10  O   UNL     1       4.667  -2.172  25.102  0.00  0.00    -0.267 OA
ATOM     11  C   UNL     1       9.834  -2.243  23.438  0.00  0.00    +0.126 A 
ATOM     12  N   UNL     1       6.518  -1.041  24.312  0.00  0.00    -0.295 N 
ATOM     13  C   UNL     1       5.864   0.256  24.369  0.00  0.00    +0.154 C 
ATOM     14  N   UNL     1      10.478  -1.103  23.124  0.00  0.00    -0.222 NA
ENDROOT
BRANCH   8  15
ATOM     15  C   UNL     1       5.849  -4.748  24.887  0.00  0.00    +0.024 A 
ATOM     16  C   UNL     1       5.235  -5.514  23.881  0.00  0.00    +0.050 A 
ATOM     17 CL   UNL     1       5.317  -5.061  22.209  0.00  0.00    -0.083 Cl
ATOM     18  C   UNL     1       4.548  -6.691  24.192  0.00  0.00    +0.021 A 
ATOM     19  C   UNL     1       4.470  -7.127  25.513  0.00  0.00    +0.003 A 
ATOM     20  C   UNL     1       5.081  -6.387  26.522  0.00  0.00    +0.021 A 
ATOM     21  C   UNL     1       5.765  -5.205  26.213  0.00  0.00    +0.050 A 
ATOM     22 CL   UNL     1       6.506  -4.353  27.527  0.00  0.00    -0.083 Cl
ENDBRANCH   8  15
BRANCH   1  25
ATOM     23  C   UNL     1      11.027   4.812  23.721  0.00  0.00    +0.009 A 
ATOM     24  C   UNL     1      11.279   3.498  23.312  0.00  0.00    +0.038 A 
ATOM     25  C   UNL     1      10.258   2.544  23.241  0.00  0.00    +0.035 A 
ATOM     26  C   UNL     1       8.962   2.949  23.597  0.00  0.00    +0.023 A 
ATOM     27  C   UNL     1       8.694   4.267  23.980  0.00  0.00    +0.003 A 
ATOM     28  C   UNL     1       9.729   5.198  24.043  0.00  0.00    +0.015 A 
BRANCH  23  30
ATOM     29  C   UNL     1      13.218   5.567  22.314  0.00  0.00    +0.090 C 
ATOM     30  S   UNL     1      12.378   5.964  23.870  0.00  0.00    -0.129 S 
ENDBRANCH  23  30
ENDBRANCH   1  25
TORSDOF 3
ENDMDL
MODEL 2
REMARK VINA RESULT:      -8.0      0.068      1.700
REMARK  Name = 
REMARK  5 active torsions:
REMARK  status: ('A' for Active; 'I' for Inactive)
REMARK    1  A    between atoms: C_1  and  S_2
REMARK    2  A    between atoms: S_2  and  C_3
REMARK    3  A    between atoms: C_7  and  N_8
REMARK    4  A    between atoms: C_14  and  C_21
REMARK    5  A    between atoms: N_17  and  C_18
REMARK                            x       y       z     vdW  Elec       q    Type
REMARK                         _______ _______ _______ _____ _____    ______ ____
ROOT
ATOM      1  N   UNL     1      10.494   1.184  22.980  0.00  0.00    -0.284 N 
ATOM      2  H   UNL     1      11.425   0.937  22.678  0.00  0.00    +0.155 HD
ATOM      3  C   UNL     1       9.785   0.027  23.294  0.00  0.00    +0.221 A 
ATOM      4  N   UNL     1       8.495   0.077  23.655  0.00  0.00    -0.196 NA
ATOM      5  C   UNL     1       7.869  -1.075  23.956  0.00  0.00    +0.148 A 
ATOM      6  C   UNL     1       8.505  -2.299  23.894  0.00  0.00    +0.037 A 
ATOM      7  C   UNL     1       7.811  -3.532  24.217  0.00  0.00    +0.027 A 
ATOM      8  C   UNL     1       6.532  -3.482  24.623  0.00  0.00    +0.050 A 
ATOM      9  C   UNL     1       5.812  -2.169  24.741  0.00  0.00    +0.260 A 
ATOM     10  O   UNL     1       4.651  -2.152  25.150  0.00  0.00    -0.267 OA
ATOM     11  C   UNL     1       9.825  -2.254  23.511  0.00  0.00    +0.126 A 
ATOM     12  N   UNL     1       6.511  -1.032  24.364  0.00  0.00    -0.295 N 
ATOM     13  C   UNL     1       5.863   0.268  24.413  0.00  0.00    +0.154 C 
ATOM     14  N   UNL     1      10.476  -1.118  23.196  0.00  0.00    -0.222 NA
ENDROOT
BRANCH   8  15
ATOM     15  C   UNL     1       5.822  -4.734  24.950  0.00  0.00    +0.024 A 
ATOM     16  C   UNL     1       5.748  -5.197  26.276  0.00  0.00    +0.050 A 
ATOM     17 CL   UNL     1       6.430  -4.303  27.596  0.00  0.00    -0.083 Cl
ATOM     18  C   UNL     1       5.097  -6.395  26.583  0.00  0.00    +0.021 A 
ATOM     19  C   UNL     1       4.502  -7.147  25.572  0.00  0.00    +0.003 A 
ATOM     20  C   UNL     1       4.555  -6.699  24.255  0.00  0.00    +0.021 A 
ATOM     21  C   UNL     1       5.211  -5.502  23.944  0.00  0.00    +0.050 A 
ATOM     22 CL   UNL     1       5.220  -5.012  22.282  0.00  0.00    -0.083 Cl
ENDBRANCH   8  15
BRANCH   1  25
ATOM     23  C   UNL     1      11.049   4.803  23.747  0.00  0.00    +0.009 A 
ATOM     24  C   UNL     1      11.294   3.486  23.343  0.00  0.00    +0.038 A 
ATOM     25  C   UNL     1      10.273   2.531  23.299  0.00  0.00    +0.035 A 
ATOM     26  C   UNL     1       8.984   2.938  23.675  0.00  0.00    +0.023 A 
ATOM     27  C   UNL     1       8.721   4.258  24.053  0.00  0.00    +0.003 A 
ATOM     28  C   UNL     1       9.756   5.191  24.089  0.00  0.00    +0.015 A 
BRANCH  23  30
ATOM     29  C   UNL     1      13.208   5.554  22.290  0.00  0.00    +0.090 C 
ATOM     30  S   UNL     1      12.401   5.958  23.863  0.00  0.00    -0.129 S 
ENDBRANCH  23  30
ENDBRANCH   1  25
TORSDOF 3
ENDMDL
MODEL 3
REMARK VINA RESULT:      -8.0      1.215      2.459
REMARK  Name = 
REMARK  5 active torsions:
REMARK  status: ('A' for Active; 'I' for Inactive)
REMARK    1  A    between atoms: C_1  and  S_2
REMARK    2  A    between atoms: S_2  and  C_3
REMARK    3  A    between atoms: C_7  and  N_8
REMARK    4  A    between atoms: C_14  and  C_21
REMARK    5  A    between atoms: N_17  and  C_18
REMARK                            x       y       z     vdW  Elec       q    Type
REMARK                         _______ _______ _______ _____ _____    ______ ____
ROOT
ATOM      1  N   UNL     1      10.525   1.630  22.816  0.00  0.00    -0.284 N 
ATOM      2  H   UNL     1      11.447   1.402  22.473  0.00  0.00    +0.155 HD
ATOM      3  C   UNL     1       9.837   0.456  23.116  0.00  0.00    +0.221 A 
ATOM      4  N   UNL     1       8.561   0.482  23.524  0.00  0.00    -0.196 NA
ATOM      5  C   UNL     1       7.955  -0.685  23.807  0.00  0.00    +0.148 A 
ATOM      6  C   UNL     1       8.599  -1.901  23.682  0.00  0.00    +0.037 A 
ATOM      7  C   UNL     1       7.927  -3.150  23.987  0.00  0.00    +0.027 A 
ATOM      8  C   UNL     1       6.663  -3.126  24.440  0.00  0.00    +0.050 A 
ATOM      9  C   UNL     1       5.937  -1.824  24.627  0.00  0.00    +0.260 A 
ATOM     10  O   UNL     1       4.792  -1.832  25.078  0.00  0.00    -0.267 OA
ATOM     11  C   UNL     1       9.904  -1.830  23.254  0.00  0.00    +0.126 A 
ATOM     12  N   UNL     1       6.613  -0.669  24.265  0.00  0.00    -0.295 N 
ATOM     13  C   UNL     1       5.956   0.622  24.381  0.00  0.00    +0.154 C 
ATOM     14  N   UNL     1      10.534  -0.678  22.954  0.00  0.00    -0.222 NA
ENDROOT
BRANCH   8  15
ATOM     15  C   UNL     1       5.976  -4.394  24.749  0.00  0.00    +0.024 A 
ATOM     16  C   UNL     1       5.938  -4.894  26.063  0.00  0.00    +0.050 A 
ATOM     17 CL   UNL     1       6.640  -4.026  27.391  0.00  0.00    -0.083 Cl
ATOM     18  C   UNL     1       5.308  -6.108  26.353  0.00  0.00    +0.021 A 
ATOM     19  C   UNL     1       4.699  -6.840  25.337  0.00  0.00    +0.003 A 
ATOM     20  C   UNL     1       4.716  -6.356  24.031  0.00  0.00    +0.021 A 
ATOM     21  C   UNL     1       5.351  -5.144  23.737  0.00  0.00    +0.050 A 
ATOM     22 CL   UNL     1       5.316  -4.610  22.089  0.00  0.00    -0.083 Cl
ENDBRANCH   8  15
BRANCH   1  25
ATOM     23  C   UNL     1       8.852   4.887  23.580  0.00  0.00    +0.009 A 
ATOM     24  C   UNL     1       9.030   3.531  23.288  0.00  0.00    +0.038 A 
ATOM     25  C   UNL     1      10.305   2.963  23.188  0.00  0.00    +0.035 A 
ATOM     26  C   UNL     1      11.410   3.804  23.393  0.00  0.00    +0.023 A 
ATOM     27  C   UNL     1      11.243   5.155  23.714  0.00  0.00    +0.003 A 
ATOM     28  C   UNL     1       9.962   5.696  23.806  0.00  0.00    +0.015 A 
BRANCH  23  30
ATOM     29  C   UNL     1       7.208   6.304  21.955  0.00  0.00    +0.090 C 
ATOM     30  S   UNL     1       7.209   5.575  23.616  0.00  0.00    -0.129 S 
ENDBRANCH  23  30
ENDBRANCH   1  25
TORSDOF 3
ENDMDL
MODEL 4
REMARK VINA RESULT:      -7.6      4.244      9.061
REMARK  Name = 
REMARK  5 active torsions:
REMARK  status: ('A' for Active; 'I' for Inactive)
REMARK    1  A    between atoms: C_1  and  S_2
REMARK    2  A    between atoms: S_2  and  C_3
REMARK    3  A    between atoms: C_7  and  N_8
REMARK    4  A    between atoms: C_14  and  C_21
REMARK    5  A    between atoms: N_17  and  C_18
REMARK                            x       y       z     vdW  Elec       q    Type
REMARK                         _______ _______ _______ _____ _____    ______ ____
ROOT
ATOM      1  N   UNL     1       8.226  -3.813  23.638  0.00  0.00    -0.284 N 
ATOM      2  H   UNL     1       8.499  -4.278  22.785  0.00  0.00    +0.155 HD
ATOM      3  C   UNL     1       8.346  -2.435  23.474  0.00  0.00    +0.221 A 
ATOM      4  N   UNL     1       8.112  -1.589  24.487  0.00  0.00    -0.196 NA
ATOM      5  C   UNL     1       8.235  -0.269  24.261  0.00  0.00    +0.148 A 
ATOM      6  C   UNL     1       8.604   0.239  23.030  0.00  0.00    +0.037 A 
ATOM      7  C   UNL     1       8.738   1.667  22.808  0.00  0.00    +0.027 A 
ATOM      8  C   UNL     1       8.459   2.519  23.807  0.00  0.00    +0.050 A 
ATOM      9  C   UNL     1       8.018   2.013  25.151  0.00  0.00    +0.260 A 
ATOM     10  O   UNL     1       7.735   2.819  26.037  0.00  0.00    -0.267 OA
ATOM     11  C   UNL     1       8.828  -0.703  22.053  0.00  0.00    +0.126 A 
ATOM     12  N   UNL     1       7.964   0.637  25.318  0.00  0.00    -0.295 N 
ATOM     13  C   UNL     1       7.585   0.077  26.605  0.00  0.00    +0.154 C 
ATOM     14  N   UNL     1       8.721  -2.030  22.251  0.00  0.00    -0.222 NA
ENDROOT
BRANCH   8  15
ATOM     15  C   UNL     1       8.596   3.971  23.585  0.00  0.00    +0.024 A 
ATOM     16  C   UNL     1       9.860   4.587  23.589  0.00  0.00    +0.050 A 
ATOM     17 CL   UNL     1      11.320   3.675  23.794  0.00  0.00    -0.083 Cl
ATOM     18  C   UNL     1       9.988   5.967  23.404  0.00  0.00    +0.021 A 
ATOM     19  C   UNL     1       8.856   6.754  23.203  0.00  0.00    +0.003 A 
ATOM     20  C   UNL     1       7.596   6.161  23.186  0.00  0.00    +0.021 A 
ATOM     21  C   UNL     1       7.465   4.780  23.376  0.00  0.00    +0.050 A 
ATOM     22 CL   UNL     1       5.863   4.122  23.328  0.00  0.00    -0.083 Cl
ENDBRANCH   8  15
BRANCH   1  25
ATOM     23  C   UNL     1       5.630  -5.931  25.300  0.00  0.00    +0.009 A 
ATOM     24  C   UNL     1       6.333  -5.240  24.308  0.00  0.00    +0.038 A 
ATOM     25  C   UNL     1       7.537  -4.584  24.584  0.00  0.00    +0.035 A 
ATOM     26  C   UNL     1       8.023  -4.642  25.899  0.00  0.00    +0.023 A 
ATOM     27  C   UNL     1       7.344  -5.354  26.893  0.00  0.00    +0.003 A 
ATOM     28  C   UNL     1       6.145  -5.999  26.592  0.00  0.00    +0.015 A 
BRANCH  23  30
ATOM     29  C   UNL     1       3.822  -5.930  23.279  0.00  0.00    +0.090 C 
ATOM     30  S   UNL     1       4.061  -6.681  24.912  0.00  0.00    -0.129 S 
ENDBRANCH  23  30
ENDBRANCH   1  25
TORSDOF 3
ENDMDL
MODEL 5
REMARK VINA RESULT:      -7.5      4.251      9.019
REMARK  Name = 
REMARK  5 active torsions:
REMARK  status: ('A' for Active; 'I' for Inactive)
REMARK    1  A    between atoms: C_1  and  S_2
REMARK    2  A    between atoms: S_2  and  C_3
REMARK    3  A    between atoms: C_7  and  N_8
REMARK    4  A    between atoms: C_14  and  C_21
REMARK    5  A    between atoms: N_17  and  C_18
REMARK                            x       y       z     vdW  Elec       q    Type
REMARK                         _______ _______ _______ _____ _____    ______ ____
ROOT
ATOM      1  N   UNL     1       8.139  -3.822  23.538  0.00  0.00    -0.284 N 
ATOM      2  H   UNL     1       8.390  -4.273  22.670  0.00  0.00    +0.155 HD
ATOM      3  C   UNL     1       8.271  -2.442  23.399  0.00  0.00    +0.221 A 
ATOM      4  N   UNL     1       8.066  -1.615  24.434  0.00  0.00    -0.196 NA
ATOM      5  C   UNL     1       8.199  -0.292  24.232  0.00  0.00    +0.148 A 
ATOM      6  C   UNL     1       8.549   0.237  23.005  0.00  0.00    +0.037 A 
ATOM      7  C   UNL     1       8.694   1.668  22.810  0.00  0.00    +0.027 A 
ATOM      8  C   UNL     1       8.445   2.502  23.831  0.00  0.00    +0.050 A 
ATOM      9  C   UNL     1       8.025   1.973  25.173  0.00  0.00    +0.260 A 
ATOM     10  O   UNL     1       7.768   2.764  26.080  0.00  0.00    -0.267 OA
ATOM     11  C   UNL     1       8.743  -0.686  22.005  0.00  0.00    +0.126 A 
ATOM     12  N   UNL     1       7.959   0.595  25.313  0.00  0.00    -0.295 N 
ATOM     13  C   UNL     1       7.599   0.013  26.595  0.00  0.00    +0.154 C 
ATOM     14  N   UNL     1       8.625  -2.017  22.178  0.00  0.00    -0.222 NA
ENDROOT
BRANCH   8  15
ATOM     15  C   UNL     1       8.593   3.957  23.636  0.00  0.00    +0.024 A 
ATOM     16  C   UNL     1       7.465   4.787  23.506  0.00  0.00    +0.050 A 
ATOM     17 CL   UNL     1       5.852   4.162  23.625  0.00  0.00    -0.083 Cl
ATOM     18  C   UNL     1       7.605   6.162  23.296  0.00  0.00    +0.021 A 
ATOM     19  C   UNL     1       8.874   6.733  23.221  0.00  0.00    +0.003 A 
ATOM     20  C   UNL     1      10.002   5.929  23.359  0.00  0.00    +0.021 A 
ATOM     21  C   UNL     1       9.865   4.551  23.563  0.00  0.00    +0.050 A 
ATOM     22 CL   UNL     1      11.320   3.627  23.735  0.00  0.00    -0.083 Cl
ENDBRANCH   8  15
BRANCH   1  25
ATOM     23  C   UNL     1       5.534  -5.910  25.225  0.00  0.00    +0.009 A 
ATOM     24  C   UNL     1       6.221  -5.205  24.231  0.00  0.00    +0.038 A 
ATOM     25  C   UNL     1       7.460  -4.605  24.481  0.00  0.00    +0.035 A 
ATOM     26  C   UNL     1       7.997  -4.734  25.771  0.00  0.00    +0.023 A 
ATOM     27  C   UNL     1       7.333  -5.461  26.764  0.00  0.00    +0.003 A 
ATOM     28  C   UNL     1       6.099  -6.048  26.490  0.00  0.00    +0.015 A 
BRANCH  23  30
ATOM     29  C   UNL     1       3.586  -5.654  23.357  0.00  0.00    +0.090 C 
ATOM     30  S   UNL     1       3.923  -6.586  24.876  0.00  0.00    -0.129 S 
ENDBRANCH  23  30
ENDBRANCH   1  25
TORSDOF 3
ENDMDL
MODEL 6
REMARK VINA RESULT:      -7.3      4.050      8.985
REMARK  Name = 
REMARK  5 active torsions:
REMARK  status: ('A' for Active; 'I' for Inactive)
REMARK    1  A    between atoms: C_1  and  S_2
REMARK    2  A    between atoms: S_2  and  C_3
REMARK    3  A    between atoms: C_7  and  N_8
REMARK    4  A    between atoms: C_14  and  C_21
REMARK    5  A    between atoms: N_17  and  C_18
REMARK                            x       y       z     vdW  Elec       q    Type
REMARK                         _______ _______ _______ _____ _____    ______ ____
ROOT
ATOM      1  N   UNL     1       6.036  -5.645  23.717  0.00  0.00    -0.284 N 
ATOM      2  H   UNL     1       6.193  -6.175  22.872  0.00  0.00    +0.155 HD
ATOM      3  C   UNL     1       6.585  -4.373  23.576  0.00  0.00    +0.221 A 
ATOM      4  N   UNL     1       6.575  -3.494  24.587  0.00  0.00    -0.196 NA
ATOM      5  C   UNL     1       7.112  -2.277  24.384  0.00  0.00    +0.148 A 
ATOM      6  C   UNL     1       7.679  -1.912  23.178  0.00  0.00    +0.037 A 
ATOM      7  C   UNL     1       8.259  -0.597  22.980  0.00  0.00    +0.027 A 
ATOM      8  C   UNL     1       8.209   0.302  23.975  0.00  0.00    +0.050 A 
ATOM      9  C   UNL     1       7.568  -0.038  25.290  0.00  0.00    +0.260 A 
ATOM     10  O   UNL     1       7.506   0.819  26.172  0.00  0.00    -0.267 OA
ATOM     11  C   UNL     1       7.648  -2.879  22.201  0.00  0.00    +0.126 A 
ATOM     12  N   UNL     1       7.083  -1.329  25.438  0.00  0.00    -0.295 N 
ATOM     13  C   UNL     1       6.487  -1.740  26.698  0.00  0.00    +0.154 C 
ATOM     14  N   UNL     1       7.125  -4.108  22.377  0.00  0.00    -0.222 NA
ENDROOT
BRANCH   8  15
ATOM     15  C   UNL     1       8.800   1.641  23.778  0.00  0.00    +0.024 A 
ATOM     16  C   UNL     1       8.005   2.729  23.376  0.00  0.00    +0.050 A 
ATOM     17 CL   UNL     1       6.293   2.575  23.147  0.00  0.00    -0.083 Cl
ATOM     18  C   UNL     1       8.568   3.991  23.165  0.00  0.00    +0.021 A 
ATOM     19  C   UNL     1       9.933   4.190  23.360  0.00  0.00    +0.003 A 
ATOM     20  C   UNL     1      10.734   3.127  23.770  0.00  0.00    +0.021 A 
ATOM     21  C   UNL     1      10.174   1.861  23.976  0.00  0.00    +0.050 A 
ATOM     22 CL   UNL     1      11.240   0.598  24.496  0.00  0.00    -0.083 Cl
ENDBRANCH   8  15
BRANCH   1  25
ATOM     23  C   UNL     1       4.354  -6.743  26.872  0.00  0.00    +0.009 A 
ATOM     24  C   UNL     1       5.274  -6.142  26.007  0.00  0.00    +0.038 A 
ATOM     25  C   UNL     1       5.097  -6.162  24.619  0.00  0.00    +0.035 A 
ATOM     26  C   UNL     1       3.957  -6.809  24.118  0.00  0.00    +0.023 A 
ATOM     27  C   UNL     1       3.015  -7.388  24.975  0.00  0.00    +0.003 A 
ATOM     28  C   UNL     1       3.216  -7.355  26.354  0.00  0.00    +0.015 A 
BRANCH  23  30
ATOM     29  C   UNL     1       6.338  -6.048  28.585  0.00  0.00    +0.090 C 
ATOM     30  S   UNL     1       4.670  -6.758  28.626  0.00  0.00    -0.129 S 
ENDBRANCH  23  30
ENDBRANCH   1  25
TORSDOF 3
ENDMDL
MODEL 7
REMARK VINA RESULT:      -7.2      4.303      9.295
REMARK  Name = 
REMARK  5 active torsions:
REMARK  status: ('A' for Active; 'I' for Inactive)
REMARK    1  A    between atoms: C_1  and  S_2
REMARK    2  A    between atoms: S_2  and  C_3
REMARK    3  A    between atoms: C_7  and  N_8
REMARK    4  A    between atoms: C_14  and  C_21
REMARK    5  A    between atoms: N_17  and  C_18
REMARK                            x       y       z     vdW  Elec       q    Type
REMARK                         _______ _______ _______ _____ _____    ______ ____
ROOT
ATOM      1  N   UNL     1       6.075  -5.664  23.655  0.00  0.00    -0.284 N 
ATOM      2  H   UNL     1       6.298  -6.200  22.829  0.00  0.00    +0.155 HD
ATOM      3  C   UNL     1       6.591  -4.376  23.526  0.00  0.00    +0.221 A 
ATOM      4  N   UNL     1       6.493  -3.484  24.521  0.00  0.00    -0.196 NA
ATOM      5  C   UNL     1       7.002  -2.253  24.330  0.00  0.00    +0.148 A 
ATOM      6  C   UNL     1       7.627  -1.886  23.154  0.00  0.00    +0.037 A 
ATOM      7  C   UNL     1       8.175  -0.555  22.970  0.00  0.00    +0.027 A 
ATOM      8  C   UNL     1       8.039   0.355  23.947  0.00  0.00    +0.050 A 
ATOM      9  C   UNL     1       7.333   0.012  25.227  0.00  0.00    +0.260 A 
ATOM     10  O   UNL     1       7.191   0.879  26.090  0.00  0.00    -0.267 OA
ATOM     11  C   UNL     1       7.684  -2.867  22.192  0.00  0.00    +0.126 A 
ATOM     12  N   UNL     1       6.881  -1.292  25.366  0.00  0.00    -0.295 N 
ATOM     13  C   UNL     1       6.225  -1.705  26.596  0.00  0.00    +0.154 C 
ATOM     14  N   UNL     1       7.192  -4.110  22.357  0.00  0.00    -0.222 NA
ENDROOT
BRANCH   8  15
ATOM     15  C   UNL     1       8.597   1.709  23.763  0.00  0.00    +0.024 A 
ATOM     16  C   UNL     1       9.948   1.978  24.041  0.00  0.00    +0.050 A 
ATOM     17 CL   UNL     1      11.040   0.732  24.554  0.00  0.00    -0.083 Cl
ATOM     18  C   UNL     1      10.471   3.265  23.892  0.00  0.00    +0.021 A 
ATOM     19  C   UNL     1       9.654   4.306  23.454  0.00  0.00    +0.003 A 
ATOM     20  C   UNL     1       8.316   4.057  23.164  0.00  0.00    +0.021 A 
ATOM     21  C   UNL     1       7.788   2.770  23.318  0.00  0.00    +0.050 A 
ATOM     22 CL   UNL     1       6.116   2.546  22.923  0.00  0.00    -0.083 Cl
ENDBRANCH   8  15
BRANCH   1  25
ATOM     23  C   UNL     1       2.852  -7.029  24.972  0.00  0.00    +0.009 A 
ATOM     24  C   UNL     1       3.826  -6.578  24.076  0.00  0.00    +0.038 A 
ATOM     25  C   UNL     1       5.101  -6.198  24.509  0.00  0.00    +0.035 A 
ATOM     26  C   UNL     1       5.376  -6.287  25.882  0.00  0.00    +0.023 A 
ATOM     27  C   UNL     1       4.419  -6.765  26.784  0.00  0.00    +0.003 A 
ATOM     28  C   UNL     1       3.155  -7.135  26.327  0.00  0.00    +0.015 A 
BRANCH  23  30
ATOM     29  C   UNL     1       1.528  -7.166  22.610  0.00  0.00    +0.090 C 
ATOM     30  S   UNL     1       1.219  -7.422  24.378  0.00  0.00    -0.129 S 
ENDBRANCH  23  30
ENDBRANCH   1  25
TORSDOF 3
ENDMDL
MODEL 8
REMARK VINA RESULT:      -7.2      4.043      9.040
REMARK  Name = 
REMARK  5 active torsions:
REMARK  status: ('A' for Active; 'I' for Inactive)
REMARK    1  A    between atoms: C_1  and  S_2
REMARK    2  A    between atoms: S_2  and  C_3
REMARK    3  A    between atoms: C_7  and  N_8
REMARK    4  A    between atoms: C_14  and  C_21
REMARK    5  A    between atoms: N_17  and  C_18
REMARK                            x       y       z     vdW  Elec       q    Type
REMARK                         _______ _______ _______ _____ _____    ______ ____
ROOT
ATOM      1  N   UNL     1       6.267  -5.458  23.721  0.00  0.00    -0.284 N 
ATOM      2  H   UNL     1       6.449  -5.976  22.874  0.00  0.00    +0.155 HD
ATOM      3  C   UNL     1       6.750  -4.158  23.582  0.00  0.00    +0.221 A 
ATOM      4  N   UNL     1       6.697  -3.283  24.597  0.00  0.00    -0.196 NA
ATOM      5  C   UNL     1       7.169  -2.040  24.395  0.00  0.00    +0.148 A 
ATOM      6  C   UNL     1       7.713  -1.643  23.189  0.00  0.00    +0.037 A 
ATOM      7  C   UNL     1       8.223  -0.298  22.994  0.00  0.00    +0.027 A 
ATOM      8  C   UNL     1       8.131   0.594  23.992  0.00  0.00    +0.050 A 
ATOM      9  C   UNL     1       7.512   0.217  25.308  0.00  0.00    +0.260 A 
ATOM     10  O   UNL     1       7.408   1.067  26.192  0.00  0.00    -0.267 OA
ATOM     11  C   UNL     1       7.729  -2.607  22.209  0.00  0.00    +0.126 A 
ATOM     12  N   UNL     1       7.095  -1.098  25.453  0.00  0.00    -0.295 N 
ATOM     13  C   UNL     1       6.525  -1.543  26.714  0.00  0.00    +0.154 C 
ATOM     14  N   UNL     1       7.272  -3.862  22.383  0.00  0.00    -0.222 NA
ENDROOT
BRANCH   8  15
ATOM     15  C   UNL     1       8.650   1.962  23.798  0.00  0.00    +0.024 A 
ATOM     16  C   UNL     1      10.013   2.251  23.987  0.00  0.00    +0.050 A 
ATOM     17 CL   UNL     1      11.160   1.017  24.400  0.00  0.00    -0.083 Cl
ATOM     18  C   UNL     1      10.501   3.551  23.828  0.00  0.00    +0.021 A 
ATOM     19  C   UNL     1       9.637   4.583  23.468  0.00  0.00    +0.003 A 
ATOM     20  C   UNL     1       8.286   4.315  23.265  0.00  0.00    +0.021 A 
ATOM     21  C   UNL     1       7.794   3.015  23.429  0.00  0.00    +0.050 A 
ATOM     22 CL   UNL     1       6.103   2.765  23.146  0.00  0.00    -0.083 Cl
ENDBRANCH   8  15
BRANCH   1  25
ATOM     23  C   UNL     1       4.685  -6.714  26.869  0.00  0.00    +0.009 A 
ATOM     24  C   UNL     1       5.574  -6.064  26.006  0.00  0.00    +0.038 A 
ATOM     25  C   UNL     1       5.359  -6.025  24.624  0.00  0.00    +0.035 A 
ATOM     26  C   UNL     1       4.212  -6.662  24.126  0.00  0.00    +0.023 A 
ATOM     27  C   UNL     1       3.301  -7.290  24.981  0.00  0.00    +0.003 A 
ATOM     28  C   UNL     1       3.539  -7.316  26.354  0.00  0.00    +0.015 A 
BRANCH  23  30
ATOM     29  C   UNL     1       4.796  -5.052  29.008  0.00  0.00    +0.090 C 
ATOM     30  S   UNL     1       5.049  -6.803  28.611  0.00  0.00    -0.129 S 
ENDBRANCH  23  30
ENDBRANCH   1  25
TORSDOF 3
ENDMDL
MODEL 9
REMARK VINA RESULT:      -7.2      4.303      9.212
REMARK  Name = 
REMARK  5 active torsions:
REMARK  status: ('A' for Active; 'I' for Inactive)
REMARK    1  A    between atoms: C_1  and  S_2
REMARK    2  A    between atoms: S_2  and  C_3
REMARK    3  A    between atoms: C_7  and  N_8
REMARK    4  A    between atoms: C_14  and  C_21
REMARK    5  A    between atoms: N_17  and  C_18
REMARK                            x       y       z     vdW  Elec       q    Type
REMARK                         _______ _______ _______ _____ _____    ______ ____
ROOT
ATOM      1  N   UNL     1       6.216  -6.049  28.051  0.00  0.00    -0.284 N 
ATOM      2  H   UNL     1       6.931  -6.681  28.381  0.00  0.00    +0.155 HD
ATOM      3  C   UNL     1       6.806  -5.026  27.312  0.00  0.00    +0.221 A 
ATOM      4  N   UNL     1       6.078  -4.013  26.821  0.00  0.00    -0.196 NA
ATOM      5  C   UNL     1       6.705  -3.061  26.107  0.00  0.00    +0.148 A 
ATOM      6  C   UNL     1       8.067  -3.089  25.874  0.00  0.00    +0.037 A 
ATOM      7  C   UNL     1       8.725  -2.049  25.106  0.00  0.00    +0.027 A 
ATOM      8  C   UNL     1       7.994  -1.058  24.574  0.00  0.00    +0.050 A 
ATOM      9  C   UNL     1       6.505  -1.009  24.769  0.00  0.00    +0.260 A 
ATOM     10  O   UNL     1       5.856  -0.107  24.239  0.00  0.00    -0.267 OA
ATOM     11  C   UNL     1       8.731  -4.162  26.419  0.00  0.00    +0.126 A 
ATOM     12  N   UNL     1       5.942  -1.999  25.560  0.00  0.00    -0.295 N 
ATOM     13  C   UNL     1       4.513  -1.989  25.826  0.00  0.00    +0.154 C 
ATOM     14  N   UNL     1       8.133  -5.126  27.146  0.00  0.00    -0.222 NA
ENDROOT
BRANCH   8  15
ATOM     15  C   UNL     1       8.661   0.002  23.793  0.00  0.00    +0.024 A 
ATOM     16  C   UNL     1       9.164  -0.256  22.506  0.00  0.00    +0.050 A 
ATOM     17 CL   UNL     1       8.980  -1.804  21.747  0.00  0.00    -0.083 Cl
ATOM     18  C   UNL     1       9.818   0.741  21.776  0.00  0.00    +0.021 A 
ATOM     19  C   UNL     1       9.974   2.015  22.317  0.00  0.00    +0.003 A 
ATOM     20  C   UNL     1       9.472   2.294  23.585  0.00  0.00    +0.021 A 
ATOM     21  C   UNL     1       8.822   1.296  24.321  0.00  0.00    +0.050 A 
ATOM     22 CL   UNL     1       8.218   1.730  25.885  0.00  0.00    -0.083 Cl
ENDBRANCH   8  15
BRANCH   1  25
ATOM     23  C   UNL     1       2.721  -7.020  27.141  0.00  0.00    +0.009 A 
ATOM     24  C   UNL     1       4.063  -6.648  27.014  0.00  0.00    +0.038 A 
ATOM     25  C   UNL     1       4.892  -6.500  28.131  0.00  0.00    +0.035 A 
ATOM     26  C   UNL     1       4.331  -6.740  29.395  0.00  0.00    +0.023 A 
ATOM     27  C   UNL     1       2.997  -7.140  29.532  0.00  0.00    +0.003 A 
ATOM     28  C   UNL     1       2.192  -7.279  28.403  0.00  0.00    +0.015 A 
BRANCH  23  30
ATOM     29  C   UNL     1       2.991  -7.476  24.482  0.00  0.00    +0.090 C 
ATOM     30  S   UNL     1       1.689  -7.115  25.692  0.00  0.00    -0.129 S 
ENDBRANCH  23  30
ENDBRANCH   1  25
TORSDOF 3
ENDMDL
