MODEL 1
REMARK VINA RESULT:      -5.6      0.000      0.000
REMARK  Name = 
REMARK  5 active torsions:
REMARK  status: ('A' for Active; 'I' for Inactive)
REMARK    1  A    between atoms: P_2  and  O_3
REMARK    2  A    between atoms: P_2  and  C_5
REMARK    3  A    between atoms: C_5  and  N_6
REMARK    4  A    between atoms: C_7  and  C_9
REMARK    5  A    between atoms: C_9  and  C_10
REMARK                            x       y       z     vdW  Elec       q    Type
REMARK                         _______ _______ _______ _____ _____    ______ ____
ROOT
ATOM      1  N   UNL     1       8.173  -2.370  22.990  0.00  0.00    -0.306 N 
ATOM      2  H   UNL     1       7.871  -1.719  22.269  0.00  0.00    +0.149 HD
ATOM      3  C   UNL     1       9.503  -2.530  23.292  0.00  0.00    +0.218 C 
ATOM      4  O   UNL     1       9.907  -3.385  24.077  0.00  0.00    -0.275 OA
ENDROOT
BRANCH   1   5
ATOM      5  C   UNL     1       7.166  -3.314  23.442  0.00  0.00    +0.198 C 
BRANCH   5   7
ATOM      6  H   UNL     1       7.674  -4.072  21.272  0.00  0.00    +0.129 HD
ATOM      7  P   UNL     1       6.539  -4.342  22.065  0.00  0.00    +0.207 P 
ATOM      8  O   UNL     1       5.301  -3.441  21.888  0.00  0.00    -0.293 OA
BRANCH   7   9
ATOM      9  O   UNL     1       5.947  -5.314  20.762  0.00  0.00    -0.345 OA
ATOM     10  H   UNL     1       4.992  -5.451  20.951  0.00  0.00    +0.217 HD
ENDBRANCH   7   9
ENDBRANCH   5   7
ENDBRANCH   1   5
BRANCH   3  11
ATOM     11  C   UNL     1      10.440  -1.565  22.587  0.00  0.00    +0.130 C 
BRANCH  11  12
ATOM     12  C   UNL     1      10.145  -0.119  22.897  0.00  0.00    -0.039 A 
ATOM     13  C   UNL     1       9.716   0.754  21.888  0.00  0.00    +0.005 A 
ATOM     14  C   UNL     1       9.427   2.089  22.180  0.00  0.00    +0.014 A 
ATOM     15  C   UNL     1       9.570   2.561  23.484  0.00  0.00    +0.013 A 
ATOM     16  I   UNL     1       9.100   4.535  23.927  0.00  0.00    -0.044 I 
ATOM     17  C   UNL     1      10.020   1.711  24.494  0.00  0.00    +0.014 A 
ATOM     18  C   UNL     1      10.313   0.378  24.199  0.00  0.00    +0.005 A 
ENDBRANCH  11  12
ENDBRANCH   3  11
TORSDOF 5
ENDMDL
MODEL 2
REMARK VINA RESULT:      -5.4      5.618      7.222
REMARK  Name = 
REMARK  5 active torsions:
REMARK  status: ('A' for Active; 'I' for Inactive)
REMARK    1  A    between atoms: P_2  and  O_3
REMARK    2  A    between atoms: P_2  and  C_5
REMARK    3  A    between atoms: C_5  and  N_6
REMARK    4  A    between atoms: C_7  and  C_9
REMARK    5  A    between atoms: C_9  and  C_10
REMARK                            x       y       z     vdW  Elec       q    Type
REMARK                         _______ _______ _______ _____ _____    ______ ____
ROOT
ATOM      1  N   UNL     1      10.429   3.273  22.671  0.00  0.00    -0.306 N 
ATOM      2  H   UNL     1       9.948   3.545  21.817  0.00  0.00    +0.149 HD
ATOM      3  C   UNL     1      10.437   1.967  23.097  0.00  0.00    +0.218 C 
ATOM      4  O   UNL     1      10.914   1.626  24.177  0.00  0.00    -0.275 OA
ENDROOT
BRANCH   1   5
ATOM      5  C   UNL     1      10.823   4.366  23.542  0.00  0.00    +0.198 C 
BRANCH   5   7
ATOM      6  H   UNL     1      13.029   3.595  23.828  0.00  0.00    +0.129 HD
ATOM      7  P   UNL     1      12.578   4.823  23.299  0.00  0.00    +0.207 P 
ATOM      8  O   UNL     1      12.452   6.021  24.260  0.00  0.00    -0.293 OA
BRANCH   7   9
ATOM      9  O   UNL     1      14.237   5.254  23.070  0.00  0.00    -0.345 OA
ATOM     10  H   UNL     1      14.704   4.409  22.889  0.00  0.00    +0.217 HD
ENDBRANCH   7   9
ENDBRANCH   5   7
ENDBRANCH   1   5
BRANCH   3  11
ATOM     11  C   UNL     1       9.820   0.974  22.129  0.00  0.00    +0.130 C 
BRANCH  11  12
ATOM     12  C   UNL     1       9.355  -0.296  22.797  0.00  0.00    -0.039 A 
ATOM     13  C   UNL     1      10.234  -1.372  22.972  0.00  0.00    +0.005 A 
ATOM     14  C   UNL     1       9.807  -2.542  23.606  0.00  0.00    +0.014 A 
ATOM     15  C   UNL     1       8.495  -2.642  24.066  0.00  0.00    +0.013 A 
ATOM     16  I   UNL     1       7.872  -4.363  25.048  0.00  0.00    -0.044 I 
ATOM     17  C   UNL     1       7.601  -1.589  23.878  0.00  0.00    +0.014 A 
ATOM     18  C   UNL     1       8.029  -0.423  23.239  0.00  0.00    +0.005 A 
ENDBRANCH  11  12
ENDBRANCH   3  11
TORSDOF 5
ENDMDL
MODEL 3
REMARK VINA RESULT:      -5.4      2.025      2.752
REMARK  Name = 
REMARK  5 active torsions:
REMARK  status: ('A' for Active; 'I' for Inactive)
REMARK    1  A    between atoms: P_2  and  O_3
REMARK    2  A    between atoms: P_2  and  C_5
REMARK    3  A    between atoms: C_5  and  N_6
REMARK    4  A    between atoms: C_7  and  C_9
REMARK    5  A    between atoms: C_9  and  C_10
REMARK                            x       y       z     vdW  Elec       q    Type
REMARK                         _______ _______ _______ _____ _____    ______ ____
ROOT
ATOM      1  N   UNL     1       8.727  -3.283  24.195  0.00  0.00    -0.306 N 
ATOM      2  H   UNL     1       9.426  -3.196  24.929  0.00  0.00    +0.149 HD
ATOM      3  C   UNL     1       8.841  -2.583  23.019  0.00  0.00    +0.218 C 
ATOM      4  O   UNL     1       7.961  -2.581  22.161  0.00  0.00    -0.275 OA
ENDROOT
BRANCH   1   5
ATOM      5  C   UNL     1       7.486  -3.928  24.587  0.00  0.00    +0.198 C 
BRANCH   5   7
ATOM      6  H   UNL     1       7.763  -3.789  26.921  0.00  0.00    +0.129 HD
ATOM      7  P   UNL     1       7.696  -4.934  26.100  0.00  0.00    +0.207 P 
ATOM      8  O   UNL     1       9.019  -5.530  25.581  0.00  0.00    -0.293 OA
BRANCH   7   9
ATOM      9  O   UNL     1       7.895  -5.885  27.531  0.00  0.00    -0.345 OA
ATOM     10  H   UNL     1       7.326  -5.460  28.209  0.00  0.00    +0.217 HD
ENDBRANCH   7   9
ENDBRANCH   5   7
ENDBRANCH   1   5
BRANCH   3  11
ATOM     11  C   UNL     1      10.141  -1.816  22.854  0.00  0.00    +0.130 C 
BRANCH  11  12
ATOM     12  C   UNL     1       9.989  -0.332  23.079  0.00  0.00    -0.039 A 
ATOM     13  C   UNL     1       9.839   0.541  21.994  0.00  0.00    +0.005 A 
ATOM     14  C   UNL     1       9.681   1.913  22.204  0.00  0.00    +0.014 A 
ATOM     15  C   UNL     1       9.675   2.420  23.503  0.00  0.00    +0.013 A 
ATOM     16  I   UNL     1       9.397   4.454  23.818  0.00  0.00    -0.044 I 
ATOM     17  C   UNL     1       9.848   1.567  24.592  0.00  0.00    +0.014 A 
ATOM     18  C   UNL     1      10.011   0.196  24.379  0.00  0.00    +0.005 A 
ENDBRANCH  11  12
ENDBRANCH   3  11
TORSDOF 5
ENDMDL
MODEL 4
REMARK VINA RESULT:      -5.3      2.004      2.820
REMARK  Name = 
REMARK  5 active torsions:
REMARK  status: ('A' for Active; 'I' for Inactive)
REMARK    1  A    between atoms: P_2  and  O_3
REMARK    2  A    between atoms: P_2  and  C_5
REMARK    3  A    between atoms: C_5  and  N_6
REMARK    4  A    between atoms: C_7  and  C_9
REMARK    5  A    between atoms: C_9  and  C_10
REMARK                            x       y       z     vdW  Elec       q    Type
REMARK                         _______ _______ _______ _____ _____    ______ ____
ROOT
ATOM      1  N   UNL     1       9.327  -2.216  23.959  0.00  0.00    -0.306 N 
ATOM      2  H   UNL     1      10.038  -1.731  24.502  0.00  0.00    +0.149 HD
ATOM      3  C   UNL     1       9.064  -1.862  22.658  0.00  0.00    +0.218 C 
ATOM      4  O   UNL     1       8.141  -2.352  22.012  0.00  0.00    -0.275 OA
ENDROOT
BRANCH   1   5
ATOM      5  C   UNL     1       8.426  -3.062  24.721  0.00  0.00    +0.198 C 
BRANCH   5   7
ATOM      6  H   UNL     1      10.508  -4.100  25.084  0.00  0.00    +0.129 HD
ATOM      7  P   UNL     1       9.213  -4.652  25.170  0.00  0.00    +0.207 P 
ATOM      8  O   UNL     1       8.638  -5.348  23.922  0.00  0.00    -0.293 OA
BRANCH   7   9
ATOM      9  O   UNL     1       9.957  -6.154  25.596  0.00  0.00    -0.345 OA
ATOM     10  H   UNL     1      10.196  -6.068  26.544  0.00  0.00    +0.217 HD
ENDBRANCH   7   9
ENDBRANCH   5   7
ENDBRANCH   1   5
BRANCH   3  11
ATOM     11  C   UNL     1      10.006  -0.825  22.073  0.00  0.00    +0.130 C 
BRANCH  11  12
ATOM     12  C   UNL     1       9.668   0.585  22.489  0.00  0.00    -0.039 A 
ATOM     13  C   UNL     1      10.356   1.201  23.543  0.00  0.00    +0.005 A 
ATOM     14  C   UNL     1      10.054   2.513  23.917  0.00  0.00    +0.014 A 
ATOM     15  C   UNL     1       9.058   3.215  23.240  0.00  0.00    +0.013 A 
ATOM     16  I   UNL     1       8.638   5.180  23.766  0.00  0.00    -0.044 I 
ATOM     17  C   UNL     1       8.347   2.607  22.206  0.00  0.00    +0.014 A 
ATOM     18  C   UNL     1       8.648   1.294  21.837  0.00  0.00    +0.005 A 
ENDBRANCH  11  12
ENDBRANCH   3  11
TORSDOF 5
ENDMDL
MODEL 5
REMARK VINA RESULT:      -5.3      6.280      7.769
REMARK  Name = 
REMARK  5 active torsions:
REMARK  status: ('A' for Active; 'I' for Inactive)
REMARK    1  A    between atoms: P_2  and  O_3
REMARK    2  A    between atoms: P_2  and  C_5
REMARK    3  A    between atoms: C_5  and  N_6
REMARK    4  A    between atoms: C_7  and  C_9
REMARK    5  A    between atoms: C_9  and  C_10
REMARK                            x       y       z     vdW  Elec       q    Type
REMARK                         _______ _______ _______ _____ _____    ______ ____
ROOT
ATOM      1  N   UNL     1       9.713   4.905  23.152  0.00  0.00    -0.306 N 
ATOM      2  H   UNL     1      10.133   4.263  22.484  0.00  0.00    +0.149 HD
ATOM      3  C   UNL     1       8.350   4.971  23.314  0.00  0.00    +0.218 C 
ATOM      4  O   UNL     1       7.808   5.809  24.029  0.00  0.00    -0.275 OA
ENDROOT
BRANCH   1   5
ATOM      5  C   UNL     1      10.597   5.932  23.674  0.00  0.00    +0.198 C 
BRANCH   5   7
ATOM      6  H   UNL     1      12.080   4.108  23.534  0.00  0.00    +0.129 HD
ATOM      7  P   UNL     1      12.357   5.488  23.441  0.00  0.00    +0.207 P 
ATOM      8  O   UNL     1      12.767   6.232  24.727  0.00  0.00    -0.293 OA
BRANCH   7   9
ATOM      9  O   UNL     1      14.020   5.068  23.221  0.00  0.00    -0.345 OA
ATOM     10  H   UNL     1      14.103   4.815  22.276  0.00  0.00    +0.217 HD
ENDBRANCH   7   9
ENDBRANCH   5   7
ENDBRANCH   1   5
BRANCH   3  11
ATOM     11  C   UNL     1       7.564   3.922  22.547  0.00  0.00    +0.130 C 
BRANCH  11  12
ATOM     12  C   UNL     1       8.075   2.520  22.764  0.00  0.00    -0.039 A 
ATOM     13  C   UNL     1       8.016   1.929  24.033  0.00  0.00    +0.005 A 
ATOM     14  C   UNL     1       8.475   0.623  24.229  0.00  0.00    +0.014 A 
ATOM     15  C   UNL     1       8.999  -0.096  23.157  0.00  0.00    +0.013 A 
ATOM     16  I   UNL     1       9.641  -2.051  23.439  0.00  0.00    -0.044 I 
ATOM     17  C   UNL     1       9.088   0.487  21.894  0.00  0.00    +0.014 A 
ATOM     18  C   UNL     1       8.633   1.794  21.701  0.00  0.00    +0.005 A 
ENDBRANCH  11  12
ENDBRANCH   3  11
TORSDOF 5
ENDMDL
MODEL 6
REMARK VINA RESULT:      -5.2      1.268      1.878
REMARK  Name = 
REMARK  5 active torsions:
REMARK  status: ('A' for Active; 'I' for Inactive)
REMARK    1  A    between atoms: P_2  and  O_3
REMARK    2  A    between atoms: P_2  and  C_5
REMARK    3  A    between atoms: C_5  and  N_6
REMARK    4  A    between atoms: C_7  and  C_9
REMARK    5  A    between atoms: C_9  and  C_10
REMARK                            x       y       z     vdW  Elec       q    Type
REMARK                         _______ _______ _______ _____ _____    ______ ____
ROOT
ATOM      1  N   UNL     1       8.095  -2.128  22.995  0.00  0.00    -0.306 N 
ATOM      2  H   UNL     1       7.336  -1.637  22.530  0.00  0.00    +0.149 HD
ATOM      3  C   UNL     1       9.404  -1.918  22.635  0.00  0.00    +0.218 C 
ATOM      4  O   UNL     1      10.332  -2.574  23.100  0.00  0.00    -0.275 OA
ENDROOT
BRANCH   1   5
ATOM      5  C   UNL     1       7.698  -3.259  23.816  0.00  0.00    +0.198 C 
BRANCH   5   7
ATOM      6  H   UNL     1       5.997  -4.801  23.297  0.00  0.00    +0.129 HD
ATOM      7  P   UNL     1       7.315  -4.730  22.798  0.00  0.00    +0.207 P 
ATOM      8  O   UNL     1       8.401  -5.564  23.504  0.00  0.00    -0.293 OA
BRANCH   7   9
ATOM      9  O   UNL     1       6.952  -6.121  21.837  0.00  0.00    -0.345 OA
ATOM     10  H   UNL     1       6.588  -5.769  20.995  0.00  0.00    +0.217 HD
ENDBRANCH   7   9
ENDBRANCH   5   7
ENDBRANCH   1   5
BRANCH   3  11
ATOM     11  C   UNL     1       9.618  -0.806  21.624  0.00  0.00    +0.130 C 
BRANCH  11  12
ATOM     12  C   UNL     1       9.486   0.573  22.221  0.00  0.00    -0.039 A 
ATOM     13  C   UNL     1      10.322   0.978  23.270  0.00  0.00    +0.005 A 
ATOM     14  C   UNL     1      10.211   2.261  23.812  0.00  0.00    +0.014 A 
ATOM     15  C   UNL     1       9.258   3.146  23.309  0.00  0.00    +0.013 A 
ATOM     16  I   UNL     1       9.120   5.068  24.084  0.00  0.00    -0.044 I 
ATOM     17  C   UNL     1       8.402   2.749  22.282  0.00  0.00    +0.014 A 
ATOM     18  C   UNL     1       8.513   1.464  21.745  0.00  0.00    +0.005 A 
ENDBRANCH  11  12
ENDBRANCH   3  11
TORSDOF 5
ENDMDL
MODEL 7
REMARK VINA RESULT:      -5.1      3.735      4.522
REMARK  Name = 
REMARK  5 active torsions:
REMARK  status: ('A' for Active; 'I' for Inactive)
REMARK    1  A    between atoms: P_2  and  O_3
REMARK    2  A    between atoms: P_2  and  C_5
REMARK    3  A    between atoms: C_5  and  N_6
REMARK    4  A    between atoms: C_7  and  C_9
REMARK    5  A    between atoms: C_9  and  C_10
REMARK                            x       y       z     vdW  Elec       q    Type
REMARK                         _______ _______ _______ _____ _____    ______ ____
ROOT
ATOM      1  N   UNL     1       6.785  -4.179  26.154  0.00  0.00    -0.306 N 
ATOM      2  H   UNL     1       6.048  -4.100  25.457  0.00  0.00    +0.149 HD
ATOM      3  C   UNL     1       8.084  -4.435  25.788  0.00  0.00    +0.218 C 
ATOM      4  O   UNL     1       8.975  -4.644  26.609  0.00  0.00    -0.275 OA
ENDROOT
BRANCH   1   5
ATOM      5  C   UNL     1       6.335  -4.313  27.528  0.00  0.00    +0.198 C 
BRANCH   5   7
ATOM      6  H   UNL     1       4.645  -5.519  28.638  0.00  0.00    +0.129 HD
ATOM      7  P   UNL     1       5.730  -6.004  27.878  0.00  0.00    +0.207 P 
ATOM      8  O   UNL     1       7.029  -6.370  28.622  0.00  0.00    -0.293 OA
BRANCH   7   9
ATOM      9  O   UNL     1       5.157  -7.602  28.208  0.00  0.00    -0.345 OA
ATOM     10  H   UNL     1       4.732  -7.550  29.092  0.00  0.00    +0.217 HD
ENDBRANCH   7   9
ENDBRANCH   5   7
ENDBRANCH   1   5
BRANCH   3  11
ATOM     11  C   UNL     1       8.340  -4.431  24.292  0.00  0.00    +0.130 C 
BRANCH  11  12
ATOM     12  C   UNL     1       8.627  -3.055  23.742  0.00  0.00    -0.039 A 
ATOM     13  C   UNL     1       7.609  -2.302  23.142  0.00  0.00    +0.005 A 
ATOM     14  C   UNL     1       7.872  -1.021  22.648  0.00  0.00    +0.014 A 
ATOM     15  C   UNL     1       9.156  -0.489  22.749  0.00  0.00    +0.013 A 
ATOM     16  I   UNL     1       9.537   1.431  22.054  0.00  0.00    -0.044 I 
ATOM     17  C   UNL     1      10.185  -1.236  23.320  0.00  0.00    +0.014 A 
ATOM     18  C   UNL     1       9.921  -2.518  23.809  0.00  0.00    +0.005 A 
ENDBRANCH  11  12
ENDBRANCH   3  11
TORSDOF 5
ENDMDL
MODEL 8
REMARK VINA RESULT:      -5.0      3.557      4.826
REMARK  Name = 
REMARK  5 active torsions:
REMARK  status: ('A' for Active; 'I' for Inactive)
REMARK    1  A    between atoms: P_2  and  O_3
REMARK    2  A    between atoms: P_2  and  C_5
REMARK    3  A    between atoms: C_5  and  N_6
REMARK    4  A    between atoms: C_7  and  C_9
REMARK    5  A    between atoms: C_9  and  C_10
REMARK                            x       y       z     vdW  Elec       q    Type
REMARK                         _______ _______ _______ _____ _____    ______ ____
ROOT
ATOM      1  N   UNL     1       5.769  -5.627  24.398  0.00  0.00    -0.306 N 
ATOM      2  H   UNL     1       6.651  -5.841  24.857  0.00  0.00    +0.149 HD
ATOM      3  C   UNL     1       5.739  -5.031  23.161  0.00  0.00    +0.218 C 
ATOM      4  O   UNL     1       4.695  -4.661  22.629  0.00  0.00    -0.275 OA
ENDROOT
BRANCH   1   5
ATOM      5  C   UNL     1       4.590  -5.702  25.241  0.00  0.00    +0.198 C 
BRANCH   5   7
ATOM      6  H   UNL     1       4.068  -5.784  27.536  0.00  0.00    +0.129 HD
ATOM      7  P   UNL     1       4.925  -6.619  26.789  0.00  0.00    +0.207 P 
ATOM      8  O   UNL     1       6.422  -6.258  26.738  0.00  0.00    -0.293 OA
BRANCH   7   9
ATOM      9  O   UNL     1       5.241  -7.485  28.252  0.00  0.00    -0.345 OA
ATOM     10  H   UNL     1       4.360  -7.666  28.645  0.00  0.00    +0.217 HD
ENDBRANCH   7   9
ENDBRANCH   5   7
ENDBRANCH   1   5
BRANCH   3  11
ATOM     11  C   UNL     1       7.094  -4.870  22.494  0.00  0.00    +0.130 C 
BRANCH  11  12
ATOM     12  C   UNL     1       7.842  -3.645  22.959  0.00  0.00    -0.039 A 
ATOM     13  C   UNL     1       7.709  -2.428  22.278  0.00  0.00    +0.005 A 
ATOM     14  C   UNL     1       8.389  -1.290  22.719  0.00  0.00    +0.014 A 
ATOM     15  C   UNL     1       9.211  -1.365  23.843  0.00  0.00    +0.013 A 
ATOM     16  I   UNL     1      10.189   0.336  24.524  0.00  0.00    -0.044 I 
ATOM     17  C   UNL     1       9.373  -2.575  24.516  0.00  0.00    +0.014 A 
ATOM     18  C   UNL     1       8.695  -3.712  24.071  0.00  0.00    +0.005 A 
ENDBRANCH  11  12
ENDBRANCH   3  11
TORSDOF 5
ENDMDL
MODEL 9
REMARK VINA RESULT:      -4.9      2.426      2.694
REMARK  Name = 
REMARK  5 active torsions:
REMARK  status: ('A' for Active; 'I' for Inactive)
REMARK    1  A    between atoms: P_2  and  O_3
REMARK    2  A    between atoms: P_2  and  C_5
REMARK    3  A    between atoms: C_5  and  N_6
REMARK    4  A    between atoms: C_7  and  C_9
REMARK    5  A    between atoms: C_9  and  C_10
REMARK                            x       y       z     vdW  Elec       q    Type
REMARK                         _______ _______ _______ _____ _____    ______ ____
ROOT
ATOM      1  N   UNL     1       8.205  -1.888  22.425  0.00  0.00    -0.306 N 
ATOM      2  H   UNL     1       7.346  -1.505  22.038  0.00  0.00    +0.149 HD
ATOM      3  C   UNL     1       9.432  -1.387  22.065  0.00  0.00    +0.218 C 
ATOM      4  O   UNL     1      10.489  -1.898  22.428  0.00  0.00    -0.275 OA
ENDROOT
BRANCH   1   5
ATOM      5  C   UNL     1       8.069  -3.160  23.115  0.00  0.00    +0.198 C 
BRANCH   5   7
ATOM      6  H   UNL     1       6.801  -1.761  24.522  0.00  0.00    +0.129 HD
ATOM      7  P   UNL     1       7.517  -2.933  24.844  0.00  0.00    +0.207 P 
ATOM      8  O   UNL     1       8.968  -2.781  25.341  0.00  0.00    -0.293 OA
BRANCH   7   9
ATOM      9  O   UNL     1       6.996  -2.718  26.479  0.00  0.00    -0.345 OA
ATOM     10  H   UNL     1       6.139  -3.194  26.545  0.00  0.00    +0.217 HD
ENDBRANCH   7   9
ENDBRANCH   5   7
ENDBRANCH   1   5
BRANCH   3  11
ATOM     11  C   UNL     1       9.385  -0.148  21.189  0.00  0.00    +0.130 C 
BRANCH  11  12
ATOM     12  C   UNL     1       9.252   1.131  21.977  0.00  0.00    -0.039 A 
ATOM     13  C   UNL     1       8.152   1.977  21.783  0.00  0.00    +0.005 A 
ATOM     14  C   UNL     1       8.021   3.153  22.526  0.00  0.00    +0.014 A 
ATOM     15  C   UNL     1       8.994   3.492  23.465  0.00  0.00    +0.013 A 
ATOM     16  I   UNL     1       8.779   5.218  24.600  0.00  0.00    -0.044 I 
ATOM     17  C   UNL     1      10.108   2.674  23.652  0.00  0.00    +0.014 A 
ATOM     18  C   UNL     1      10.238   1.500  22.905  0.00  0.00    +0.005 A 
ENDBRANCH  11  12
ENDBRANCH   3  11
TORSDOF 5
ENDMDL
