MODEL 1
REMARK VINA RESULT:      -7.2      0.000      0.000
REMARK  Name = 
REMARK  7 active torsions:
REMARK  status: ('A' for Active; 'I' for Inactive)
REMARK    1  A    between atoms: C_10  and  O_11
REMARK    2  A    between atoms: O_11  and  C_12
REMARK    3  A    between atoms: C_12  and  C_13
REMARK    4  A    between atoms: C_13  and  C_14
REMARK    5  A    between atoms: C_14  and  C_15
REMARK    6  A    between atoms: C_15  and  C_16
REMARK    7  A    between atoms: N_20  and  C_21
REMARK                            x       y       z     vdW  Elec       q    Type
REMARK                         _______ _______ _______ _____ _____    ______ ____
ROOT
ATOM      1  C   UNL     1       9.858  -1.124  23.737  0.00  0.00    +0.229 C 
ENDROOT
BRANCH   1   2
ATOM      2  O   UNL     1      10.576   0.025  23.284  0.00  0.00    -0.492 OA
BRANCH   2  10
ATOM      3  O   UNL     1       6.486   6.433  22.179  0.00  0.00    -0.275 OA
ATOM      4  C   UNL     1       7.348   5.591  22.438  0.00  0.00    +0.218 C 
ATOM      5  N   UNL     1       7.284   4.321  21.927  0.00  0.00    -0.285 N 
ATOM      6  H   UNL     1       6.513   4.143  21.293  0.00  0.00    +0.155 HD
ATOM      7  C   UNL     1       8.169   3.289  22.261  0.00  0.00    +0.037 A 
ATOM      8  C   UNL     1       8.087   2.071  21.592  0.00  0.00    +0.027 A 
ATOM      9  C   UNL     1       8.929   1.017  21.963  0.00  0.00    +0.047 A 
ATOM     10  C   UNL     1       9.843   1.157  23.013  0.00  0.00    +0.121 A 
ATOM     11  C   UNL     1       9.921   2.389  23.676  0.00  0.00    +0.051 A 
ATOM     12  C   UNL     1       9.095   3.468  23.291  0.00  0.00    -0.022 A 
ATOM     13  C   UNL     1       9.106   4.772  24.046  0.00  0.00    +0.046 C 
ATOM     14  C   UNL     1       8.602   5.936  23.202  0.00  0.00    +0.101 C 
ENDBRANCH   2  10
ENDBRANCH   1   2
BRANCH   1  15
ATOM     15  C   UNL     1       9.360  -0.924  25.187  0.00  0.00    +0.041 C 
BRANCH  15  16
ATOM     16  C   UNL     1       7.839  -1.125  25.233  0.00  0.00    +0.011 C 
BRANCH  16  17
ATOM     17  C   UNL     1       7.309  -2.457  25.779  0.00  0.00    +0.078 C 
BRANCH  17  18
ATOM     18  C   UNL     1       8.059  -3.664  25.343  0.00  0.00    +0.152 A 
ATOM     19  N   UNL     1       8.054  -4.320  24.128  0.00  0.00    -0.226 N 
ATOM     20  N   UNL     1       8.874  -5.395  24.228  0.00  0.00    -0.044 NA
ATOM     21  N   UNL     1       9.281  -5.439  25.482  0.00  0.00    -0.023 NA
ATOM     22  N   UNL     1       8.798  -4.375  26.178  0.00  0.00    -0.113 NA
BRANCH  19  23
ATOM     23  C   UNL     1       7.471  -4.051  22.816  0.00  0.00    +0.111 C 
ATOM     24  C   UNL     1       6.190  -3.202  22.750  0.00  0.00    +0.027 C 
ATOM     25  C   UNL     1       4.963  -3.919  23.320  0.00  0.00    +0.002 C 
ATOM     26  C   UNL     1       4.741  -5.291  22.681  0.00  0.00    +0.000 C 
ATOM     27  C   UNL     1       6.012  -6.132  22.654  0.00  0.00    +0.002 C 
ATOM     28  C   UNL     1       7.170  -5.354  22.025  0.00  0.00    +0.027 C 
ENDBRANCH  19  23
ENDBRANCH  17  18
ENDBRANCH  16  17
ENDBRANCH  15  16
ENDBRANCH   1  15
TORSDOF 7
ENDMDL
MODEL 2
REMARK VINA RESULT:      -7.2      2.318      3.122
REMARK  Name = 
REMARK  7 active torsions:
REMARK  status: ('A' for Active; 'I' for Inactive)
REMARK    1  A    between atoms: C_10  and  O_11
REMARK    2  A    between atoms: O_11  and  C_12
REMARK    3  A    between atoms: C_12  and  C_13
REMARK    4  A    between atoms: C_13  and  C_14
REMARK    5  A    between atoms: C_14  and  C_15
REMARK    6  A    between atoms: C_15  and  C_16
REMARK    7  A    between atoms: N_20  and  C_21
REMARK                            x       y       z     vdW  Elec       q    Type
REMARK                         _______ _______ _______ _____ _____    ______ ____
ROOT
ATOM      1  C   UNL     1       9.070  -3.463  24.167  0.00  0.00    +0.229 C 
ENDROOT
BRANCH   1   2
ATOM      2  O   UNL     1      10.037  -2.653  23.495  0.00  0.00    -0.492 OA
BRANCH   2  10
ATOM      3  O   UNL     1       8.030   4.731  22.817  0.00  0.00    -0.275 OA
ATOM      4  C   UNL     1       8.443   3.631  23.187  0.00  0.00    +0.218 C 
ATOM      5  N   UNL     1       8.736   2.637  22.289  0.00  0.00    -0.285 N 
ATOM      6  H   UNL     1       8.633   2.887  21.312  0.00  0.00    +0.155 HD
ATOM      7  C   UNL     1       9.109   1.336  22.644  0.00  0.00    +0.037 A 
ATOM      8  C   UNL     1       9.502   0.440  21.653  0.00  0.00    +0.027 A 
ATOM      9  C   UNL     1       9.818  -0.879  21.996  0.00  0.00    +0.047 A 
ATOM     10  C   UNL     1       9.729  -1.324  23.320  0.00  0.00    +0.121 A 
ATOM     11  C   UNL     1       9.338  -0.412  24.309  0.00  0.00    +0.051 A 
ATOM     12  C   UNL     1       9.043   0.928  23.978  0.00  0.00    -0.022 A 
ATOM     13  C   UNL     1       8.540   1.900  25.015  0.00  0.00    +0.046 C 
ATOM     14  C   UNL     1       8.799   3.350  24.626  0.00  0.00    +0.101 C 
ENDBRANCH   2  10
ENDBRANCH   1   2
BRANCH   1  15
ATOM     15  C   UNL     1       9.762  -4.581  24.981  0.00  0.00    +0.041 C 
BRANCH  15  16
ATOM     16  C   UNL     1       9.201  -4.588  26.410  0.00  0.00    +0.011 C 
BRANCH  16  17
ATOM     17  C   UNL     1       7.720  -4.240  26.599  0.00  0.00    +0.078 C 
BRANCH  17  18
ATOM     18  C   UNL     1       6.849  -5.375  27.006  0.00  0.00    +0.152 A 
ATOM     19  N   UNL     1       5.800  -5.972  26.335  0.00  0.00    -0.226 N 
ATOM     20  N   UNL     1       5.291  -6.943  27.134  0.00  0.00    -0.044 NA
ATOM     21  N   UNL     1       5.944  -6.867  28.276  0.00  0.00    -0.023 NA
ATOM     22  N   UNL     1       6.913  -5.916  28.211  0.00  0.00    -0.113 NA
BRANCH  19  23
ATOM     23  C   UNL     1       5.237  -5.853  24.993  0.00  0.00    +0.111 C 
ATOM     24  C   UNL     1       5.425  -4.525  24.240  0.00  0.00    +0.027 C 
ATOM     25  C   UNL     1       4.624  -3.371  24.848  0.00  0.00    +0.002 C 
ATOM     26  C   UNL     1       3.139  -3.707  24.996  0.00  0.00    +0.000 C 
ATOM     27  C   UNL     1       2.913  -5.058  25.666  0.00  0.00    +0.002 C 
ATOM     28  C   UNL     1       3.713  -6.157  24.964  0.00  0.00    +0.027 C 
ENDBRANCH  19  23
ENDBRANCH  17  18
ENDBRANCH  16  17
ENDBRANCH  15  16
ENDBRANCH   1  15
TORSDOF 7
ENDMDL
MODEL 3
REMARK VINA RESULT:      -7.1      1.438      2.170
REMARK  Name = 
REMARK  7 active torsions:
REMARK  status: ('A' for Active; 'I' for Inactive)
REMARK    1  A    between atoms: C_10  and  O_11
REMARK    2  A    between atoms: O_11  and  C_12
REMARK    3  A    between atoms: C_12  and  C_13
REMARK    4  A    between atoms: C_13  and  C_14
REMARK    5  A    between atoms: C_14  and  C_15
REMARK    6  A    between atoms: C_15  and  C_16
REMARK    7  A    between atoms: N_20  and  C_21
REMARK                            x       y       z     vdW  Elec       q    Type
REMARK                         _______ _______ _______ _____ _____    ______ ____
ROOT
ATOM      1  C   UNL     1       9.615  -2.007  24.249  0.00  0.00    +0.229 C 
ENDROOT
BRANCH   1   2
ATOM      2  O   UNL     1      10.471  -0.993  23.717  0.00  0.00    -0.492 OA
BRANCH   2  10
ATOM      3  O   UNL     1       7.233   5.770  22.049  0.00  0.00    -0.275 OA
ATOM      4  C   UNL     1       7.480   4.591  22.306  0.00  0.00    +0.218 C 
ATOM      5  N   UNL     1       8.651   4.219  22.914  0.00  0.00    -0.285 N 
ATOM      6  H   UNL     1       9.267   4.980  23.175  0.00  0.00    +0.155 HD
ATOM      7  C   UNL     1       9.039   2.894  23.140  0.00  0.00    +0.037 A 
ATOM      8  C   UNL     1      10.192   2.631  23.875  0.00  0.00    +0.027 A 
ATOM      9  C   UNL     1      10.617   1.310  24.052  0.00  0.00    +0.047 A 
ATOM     10  C   UNL     1       9.912   0.242  23.486  0.00  0.00    +0.121 A 
ATOM     11  C   UNL     1       8.750   0.517  22.754  0.00  0.00    +0.051 A 
ATOM     12  C   UNL     1       8.298   1.844  22.591  0.00  0.00    -0.022 A 
ATOM     13  C   UNL     1       7.098   2.166  21.737  0.00  0.00    +0.046 C 
ATOM     14  C   UNL     1       6.458   3.497  22.111  0.00  0.00    +0.101 C 
ENDBRANCH   2  10
ENDBRANCH   1   2
BRANCH   1  15
ATOM     15  C   UNL     1       8.747  -1.444  25.398  0.00  0.00    +0.041 C 
BRANCH  15  16
ATOM     16  C   UNL     1       8.543  -2.535  26.460  0.00  0.00    +0.011 C 
BRANCH  16  17
ATOM     17  C   UNL     1       8.791  -3.991  26.047  0.00  0.00    +0.078 C 
BRANCH  17  18
ATOM     18  C   UNL     1       7.582  -4.856  26.020  0.00  0.00    +0.152 A 
ATOM     19  N   UNL     1       6.489  -4.826  25.176  0.00  0.00    -0.226 N 
ATOM     20  N   UNL     1       5.625  -5.793  25.574  0.00  0.00    -0.044 NA
ATOM     21  N   UNL     1       6.133  -6.317  26.672  0.00  0.00    -0.023 NA
ATOM     22  N   UNL     1       7.341  -5.760  26.954  0.00  0.00    -0.113 NA
BRANCH  19  23
ATOM     23  C   UNL     1       6.148  -4.091  23.961  0.00  0.00    +0.111 C 
ATOM     24  C   UNL     1       4.817  -4.418  23.262  0.00  0.00    +0.027 C 
ATOM     25  C   UNL     1       4.802  -5.805  22.614  0.00  0.00    +0.002 C 
ATOM     26  C   UNL     1       5.982  -6.016  21.663  0.00  0.00    +0.000 C 
ATOM     27  C   UNL     1       7.313  -5.624  22.293  0.00  0.00    +0.002 C 
ATOM     28  C   UNL     1       7.250  -4.208  22.871  0.00  0.00    +0.027 C 
ENDBRANCH  19  23
ENDBRANCH  17  18
ENDBRANCH  16  17
ENDBRANCH  15  16
ENDBRANCH   1  15
TORSDOF 7
ENDMDL
MODEL 4
REMARK VINA RESULT:      -7.1      2.454      3.958
REMARK  Name = 
REMARK  7 active torsions:
REMARK  status: ('A' for Active; 'I' for Inactive)
REMARK    1  A    between atoms: C_10  and  O_11
REMARK    2  A    between atoms: O_11  and  C_12
REMARK    3  A    between atoms: C_12  and  C_13
REMARK    4  A    between atoms: C_13  and  C_14
REMARK    5  A    between atoms: C_14  and  C_15
REMARK    6  A    between atoms: C_15  and  C_16
REMARK    7  A    between atoms: N_20  and  C_21
REMARK                            x       y       z     vdW  Elec       q    Type
REMARK                         _______ _______ _______ _____ _____    ______ ____
ROOT
ATOM      1  C   UNL     1       4.717  -2.527  26.849  0.00  0.00    +0.229 C 
ENDROOT
BRANCH   1   2
ATOM      2  O   UNL     1       5.937  -1.878  27.211  0.00  0.00    -0.492 OA
BRANCH   2  10
ATOM      3  O   UNL     1      10.130   1.739  21.888  0.00  0.00    -0.275 OA
ATOM      4  C   UNL     1       9.695   0.996  22.768  0.00  0.00    +0.218 C 
ATOM      5  N   UNL     1       8.348   0.860  22.990  0.00  0.00    -0.285 N 
ATOM      6  H   UNL     1       7.748   1.373  22.356  0.00  0.00    +0.155 HD
ATOM      7  C   UNL     1       7.791   0.117  24.037  0.00  0.00    +0.037 A 
ATOM      8  C   UNL     1       6.411  -0.054  24.099  0.00  0.00    +0.027 A 
ATOM      9  C   UNL     1       5.844  -0.745  25.175  0.00  0.00    +0.047 A 
ATOM     10  C   UNL     1       6.640  -1.255  26.206  0.00  0.00    +0.121 A 
ATOM     11  C   UNL     1       8.028  -1.083  26.131  0.00  0.00    +0.051 A 
ATOM     12  C   UNL     1       8.613  -0.411  25.036  0.00  0.00    -0.022 A 
ATOM     13  C   UNL     1      10.095  -0.143  24.980  0.00  0.00    +0.046 C 
ATOM     14  C   UNL     1      10.593   0.075  23.557  0.00  0.00    +0.101 C 
ENDBRANCH   2  10
ENDBRANCH   1   2
BRANCH   1  15
ATOM     15  C   UNL     1       4.700  -3.988  27.356  0.00  0.00    +0.041 C 
BRANCH  15  16
ATOM     16  C   UNL     1       6.143  -4.468  27.564  0.00  0.00    +0.011 C 
BRANCH  16  17
ATOM     17  C   UNL     1       6.723  -5.457  26.545  0.00  0.00    +0.078 C 
BRANCH  17  18
ATOM     18  C   UNL     1       7.815  -4.919  25.691  0.00  0.00    +0.152 A 
ATOM     19  N   UNL     1       7.754  -4.308  24.454  0.00  0.00    -0.226 N 
ATOM     20  N   UNL     1       9.021  -4.029  24.062  0.00  0.00    -0.044 NA
ATOM     21  N   UNL     1       9.817  -4.539  24.980  0.00  0.00    -0.023 NA
ATOM     22  N   UNL     1       9.092  -5.080  25.995  0.00  0.00    -0.113 NA
BRANCH  19  23
ATOM     23  C   UNL     1       6.673  -3.836  23.592  0.00  0.00    +0.111 C 
ATOM     24  C   UNL     1       5.287  -4.487  23.741  0.00  0.00    +0.027 C 
ATOM     25  C   UNL     1       5.249  -5.938  23.258  0.00  0.00    +0.002 C 
ATOM     26  C   UNL     1       5.770  -6.090  21.828  0.00  0.00    +0.000 C 
ATOM     27  C   UNL     1       7.106  -5.387  21.619  0.00  0.00    +0.002 C 
ATOM     28  C   UNL     1       7.037  -3.931  22.084  0.00  0.00    +0.027 C 
ENDBRANCH  19  23
ENDBRANCH  17  18
ENDBRANCH  16  17
ENDBRANCH  15  16
ENDBRANCH   1  15
TORSDOF 7
ENDMDL
MODEL 5
REMARK VINA RESULT:      -7.0      2.811      8.838
REMARK  Name = 
REMARK  7 active torsions:
REMARK  status: ('A' for Active; 'I' for Inactive)
REMARK    1  A    between atoms: C_10  and  O_11
REMARK    2  A    between atoms: O_11  and  C_12
REMARK    3  A    between atoms: C_12  and  C_13
REMARK    4  A    between atoms: C_13  and  C_14
REMARK    5  A    between atoms: C_14  and  C_15
REMARK    6  A    between atoms: C_15  and  C_16
REMARK    7  A    between atoms: N_20  and  C_21
REMARK                            x       y       z     vdW  Elec       q    Type
REMARK                         _______ _______ _______ _____ _____    ______ ____
ROOT
ATOM      1  C   UNL     1       9.944  -0.215  22.589  0.00  0.00    +0.229 C 
ENDROOT
BRANCH   1   2
ATOM      2  O   UNL     1       9.943  -1.605  22.259  0.00  0.00    -0.492 OA
BRANCH   2  10
ATOM      3  O   UNL     1       5.827  -6.450  26.570  0.00  0.00    -0.275 OA
ATOM      4  C   UNL     1       6.620  -5.617  26.129  0.00  0.00    +0.218 C 
ATOM      5  N   UNL     1       6.392  -4.969  24.943  0.00  0.00    -0.285 N 
ATOM      6  H   UNL     1       5.514  -5.189  24.487  0.00  0.00    +0.155 HD
ATOM      7  C   UNL     1       7.297  -4.091  24.334  0.00  0.00    +0.037 A 
ATOM      8  C   UNL     1       6.915  -3.394  23.192  0.00  0.00    +0.027 A 
ATOM      9  C   UNL     1       7.836  -2.562  22.546  0.00  0.00    +0.047 A 
ATOM     10  C   UNL     1       9.146  -2.430  23.018  0.00  0.00    +0.121 A 
ATOM     11  C   UNL     1       9.518  -3.131  24.172  0.00  0.00    +0.051 A 
ATOM     12  C   UNL     1       8.590  -3.953  24.847  0.00  0.00    -0.022 A 
ATOM     13  C   UNL     1       8.995  -4.780  26.040  0.00  0.00    +0.046 C 
ATOM     14  C   UNL     1       7.810  -5.142  26.926  0.00  0.00    +0.101 C 
ENDBRANCH   2  10
ENDBRANCH   1   2
BRANCH   1  15
ATOM     15  C   UNL     1      10.576   0.019  23.981  0.00  0.00    +0.041 C 
BRANCH  15  16
ATOM     16  C   UNL     1      10.544   1.519  24.307  0.00  0.00    +0.011 C 
BRANCH  16  17
ATOM     17  C   UNL     1      10.544   2.506  23.133  0.00  0.00    +0.078 C 
BRANCH  17  18
ATOM     18  C   UNL     1      10.939   3.898  23.476  0.00  0.00    +0.152 A 
ATOM     19  N   UNL     1      10.176   4.942  23.960  0.00  0.00    -0.226 N 
ATOM     20  N   UNL     1      10.979   6.029  24.078  0.00  0.00    -0.044 NA
ATOM     21  N   UNL     1      12.154   5.679  23.592  0.00  0.00    -0.023 NA
ATOM     22  N   UNL     1      12.150   4.369  23.228  0.00  0.00    -0.113 NA
BRANCH  19  23
ATOM     23  C   UNL     1       8.803   5.076  24.440  0.00  0.00    +0.111 C 
ATOM     24  C   UNL     1       7.765   4.041  23.975  0.00  0.00    +0.027 C 
ATOM     25  C   UNL     1       7.422   4.160  22.488  0.00  0.00    +0.002 C 
ATOM     26  C   UNL     1       6.990   5.575  22.100  0.00  0.00    +0.000 C 
ATOM     27  C   UNL     1       7.953   6.638  22.616  0.00  0.00    +0.002 C 
ATOM     28  C   UNL     1       8.199   6.472  24.117  0.00  0.00    +0.027 C 
ENDBRANCH  19  23
ENDBRANCH  17  18
ENDBRANCH  16  17
ENDBRANCH  15  16
ENDBRANCH   1  15
TORSDOF 7
ENDMDL
MODEL 6
REMARK VINA RESULT:      -6.9      2.071      2.828
REMARK  Name = 
REMARK  7 active torsions:
REMARK  status: ('A' for Active; 'I' for Inactive)
REMARK    1  A    between atoms: C_10  and  O_11
REMARK    2  A    between atoms: O_11  and  C_12
REMARK    3  A    between atoms: C_12  and  C_13
REMARK    4  A    between atoms: C_13  and  C_14
REMARK    5  A    between atoms: C_14  and  C_15
REMARK    6  A    between atoms: C_15  and  C_16
REMARK    7  A    between atoms: N_20  and  C_21
REMARK                            x       y       z     vdW  Elec       q    Type
REMARK                         _______ _______ _______ _____ _____    ______ ____
ROOT
ATOM      1  C   UNL     1       9.957  -2.073  23.110  0.00  0.00    +0.229 C 
ENDROOT
BRANCH   1   2
ATOM      2  O   UNL     1      10.241  -1.092  24.110  0.00  0.00    -0.492 OA
BRANCH   2  10
ATOM      3  O   UNL     1       7.718   6.070  22.946  0.00  0.00    -0.275 OA
ATOM      4  C   UNL     1       8.179   5.021  23.397  0.00  0.00    +0.218 C 
ATOM      5  N   UNL     1       8.645   4.029  22.573  0.00  0.00    -0.285 N 
ATOM      6  H   UNL     1       8.625   4.240  21.582  0.00  0.00    +0.155 HD
ATOM      7  C   UNL     1       9.084   2.775  23.014  0.00  0.00    +0.037 A 
ATOM      8  C   UNL     1       9.650   1.887  22.105  0.00  0.00    +0.027 A 
ATOM      9  C   UNL     1      10.036   0.611  22.529  0.00  0.00    +0.047 A 
ATOM     10  C   UNL     1       9.845   0.200  23.852  0.00  0.00    +0.121 A 
ATOM     11  C   UNL     1       9.279   1.104  24.761  0.00  0.00    +0.051 A 
ATOM     12  C   UNL     1       8.912   2.404  24.350  0.00  0.00    -0.022 A 
ATOM     13  C   UNL     1       8.226   3.360  25.292  0.00  0.00    +0.046 C 
ATOM     14  C   UNL     1       8.404   4.815  24.875  0.00  0.00    +0.101 C 
ENDBRANCH   2  10
ENDBRANCH   1   2
BRANCH   1  15
ATOM     15  C   UNL     1       8.599  -2.760  23.386  0.00  0.00    +0.041 C 
BRANCH  15  16
ATOM     16  C   UNL     1       8.796  -3.872  24.426  0.00  0.00    +0.011 C 
BRANCH  16  17
ATOM     17  C   UNL     1       8.254  -5.268  24.092  0.00  0.00    +0.078 C 
BRANCH  17  18
ATOM     18  C   UNL     1       7.224  -5.308  23.021  0.00  0.00    +0.152 A 
ATOM     19  N   UNL     1       5.861  -5.095  23.093  0.00  0.00    -0.226 N 
ATOM     20  N   UNL     1       5.342  -5.282  21.854  0.00  0.00    -0.044 NA
ATOM     21  N   UNL     1       6.337  -5.686  21.089  0.00  0.00    -0.023 NA
ATOM     22  N   UNL     1       7.503  -5.697  21.788  0.00  0.00    -0.113 NA
BRANCH  19  23
ATOM     23  C   UNL     1       4.945  -4.636  24.133  0.00  0.00    +0.111 C 
ATOM     24  C   UNL     1       5.358  -4.829  25.603  0.00  0.00    +0.027 C 
ATOM     25  C   UNL     1       5.365  -6.296  26.038  0.00  0.00    +0.002 C 
ATOM     26  C   UNL     1       4.035  -6.995  25.750  0.00  0.00    +0.000 C 
ATOM     27  C   UNL     1       3.551  -6.758  24.324  0.00  0.00    +0.002 C 
ATOM     28  C   UNL     1       3.531  -5.264  23.994  0.00  0.00    +0.027 C 
ENDBRANCH  19  23
ENDBRANCH  17  18
ENDBRANCH  16  17
ENDBRANCH  15  16
ENDBRANCH   1  15
TORSDOF 7
ENDMDL
MODEL 7
REMARK VINA RESULT:      -6.8      1.731      3.021
REMARK  Name = 
REMARK  7 active torsions:
REMARK  status: ('A' for Active; 'I' for Inactive)
REMARK    1  A    between atoms: C_10  and  O_11
REMARK    2  A    between atoms: O_11  and  C_12
REMARK    3  A    between atoms: C_12  and  C_13
REMARK    4  A    between atoms: C_13  and  C_14
REMARK    5  A    between atoms: C_14  and  C_15
REMARK    6  A    between atoms: C_15  and  C_16
REMARK    7  A    between atoms: N_20  and  C_21
REMARK                            x       y       z     vdW  Elec       q    Type
REMARK                         _______ _______ _______ _____ _____    ______ ____
ROOT
ATOM      1  C   UNL     1       9.831  -2.352  23.454  0.00  0.00    +0.229 C 
ENDROOT
BRANCH   1   2
ATOM      2  O   UNL     1      10.322  -1.212  24.162  0.00  0.00    -0.492 OA
BRANCH   2  10
ATOM      3  O   UNL     1       7.267   5.624  22.446  0.00  0.00    -0.275 OA
ATOM      4  C   UNL     1       7.845   4.665  22.959  0.00  0.00    +0.218 C 
ATOM      5  N   UNL     1       8.242   3.585  22.214  0.00  0.00    -0.285 N 
ATOM      6  H   UNL     1       8.068   3.655  21.218  0.00  0.00    +0.155 HD
ATOM      7  C   UNL     1       8.808   2.422  22.747  0.00  0.00    +0.037 A 
ATOM      8  C   UNL     1       9.286   1.435  21.889  0.00  0.00    +0.027 A 
ATOM      9  C   UNL     1       9.798   0.245  22.417  0.00  0.00    +0.047 A 
ATOM     10  C   UNL     1       9.822   0.017  23.797  0.00  0.00    +0.121 A 
ATOM     11  C   UNL     1       9.344   1.019  24.652  0.00  0.00    +0.051 A 
ATOM     12  C   UNL     1       8.850   2.234  24.131  0.00  0.00    -0.022 A 
ATOM     13  C   UNL     1       8.255   3.288  25.029  0.00  0.00    +0.046 C 
ATOM     14  C   UNL     1       8.291   4.676  24.401  0.00  0.00    +0.101 C 
ENDBRANCH   2  10
ENDBRANCH   1   2
BRANCH   1  15
ATOM     15  C   UNL     1       8.922  -3.213  24.362  0.00  0.00    +0.041 C 
BRANCH  15  16
ATOM     16  C   UNL     1       8.184  -4.249  23.503  0.00  0.00    +0.011 C 
BRANCH  16  17
ATOM     17  C   UNL     1       6.938  -4.916  24.098  0.00  0.00    +0.078 C 
BRANCH  17  18
ATOM     18  C   UNL     1       6.902  -4.980  25.584  0.00  0.00    +0.152 A 
ATOM     19  N   UNL     1       6.157  -4.246  26.485  0.00  0.00    -0.226 N 
ATOM     20  N   UNL     1       6.503  -4.641  27.735  0.00  0.00    -0.044 NA
ATOM     21  N   UNL     1       7.486  -5.508  27.594  0.00  0.00    -0.023 NA
ATOM     22  N   UNL     1       7.737  -5.736  26.277  0.00  0.00    -0.113 NA
BRANCH  19  23
ATOM     23  C   UNL     1       5.071  -3.276  26.373  0.00  0.00    +0.111 C 
ATOM     24  C   UNL     1       4.758  -2.691  24.985  0.00  0.00    +0.027 C 
ATOM     25  C   UNL     1       5.854  -1.757  24.465  0.00  0.00    +0.002 C 
ATOM     26  C   UNL     1       6.193  -0.646  25.460  0.00  0.00    +0.000 C 
ATOM     27  C   UNL     1       6.429  -1.179  26.868  0.00  0.00    +0.002 C 
ATOM     28  C   UNL     1       5.263  -2.061  27.322  0.00  0.00    +0.027 C 
ENDBRANCH  19  23
ENDBRANCH  17  18
ENDBRANCH  16  17
ENDBRANCH  15  16
ENDBRANCH   1  15
TORSDOF 7
ENDMDL
MODEL 8
REMARK VINA RESULT:      -6.8      3.470      5.278
REMARK  Name = 
REMARK  7 active torsions:
REMARK  status: ('A' for Active; 'I' for Inactive)
REMARK    1  A    between atoms: C_10  and  O_11
REMARK    2  A    between atoms: O_11  and  C_12
REMARK    3  A    between atoms: C_12  and  C_13
REMARK    4  A    between atoms: C_13  and  C_14
REMARK    5  A    between atoms: C_14  and  C_15
REMARK    6  A    between atoms: C_15  and  C_16
REMARK    7  A    between atoms: N_20  and  C_21
REMARK                            x       y       z     vdW  Elec       q    Type
REMARK                         _______ _______ _______ _____ _____    ______ ____
ROOT
ATOM      1  C   UNL     1       7.120  -4.711  22.232  0.00  0.00    +0.229 C 
ENDROOT
BRANCH   1   2
ATOM      2  O   UNL     1       8.002  -4.389  23.309  0.00  0.00    -0.492 OA
BRANCH   2  10
ATOM      3  O   UNL     1      10.733   2.790  23.364  0.00  0.00    -0.275 OA
ATOM      4  C   UNL     1      10.149   1.732  23.124  0.00  0.00    +0.218 C 
ATOM      5  N   UNL     1      10.002   0.762  24.081  0.00  0.00    -0.285 N 
ATOM      6  H   UNL     1      10.362   0.996  24.999  0.00  0.00    +0.155 HD
ATOM      7  C   UNL     1       9.445  -0.501  23.848  0.00  0.00    +0.037 A 
ATOM      8  C   UNL     1       9.232  -1.366  24.918  0.00  0.00    +0.027 A 
ATOM      9  C   UNL     1       8.731  -2.650  24.682  0.00  0.00    +0.047 A 
ATOM     10  C   UNL     1       8.455  -3.093  23.384  0.00  0.00    +0.121 A 
ATOM     11  C   UNL     1       8.667  -2.212  22.315  0.00  0.00    +0.051 A 
ATOM     12  C   UNL     1       9.147  -0.904  22.544  0.00  0.00    -0.022 A 
ATOM     13  C   UNL     1       9.460   0.027  21.401  0.00  0.00    +0.046 C 
ATOM     14  C   UNL     1       9.429   1.492  21.820  0.00  0.00    +0.101 C 
ENDBRANCH   2  10
ENDBRANCH   1   2
BRANCH   1  15
ATOM     15  C   UNL     1       5.976  -5.632  22.715  0.00  0.00    +0.041 C 
BRANCH  15  16
ATOM     16  C   UNL     1       5.381  -5.063  24.012  0.00  0.00    +0.011 C 
BRANCH  16  17
ATOM     17  C   UNL     1       5.005  -6.053  25.121  0.00  0.00    +0.078 C 
BRANCH  17  18
ATOM     18  C   UNL     1       5.894  -6.038  26.312  0.00  0.00    +0.152 A 
ATOM     19  N   UNL     1       5.599  -6.266  27.642  0.00  0.00    -0.226 N 
ATOM     20  N   UNL     1       6.738  -6.099  28.359  0.00  0.00    -0.044 NA
ATOM     21  N   UNL     1       7.659  -5.693  27.507  0.00  0.00    -0.023 NA
ATOM     22  N   UNL     1       7.160  -5.660  26.243  0.00  0.00    -0.113 NA
BRANCH  19  23
ATOM     23  C   UNL     1       4.418  -6.723  28.369  0.00  0.00    +0.111 C 
ATOM     24  C   UNL     1       3.033  -6.403  27.782  0.00  0.00    +0.027 C 
ATOM     25  C   UNL     1       2.684  -4.914  27.841  0.00  0.00    +0.002 C 
ATOM     26  C   UNL     1       2.823  -4.338  29.251  0.00  0.00    +0.000 C 
ATOM     27  C   UNL     1       4.154  -4.704  29.899  0.00  0.00    +0.002 C 
ATOM     28  C   UNL     1       4.395  -6.215  29.838  0.00  0.00    +0.027 C 
ENDBRANCH  19  23
ENDBRANCH  17  18
ENDBRANCH  16  17
ENDBRANCH  15  16
ENDBRANCH   1  15
TORSDOF 7
ENDMDL
MODEL 9
REMARK VINA RESULT:      -6.8      2.506      3.295
REMARK  Name = 
REMARK  7 active torsions:
REMARK  status: ('A' for Active; 'I' for Inactive)
REMARK    1  A    between atoms: C_10  and  O_11
REMARK    2  A    between atoms: O_11  and  C_12
REMARK    3  A    between atoms: C_12  and  C_13
REMARK    4  A    between atoms: C_13  and  C_14
REMARK    5  A    between atoms: C_14  and  C_15
REMARK    6  A    between atoms: C_15  and  C_16
REMARK    7  A    between atoms: N_20  and  C_21
REMARK                            x       y       z     vdW  Elec       q    Type
REMARK                         _______ _______ _______ _____ _____    ______ ____
ROOT
ATOM      1  C   UNL     1       9.811  -2.105  23.871  0.00  0.00    +0.229 C 
ENDROOT
BRANCH   1   2
ATOM      2  O   UNL     1       9.337  -1.191  24.861  0.00  0.00    -0.492 OA
BRANCH   2  10
ATOM      3  O   UNL     1       9.502   6.335  23.331  0.00  0.00    -0.275 OA
ATOM      4  C   UNL     1       9.397   5.218  23.839  0.00  0.00    +0.218 C 
ATOM      5  N   UNL     1      10.011   4.121  23.292  0.00  0.00    -0.285 N 
ATOM      6  H   UNL     1      10.587   4.304  22.479  0.00  0.00    +0.155 HD
ATOM      7  C   UNL     1       9.849   2.811  23.757  0.00  0.00    +0.037 A 
ATOM      8  C   UNL     1      10.614   1.787  23.204  0.00  0.00    +0.027 A 
ATOM      9  C   UNL     1      10.413   0.467  23.623  0.00  0.00    +0.047 A 
ATOM     10  C   UNL     1       9.440   0.151  24.577  0.00  0.00    +0.121 A 
ATOM     11  C   UNL     1       8.680   1.190  25.131  0.00  0.00    +0.051 A 
ATOM     12  C   UNL     1       8.893   2.528  24.736  0.00  0.00    -0.022 A 
ATOM     13  C   UNL     1       8.029   3.647  25.257  0.00  0.00    +0.046 C 
ATOM     14  C   UNL     1       8.718   5.003  25.170  0.00  0.00    +0.101 C 
ENDBRANCH   2  10
ENDBRANCH   1   2
BRANCH   1  15
ATOM     15  C   UNL     1       8.653  -2.971  23.323  0.00  0.00    +0.041 C 
BRANCH  15  16
ATOM     16  C   UNL     1       7.794  -2.126  22.372  0.00  0.00    +0.011 C 
BRANCH  16  17
ATOM     17  C   UNL     1       6.270  -2.199  22.528  0.00  0.00    +0.078 C 
BRANCH  17  18
ATOM     18  C   UNL     1       5.679  -3.551  22.343  0.00  0.00    +0.152 A 
ATOM     19  N   UNL     1       4.867  -4.285  23.183  0.00  0.00    -0.226 N 
ATOM     20  N   UNL     1       4.620  -5.480  22.589  0.00  0.00    -0.044 NA
ATOM     21  N   UNL     1       5.334  -5.500  21.481  0.00  0.00    -0.023 NA
ATOM     22  N   UNL     1       5.982  -4.317  21.309  0.00  0.00    -0.113 NA
BRANCH  19  23
ATOM     23  C   UNL     1       4.179  -4.016  24.443  0.00  0.00    +0.111 C 
ATOM     24  C   UNL     1       4.631  -2.803  25.274  0.00  0.00    +0.027 C 
ATOM     25  C   UNL     1       6.021  -2.981  25.891  0.00  0.00    +0.002 C 
ATOM     26  C   UNL     1       6.137  -4.271  26.704  0.00  0.00    +0.000 C 
ATOM     27  C   UNL     1       5.621  -5.486  25.942  0.00  0.00    +0.002 C 
ATOM     28  C   UNL     1       4.209  -5.237  25.405  0.00  0.00    +0.027 C 
ENDBRANCH  19  23
ENDBRANCH  17  18
ENDBRANCH  16  17
ENDBRANCH  15  16
ENDBRANCH   1  15
TORSDOF 7
ENDMDL
