MODEL 1
REMARK VINA RESULT:      -6.7      0.000      0.000
REMARK  Name = 
REMARK  9 active torsions:
REMARK  status: ('A' for Active; 'I' for Inactive)
REMARK    1  A    between atoms: C_1  and  C_2
REMARK    2  A    between atoms: C_2  and  C_3
REMARK    3  A    between atoms: C_3  and  C_4
REMARK    4  A    between atoms: N_6  and  C_7
REMARK    5  A    between atoms: C_7  and  C_8
REMARK    6  A    between atoms: C_9  and  C_25
REMARK    7  A    between atoms: C_18  and  C_22
REMARK    8  A    between atoms: C_22  and  O_23
REMARK    9  A    between atoms: C_25  and  O_26
REMARK                            x       y       z     vdW  Elec       q    Type
REMARK                         _______ _______ _______ _____ _____    ______ ____
ROOT
ATOM      1  C   UNL     1       7.744  -1.309  25.825  0.00  0.00    +0.020 A 
ATOM      2  C   UNL     1       7.827  -2.742  25.973  0.00  0.00    +0.145 A 
ATOM      3  O   UNL     1       7.038  -3.340  26.943  0.00  0.00    -0.448 OA
ATOM      4  C   UNL     1       7.098  -4.709  27.129  0.00  0.00    +0.215 A 
ATOM      5  C   UNL     1       7.869  -5.540  26.418  0.00  0.00    +0.105 A 
ATOM      6  C   UNL     1       8.714  -4.977  25.364  0.00  0.00    +0.193 A 
ATOM      7  O   UNL     1       9.433  -5.696  24.686  0.00  0.00    -0.287 OA
ATOM      8  C   UNL     1       8.654  -3.520  25.175  0.00  0.00    +0.065 A 
ATOM      9  C   UNL     1       9.409  -2.913  24.189  0.00  0.00    +0.029 A 
ATOM     10  C   UNL     1       9.344  -1.519  24.005  0.00  0.00    +0.046 A 
ATOM     11  C   UNL     1      10.167  -1.011  22.899  0.00  0.00    +0.190 A 
ATOM     12  O   UNL     1      10.871  -1.732  22.205  0.00  0.00    -0.287 OA
ATOM     13  C   UNL     1      10.141   0.417  22.625  0.00  0.00    +0.084 A 
ATOM     14  C   UNL     1       9.447   1.237  23.422  0.00  0.00    +0.131 A 
ATOM     15  N   UNL     1       8.615   0.795  24.493  0.00  0.00    -0.335 N 
ATOM     16  C   UNL     1       8.540  -0.647  24.803  0.00  0.00    +0.060 A 
ENDROOT
BRANCH   4  17
ATOM     17  C   UNL     1       6.250  -5.306  28.198  0.00  0.00    +0.373 C 
ATOM     18  O   UNL     1       5.172  -4.865  28.555  0.00  0.00    -0.242 OA
BRANCH  17  19
ATOM     19  O   UNL     1       6.813  -6.410  28.736  0.00  0.00    -0.475 OA
ATOM     20  H   UNL     1       7.316  -6.223  29.551  0.00  0.00    +0.296 HD
ENDBRANCH  17  19
ENDBRANCH   4  17
BRANCH  14  21
ATOM     21  C   UNL     1       9.580   2.667  22.920  0.00  0.00    +0.354 C 
ATOM     22  O   UNL     1      10.227   3.534  23.472  0.00  0.00    -0.243 OA
BRANCH  21  23
ATOM     23  O   UNL     1       8.862   2.958  21.804  0.00  0.00    -0.476 OA
ATOM     24  H   UNL     1       7.939   2.654  21.754  0.00  0.00    +0.295 HD
ENDBRANCH  21  23
ENDBRANCH  14  21
BRANCH  15  25
ATOM     25  C   UNL     1       7.866   1.645  25.439  0.00  0.00    +0.119 C 
ATOM     26  C   UNL     1       6.748   2.581  25.054  0.00  0.00    +0.027 C 
ENDBRANCH  15  25
BRANCH   1  27
ATOM     27  C   UNL     1       6.720  -0.694  26.784  0.00  0.00    +0.041 C 
BRANCH  27  29
ATOM     28  C   UNL     1       4.405   0.295  26.944  0.00  0.00    +0.004 C 
ATOM     29  C   UNL     1       5.301  -0.683  26.199  0.00  0.00    +0.001 C 
ENDBRANCH  27  29
ENDBRANCH   1  27
TORSDOF 7
ENDMDL
MODEL 2
REMARK VINA RESULT:      -6.7      1.768      6.681
REMARK  Name = 
REMARK  9 active torsions:
REMARK  status: ('A' for Active; 'I' for Inactive)
REMARK    1  A    between atoms: C_1  and  C_2
REMARK    2  A    between atoms: C_2  and  C_3
REMARK    3  A    between atoms: C_3  and  C_4
REMARK    4  A    between atoms: N_6  and  C_7
REMARK    5  A    between atoms: C_7  and  C_8
REMARK    6  A    between atoms: C_9  and  C_25
REMARK    7  A    between atoms: C_18  and  C_22
REMARK    8  A    between atoms: C_22  and  O_23
REMARK    9  A    between atoms: C_25  and  O_26
REMARK                            x       y       z     vdW  Elec       q    Type
REMARK                         _______ _______ _______ _____ _____    ______ ____
ROOT
ATOM      1  C   UNL     1       6.909  -1.691  24.976  0.00  0.00    +0.020 A 
ATOM      2  C   UNL     1       7.811  -1.139  23.994  0.00  0.00    +0.145 A 
ATOM      3  O   UNL     1       7.502   0.101  23.457  0.00  0.00    -0.448 OA
ATOM      4  C   UNL     1       8.331   0.660  22.500  0.00  0.00    +0.215 A 
ATOM      5  C   UNL     1       9.453   0.094  22.042  0.00  0.00    +0.105 A 
ATOM      6  C   UNL     1       9.849  -1.208  22.581  0.00  0.00    +0.193 A 
ATOM      7  O   UNL     1      10.867  -1.763  22.196  0.00  0.00    -0.287 OA
ATOM      8  C   UNL     1       8.961  -1.804  23.591  0.00  0.00    +0.065 A 
ATOM      9  C   UNL     1       9.272  -3.023  24.161  0.00  0.00    +0.029 A 
ATOM     10  C   UNL     1       8.425  -3.587  25.133  0.00  0.00    +0.046 A 
ATOM     11  C   UNL     1       8.894  -4.866  25.683  0.00  0.00    +0.190 A 
ATOM     12  O   UNL     1       9.925  -5.413  25.314  0.00  0.00    -0.287 OA
ATOM     13  C   UNL     1       8.089  -5.507  26.710  0.00  0.00    +0.084 A 
ATOM     14  C   UNL     1       6.916  -4.974  27.069  0.00  0.00    +0.131 A 
ATOM     15  N   UNL     1       6.425  -3.725  26.585  0.00  0.00    -0.335 N 
ATOM     16  C   UNL     1       7.210  -2.980  25.580  0.00  0.00    +0.060 A 
ENDROOT
BRANCH   4  17
ATOM     17  C   UNL     1       7.950   1.983  21.934  0.00  0.00    +0.373 C 
ATOM     18  O   UNL     1       6.807   2.397  21.845  0.00  0.00    -0.242 OA
BRANCH  17  19
ATOM     19  O   UNL     1       9.026   2.690  21.524  0.00  0.00    -0.475 OA
ATOM     20  H   UNL     1       9.871   2.313  21.836  0.00  0.00    +0.296 HD
ENDBRANCH  17  19
ENDBRANCH   4  17
BRANCH  14  21
ATOM     21  C   UNL     1       6.280  -5.828  28.155  0.00  0.00    +0.354 C 
ATOM     22  O   UNL     1       6.383  -5.617  29.347  0.00  0.00    -0.243 OA
BRANCH  21  23
ATOM     23  O   UNL     1       5.608  -6.923  27.712  0.00  0.00    -0.476 OA
ATOM     24  H   UNL     1       4.882  -7.273  28.259  0.00  0.00    +0.295 HD
ENDBRANCH  21  23
ENDBRANCH  14  21
BRANCH  15  25
ATOM     25  C   UNL     1       5.123  -3.106  26.898  0.00  0.00    +0.119 C 
ATOM     26  C   UNL     1       3.785  -3.649  26.462  0.00  0.00    +0.027 C 
ENDBRANCH  15  25
BRANCH   1  27
ATOM     27  C   UNL     1       5.750  -0.739  25.287  0.00  0.00    +0.041 C 
BRANCH  27  29
ATOM     28  C   UNL     1       4.792   0.672  27.145  0.00  0.00    +0.004 C 
ATOM     29  C   UNL     1       6.065   0.208  26.453  0.00  0.00    +0.001 C 
ENDBRANCH  27  29
ENDBRANCH   1  27
TORSDOF 7
ENDMDL
MODEL 3
REMARK VINA RESULT:      -6.5      2.001      4.197
REMARK  Name = 
REMARK  9 active torsions:
REMARK  status: ('A' for Active; 'I' for Inactive)
REMARK    1  A    between atoms: C_1  and  C_2
REMARK    2  A    between atoms: C_2  and  C_3
REMARK    3  A    between atoms: C_3  and  C_4
REMARK    4  A    between atoms: N_6  and  C_7
REMARK    5  A    between atoms: C_7  and  C_8
REMARK    6  A    between atoms: C_9  and  C_25
REMARK    7  A    between atoms: C_18  and  C_22
REMARK    8  A    between atoms: C_22  and  O_23
REMARK    9  A    between atoms: C_25  and  O_26
REMARK                            x       y       z     vdW  Elec       q    Type
REMARK                         _______ _______ _______ _____ _____    ______ ____
ROOT
ATOM      1  C   UNL     1       8.589  -0.274  24.137  0.00  0.00    +0.020 A 
ATOM      2  C   UNL     1       7.940  -1.447  24.671  0.00  0.00    +0.145 A 
ATOM      3  O   UNL     1       8.712  -2.584  24.862  0.00  0.00    -0.448 OA
ATOM      4  C   UNL     1       8.127  -3.735  25.357  0.00  0.00    +0.215 A 
ATOM      5  C   UNL     1       6.837  -3.849  25.694  0.00  0.00    +0.105 A 
ATOM      6  C   UNL     1       5.969  -2.681  25.536  0.00  0.00    +0.193 A 
ATOM      7  O   UNL     1       4.785  -2.735  25.833  0.00  0.00    -0.287 OA
ATOM      8  C   UNL     1       6.592  -1.461  25.000  0.00  0.00    +0.065 A 
ATOM      9  C   UNL     1       5.845  -0.310  24.837  0.00  0.00    +0.029 A 
ATOM     10  C   UNL     1       6.445   0.858  24.333  0.00  0.00    +0.046 A 
ATOM     11  C   UNL     1       5.546   2.017  24.245  0.00  0.00    +0.190 A 
ATOM     12  O   UNL     1       4.365   1.971  24.562  0.00  0.00    -0.287 OA
ATOM     13  C   UNL     1       6.092   3.272  23.755  0.00  0.00    +0.084 A 
ATOM     14  C   UNL     1       7.356   3.327  23.321  0.00  0.00    +0.131 A 
ATOM     15  N   UNL     1       8.276   2.240  23.404  0.00  0.00    -0.335 N 
ATOM     16  C   UNL     1       7.819   0.944  23.944  0.00  0.00    +0.060 A 
ENDROOT
BRANCH   4  17
ATOM     17  C   UNL     1       8.988  -4.938  25.525  0.00  0.00    +0.373 C 
ATOM     18  O   UNL     1      10.050  -5.117  24.955  0.00  0.00    -0.242 OA
BRANCH  17  19
ATOM     19  O   UNL     1       8.458  -5.826  26.395  0.00  0.00    -0.475 OA
ATOM     20  H   UNL     1       7.483  -5.781  26.439  0.00  0.00    +0.296 HD
ENDBRANCH  17  19
ENDBRANCH   4  17
BRANCH  14  21
ATOM     21  C   UNL     1       7.678   4.743  22.869  0.00  0.00    +0.354 C 
ATOM     22  O   UNL     1       8.243   5.573  23.553  0.00  0.00    -0.243 OA
BRANCH  21  23
ATOM     23  O   UNL     1       7.234   5.071  21.628  0.00  0.00    -0.476 OA
ATOM     24  H   UNL     1       7.601   4.594  20.862  0.00  0.00    +0.295 HD
ENDBRANCH  21  23
ENDBRANCH  14  21
BRANCH  15  25
ATOM     25  C   UNL     1       9.663   2.217  22.901  0.00  0.00    +0.119 C 
ATOM     26  C   UNL     1      10.800   3.028  23.472  0.00  0.00    +0.027 C 
ENDBRANCH  15  25
BRANCH   1  27
ATOM     27  C   UNL     1      10.087  -0.502  23.912  0.00  0.00    +0.041 C 
BRANCH  27  29
ATOM     28  C   UNL     1       9.477  -0.971  21.510  0.00  0.00    +0.004 C 
ATOM     29  C   UNL     1      10.369  -1.369  22.677  0.00  0.00    +0.001 C 
ENDBRANCH  27  29
ENDBRANCH   1  27
TORSDOF 7
ENDMDL
MODEL 4
REMARK VINA RESULT:      -6.5      1.901      7.562
REMARK  Name = 
REMARK  9 active torsions:
REMARK  status: ('A' for Active; 'I' for Inactive)
REMARK    1  A    between atoms: C_1  and  C_2
REMARK    2  A    between atoms: C_2  and  C_3
REMARK    3  A    between atoms: C_3  and  C_4
REMARK    4  A    between atoms: N_6  and  C_7
REMARK    5  A    between atoms: C_7  and  C_8
REMARK    6  A    between atoms: C_9  and  C_25
REMARK    7  A    between atoms: C_18  and  C_22
REMARK    8  A    between atoms: C_22  and  O_23
REMARK    9  A    between atoms: C_25  and  O_26
REMARK                            x       y       z     vdW  Elec       q    Type
REMARK                         _______ _______ _______ _____ _____    ______ ____
ROOT
ATOM      1  C   UNL     1       8.744  -1.274  24.680  0.00  0.00    +0.020 A 
ATOM      2  C   UNL     1       8.706   0.167  24.737  0.00  0.00    +0.145 A 
ATOM      3  O   UNL     1       9.583   0.871  23.926  0.00  0.00    -0.448 OA
ATOM      4  C   UNL     1       9.591   2.254  23.961  0.00  0.00    +0.215 A 
ATOM      5  C   UNL     1       8.786   3.000  24.726  0.00  0.00    +0.105 A 
ATOM      6  C   UNL     1       7.821   2.321  25.593  0.00  0.00    +0.193 A 
ATOM      7  O   UNL     1       7.063   2.959  26.308  0.00  0.00    -0.287 OA
ATOM      8  C   UNL     1       7.822   0.850  25.561  0.00  0.00    +0.065 A 
ATOM      9  C   UNL     1       6.931   0.135  26.337  0.00  0.00    +0.029 A 
ATOM     10  C   UNL     1       6.928  -1.271  26.298  0.00  0.00    +0.046 A 
ATOM     11  C   UNL     1       5.905  -1.903  27.143  0.00  0.00    +0.190 A 
ATOM     12  O   UNL     1       5.131  -1.265  27.844  0.00  0.00    -0.287 OA
ATOM     13  C   UNL     1       5.818  -3.354  27.144  0.00  0.00    +0.084 A 
ATOM     14  C   UNL     1       6.708  -4.077  26.456  0.00  0.00    +0.131 A 
ATOM     15  N   UNL     1       7.704  -3.516  25.603  0.00  0.00    -0.335 N 
ATOM     16  C   UNL     1       7.824  -2.048  25.499  0.00  0.00    +0.060 A 
ENDROOT
BRANCH   4  17
ATOM     17  C   UNL     1      10.564   2.968  23.089  0.00  0.00    +0.373 C 
ATOM     18  O   UNL     1      11.347   3.818  23.475  0.00  0.00    -0.242 OA
BRANCH  17  19
ATOM     19  O   UNL     1      10.487   2.563  21.803  0.00  0.00    -0.475 OA
ATOM     20  H   UNL     1       9.877   3.107  21.267  0.00  0.00    +0.296 HD
ENDBRANCH  17  19
ENDBRANCH   4  17
BRANCH  14  21
ATOM     21  C   UNL     1       6.396  -5.557  26.618  0.00  0.00    +0.354 C 
ATOM     22  O   UNL     1       5.606  -6.175  25.931  0.00  0.00    -0.243 OA
BRANCH  21  23
ATOM     23  O   UNL     1       7.027  -6.173  27.651  0.00  0.00    -0.476 OA
ATOM     24  H   UNL     1       7.346  -7.084  27.523  0.00  0.00    +0.295 HD
ENDBRANCH  21  23
ENDBRANCH  14  21
BRANCH  15  25
ATOM     25  C   UNL     1       8.744  -4.250  24.857  0.00  0.00    +0.119 C 
ATOM     26  C   UNL     1       9.853  -5.053  25.491  0.00  0.00    +0.027 C 
ENDBRANCH  15  25
BRANCH   1  27
ATOM     27  C   UNL     1       9.764  -1.779  23.655  0.00  0.00    +0.041 C 
BRANCH  27  29
ATOM     28  C   UNL     1       9.503  -0.872  21.315  0.00  0.00    +0.004 C 
ATOM     29  C   UNL     1       9.142  -2.002  22.269  0.00  0.00    +0.001 C 
ENDBRANCH  27  29
ENDBRANCH   1  27
TORSDOF 7
ENDMDL
MODEL 5
REMARK VINA RESULT:      -6.4      2.820      7.885
REMARK  Name = 
REMARK  9 active torsions:
REMARK  status: ('A' for Active; 'I' for Inactive)
REMARK    1  A    between atoms: C_1  and  C_2
REMARK    2  A    between atoms: C_2  and  C_3
REMARK    3  A    between atoms: C_3  and  C_4
REMARK    4  A    between atoms: N_6  and  C_7
REMARK    5  A    between atoms: C_7  and  C_8
REMARK    6  A    between atoms: C_9  and  C_25
REMARK    7  A    between atoms: C_18  and  C_22
REMARK    8  A    between atoms: C_22  and  O_23
REMARK    9  A    between atoms: C_25  and  O_26
REMARK                            x       y       z     vdW  Elec       q    Type
REMARK                         _______ _______ _______ _____ _____    ______ ____
ROOT
ATOM      1  C   UNL     1       7.936   1.149  22.751  0.00  0.00    +0.020 A 
ATOM      2  C   UNL     1       7.278   2.353  23.196  0.00  0.00    +0.145 A 
ATOM      3  O   UNL     1       7.746   3.564  22.709  0.00  0.00    -0.448 OA
ATOM      4  C   UNL     1       7.154   4.745  23.122  0.00  0.00    +0.215 A 
ATOM      5  C   UNL     1       6.122   4.822  23.969  0.00  0.00    +0.105 A 
ATOM      6  C   UNL     1       5.565   3.580  24.506  0.00  0.00    +0.193 A 
ATOM      7  O   UNL     1       4.620   3.599  25.280  0.00  0.00    -0.287 OA
ATOM      8  C   UNL     1       6.203   2.327  24.072  0.00  0.00    +0.065 A 
ATOM      9  C   UNL     1       5.725   1.110  24.521  0.00  0.00    +0.029 A 
ATOM     10  C   UNL     1       6.332  -0.087  24.098  0.00  0.00    +0.046 A 
ATOM     11  C   UNL     1       5.702  -1.308  24.621  0.00  0.00    +0.190 A 
ATOM     12  O   UNL     1       4.742  -1.291  25.380  0.00  0.00    -0.287 OA
ATOM     13  C   UNL     1       6.253  -2.591  24.215  0.00  0.00    +0.084 A 
ATOM     14  C   UNL     1       7.353  -2.635  23.457  0.00  0.00    +0.131 A 
ATOM     15  N   UNL     1       7.990  -1.484  22.905  0.00  0.00    -0.335 N 
ATOM     16  C   UNL     1       7.460  -0.143  23.221  0.00  0.00    +0.060 A 
ENDROOT
BRANCH   4  17
ATOM     17  C   UNL     1       7.704   6.023  22.591  0.00  0.00    +0.373 C 
ATOM     18  O   UNL     1       8.303   6.850  23.256  0.00  0.00    -0.242 OA
BRANCH  17  19
ATOM     19  O   UNL     1       7.464   6.170  21.270  0.00  0.00    -0.475 OA
ATOM     20  H   UNL     1       7.616   7.081  20.954  0.00  0.00    +0.296 HD
ENDBRANCH  17  19
ENDBRANCH   4  17
BRANCH  14  21
ATOM     21  C   UNL     1       7.717  -4.085  23.173  0.00  0.00    +0.354 C 
ATOM     22  O   UNL     1       7.213  -4.764  22.300  0.00  0.00    -0.243 OA
BRANCH  21  23
ATOM     23  O   UNL     1       8.633  -4.629  24.016  0.00  0.00    -0.476 OA
ATOM     24  H   UNL     1       9.281  -5.259  23.653  0.00  0.00    +0.295 HD
ENDBRANCH  21  23
ENDBRANCH  14  21
BRANCH  15  25
ATOM     25  C   UNL     1       9.230  -1.458  22.106  0.00  0.00    +0.119 C 
ATOM     26  C   UNL     1      10.609  -1.747  22.647  0.00  0.00    +0.027 C 
ENDBRANCH  15  25
BRANCH   1  27
ATOM     27  C   UNL     1       9.053   1.445  21.745  0.00  0.00    +0.041 C 
BRANCH  27  29
ATOM     28  C   UNL     1      10.525   1.589  23.789  0.00  0.00    +0.004 C 
ATOM     29  C   UNL     1      10.258   2.139  22.395  0.00  0.00    +0.001 C 
ENDBRANCH  27  29
ENDBRANCH   1  27
TORSDOF 7
ENDMDL
MODEL 6
REMARK VINA RESULT:      -6.2      3.411      6.736
REMARK  Name = 
REMARK  9 active torsions:
REMARK  status: ('A' for Active; 'I' for Inactive)
REMARK    1  A    between atoms: C_1  and  C_2
REMARK    2  A    between atoms: C_2  and  C_3
REMARK    3  A    between atoms: C_3  and  C_4
REMARK    4  A    between atoms: N_6  and  C_7
REMARK    5  A    between atoms: C_7  and  C_8
REMARK    6  A    between atoms: C_9  and  C_25
REMARK    7  A    between atoms: C_18  and  C_22
REMARK    8  A    between atoms: C_22  and  O_23
REMARK    9  A    between atoms: C_25  and  O_26
REMARK                            x       y       z     vdW  Elec       q    Type
REMARK                         _______ _______ _______ _____ _____    ______ ____
ROOT
ATOM      1  C   UNL     1       6.098  -2.088  24.263  0.00  0.00    +0.020 A 
ATOM      2  C   UNL     1       7.318  -1.415  23.886  0.00  0.00    +0.145 A 
ATOM      3  O   UNL     1       7.581  -0.181  24.462  0.00  0.00    -0.448 OA
ATOM      4  C   UNL     1       8.731   0.505  24.117  0.00  0.00    +0.215 A 
ATOM      5  C   UNL     1       9.653   0.061  23.256  0.00  0.00    +0.105 A 
ATOM      6  C   UNL     1       9.448  -1.244  22.626  0.00  0.00    +0.193 A 
ATOM      7  O   UNL     1      10.263  -1.694  21.835  0.00  0.00    -0.287 OA
ATOM      8  C   UNL     1       8.219  -1.968  22.987  0.00  0.00    +0.065 A 
ATOM      9  C   UNL     1       7.959  -3.214  22.448  0.00  0.00    +0.029 A 
ATOM     10  C   UNL     1       6.787  -3.907  22.803  0.00  0.00    +0.046 A 
ATOM     11  C   UNL     1       6.655  -5.235  22.187  0.00  0.00    +0.190 A 
ATOM     12  O   UNL     1       7.482  -5.696  21.411  0.00  0.00    -0.287 OA
ATOM     13  C   UNL     1       5.483  -6.029  22.517  0.00  0.00    +0.084 A 
ATOM     14  C   UNL     1       4.523  -5.514  23.293  0.00  0.00    +0.131 A 
ATOM     15  N   UNL     1       4.612  -4.243  23.934  0.00  0.00    -0.335 N 
ATOM     16  C   UNL     1       5.797  -3.394  23.698  0.00  0.00    +0.060 A 
ENDROOT
BRANCH   4  17
ATOM     17  C   UNL     1       8.962   1.837  24.743  0.00  0.00    +0.373 C 
ATOM     18  O   UNL     1       9.677   2.707  24.278  0.00  0.00    -0.242 OA
BRANCH  17  19
ATOM     19  O   UNL     1       8.281   1.979  25.901  0.00  0.00    -0.475 OA
ATOM     20  H   UNL     1       8.480   2.819  26.359  0.00  0.00    +0.296 HD
ENDBRANCH  17  19
ENDBRANCH   4  17
BRANCH  14  21
ATOM     21  C   UNL     1       3.419  -6.542  23.487  0.00  0.00    +0.354 C 
ATOM     22  O   UNL     1       2.266  -6.390  23.133  0.00  0.00    -0.243 OA
BRANCH  21  23
ATOM     23  O   UNL     1       3.783  -7.666  24.156  0.00  0.00    -0.476 OA
ATOM     24  H   UNL     1       4.449  -8.251  23.752  0.00  0.00    +0.295 HD
ENDBRANCH  21  23
ENDBRANCH  14  21
BRANCH  15  25
ATOM     25  C   UNL     1       3.574  -3.594  24.759  0.00  0.00    +0.119 C 
ATOM     26  C   UNL     1       3.093  -4.106  26.094  0.00  0.00    +0.027 C 
ENDBRANCH  15  25
BRANCH   1  27
ATOM     27  C   UNL     1       5.308  -1.296  25.309  0.00  0.00    +0.041 C 
BRANCH  27  29
ATOM     28  C   UNL     1       5.828  -0.292  27.563  0.00  0.00    +0.004 C 
ATOM     29  C   UNL     1       5.790  -1.571  26.740  0.00  0.00    +0.001 C 
ENDBRANCH  27  29
ENDBRANCH   1  27
TORSDOF 7
ENDMDL
MODEL 7
REMARK VINA RESULT:      -6.1      1.756      2.682
REMARK  Name = 
REMARK  9 active torsions:
REMARK  status: ('A' for Active; 'I' for Inactive)
REMARK    1  A    between atoms: C_1  and  C_2
REMARK    2  A    between atoms: C_2  and  C_3
REMARK    3  A    between atoms: C_3  and  C_4
REMARK    4  A    between atoms: N_6  and  C_7
REMARK    5  A    between atoms: C_7  and  C_8
REMARK    6  A    between atoms: C_9  and  C_25
REMARK    7  A    between atoms: C_18  and  C_22
REMARK    8  A    between atoms: C_22  and  O_23
REMARK    9  A    between atoms: C_25  and  O_26
REMARK                            x       y       z     vdW  Elec       q    Type
REMARK                         _______ _______ _______ _____ _____    ______ ____
ROOT
ATOM      1  C   UNL     1       7.886   0.063  26.113  0.00  0.00    +0.020 A 
ATOM      2  C   UNL     1       8.389  -1.207  25.648  0.00  0.00    +0.145 A 
ATOM      3  O   UNL     1       7.985  -2.350  26.323  0.00  0.00    -0.448 OA
ATOM      4  C   UNL     1       8.456  -3.587  25.921  0.00  0.00    +0.215 A 
ATOM      5  C   UNL     1       9.286  -3.787  24.890  0.00  0.00    +0.105 A 
ATOM      6  C   UNL     1       9.736  -2.625  24.121  0.00  0.00    +0.193 A 
ATOM      7  O   UNL     1      10.491  -2.757  23.170  0.00  0.00    -0.287 OA
ATOM      8  C   UNL     1       9.241  -1.310  24.558  0.00  0.00    +0.065 A 
ATOM      9  C   UNL     1       9.606  -0.166  23.874  0.00  0.00    +0.029 A 
ATOM     10  C   UNL     1       9.125   1.090  24.289  0.00  0.00    +0.046 A 
ATOM     11  C   UNL     1       9.560   2.216  23.452  0.00  0.00    +0.190 A 
ATOM     12  O   UNL     1      10.300   2.083  22.485  0.00  0.00    -0.287 OA
ATOM     13  C   UNL     1       9.090   3.548  23.797  0.00  0.00    +0.084 A 
ATOM     14  C   UNL     1       8.352   3.732  24.897  0.00  0.00    +0.131 A 
ATOM     15  N   UNL     1       7.883   2.673  25.730  0.00  0.00    -0.335 N 
ATOM     16  C   UNL     1       8.268   1.282  25.417  0.00  0.00    +0.060 A 
ENDROOT
BRANCH   4  17
ATOM     17  C   UNL     1       8.015  -4.784  26.688  0.00  0.00    +0.373 C 
ATOM     18  O   UNL     1       7.202  -4.766  27.596  0.00  0.00    -0.242 OA
BRANCH  17  19
ATOM     19  O   UNL     1       8.621  -5.914  26.260  0.00  0.00    -0.475 OA
ATOM     20  H   UNL     1       9.467  -6.089  26.716  0.00  0.00    +0.296 HD
ENDBRANCH  17  19
ENDBRANCH   4  17
BRANCH  14  21
ATOM     21  C   UNL     1       7.989   5.203  25.026  0.00  0.00    +0.354 C 
ATOM     22  O   UNL     1       8.444   5.954  25.867  0.00  0.00    -0.243 OA
BRANCH  21  23
ATOM     23  O   UNL     1       7.048   5.648  24.154  0.00  0.00    -0.476 OA
ATOM     24  H   UNL     1       7.322   6.258  23.447  0.00  0.00    +0.295 HD
ENDBRANCH  21  23
ENDBRANCH  14  21
BRANCH  15  25
ATOM     25  C   UNL     1       7.112   2.808  26.980  0.00  0.00    +0.119 C 
ATOM     26  C   UNL     1       5.695   3.319  27.066  0.00  0.00    +0.027 C 
ENDBRANCH  15  25
BRANCH   1  27
ATOM     27  C   UNL     1       6.922  -0.101  27.292  0.00  0.00    +0.041 C 
BRANCH  27  29
ATOM     28  C   UNL     1       4.504  -0.248  27.992  0.00  0.00    +0.004 C 
ATOM     29  C   UNL     1       5.486  -0.396  26.839  0.00  0.00    +0.001 C 
ENDBRANCH  27  29
ENDBRANCH   1  27
TORSDOF 7
ENDMDL
MODEL 8
REMARK VINA RESULT:      -6.0      2.094      6.737
REMARK  Name = 
REMARK  9 active torsions:
REMARK  status: ('A' for Active; 'I' for Inactive)
REMARK    1  A    between atoms: C_1  and  C_2
REMARK    2  A    between atoms: C_2  and  C_3
REMARK    3  A    between atoms: C_3  and  C_4
REMARK    4  A    between atoms: N_6  and  C_7
REMARK    5  A    between atoms: C_7  and  C_8
REMARK    6  A    between atoms: C_9  and  C_25
REMARK    7  A    between atoms: C_18  and  C_22
REMARK    8  A    between atoms: C_22  and  O_23
REMARK    9  A    between atoms: C_25  and  O_26
REMARK                            x       y       z     vdW  Elec       q    Type
REMARK                         _______ _______ _______ _____ _____    ______ ____
ROOT
ATOM      1  C   UNL     1       6.556  -0.448  24.605  0.00  0.00    +0.020 A 
ATOM      2  C   UNL     1       7.192   0.571  23.805  0.00  0.00    +0.145 A 
ATOM      3  O   UNL     1       6.541   1.788  23.670  0.00  0.00    -0.448 OA
ATOM      4  C   UNL     1       7.108   2.787  22.899  0.00  0.00    +0.215 A 
ATOM      5  C   UNL     1       8.280   2.684  22.262  0.00  0.00    +0.105 A 
ATOM      6  C   UNL     1       9.030   1.433  22.379  0.00  0.00    +0.193 A 
ATOM      7  O   UNL     1      10.106   1.292  21.817  0.00  0.00    -0.287 OA
ATOM      8  C   UNL     1       8.420   0.368  23.191  0.00  0.00    +0.065 A 
ATOM      9  C   UNL     1       9.072  -0.837  23.364  0.00  0.00    +0.029 A 
ATOM     10  C   UNL     1       8.490  -1.850  24.149  0.00  0.00    +0.046 A 
ATOM     11  C   UNL     1       9.307  -3.065  24.280  0.00  0.00    +0.190 A 
ATOM     12  O   UNL     1      10.396  -3.199  23.736  0.00  0.00    -0.287 OA
ATOM     13  C   UNL     1       8.790  -4.153  25.093  0.00  0.00    +0.084 A 
ATOM     14  C   UNL     1       7.567  -4.066  25.627  0.00  0.00    +0.131 A 
ATOM     15  N   UNL     1       6.743  -2.904  25.549  0.00  0.00    -0.335 N 
ATOM     16  C   UNL     1       7.218  -1.730  24.790  0.00  0.00    +0.060 A 
ENDROOT
BRANCH   4  17
ATOM     17  C   UNL     1       6.363   4.070  22.763  0.00  0.00    +0.373 C 
ATOM     18  O   UNL     1       5.379   4.374  23.414  0.00  0.00    -0.242 OA
BRANCH  17  19
ATOM     19  O   UNL     1       6.907   4.875  21.824  0.00  0.00    -0.475 OA
ATOM     20  H   UNL     1       7.757   4.540  21.480  0.00  0.00    +0.296 HD
ENDBRANCH  17  19
ENDBRANCH   4  17
BRANCH  14  21
ATOM     21  C   UNL     1       7.270  -5.325  26.427  0.00  0.00    +0.354 C 
ATOM     22  O   UNL     1       6.304  -6.041  26.252  0.00  0.00    -0.243 OA
BRANCH  21  23
ATOM     23  O   UNL     1       8.144  -5.594  27.431  0.00  0.00    -0.476 OA
ATOM     24  H   UNL     1       9.036  -5.205  27.386  0.00  0.00    +0.295 HD
ENDBRANCH  21  23
ENDBRANCH  14  21
BRANCH  15  25
ATOM     25  C   UNL     1       5.370  -2.758  26.070  0.00  0.00    +0.119 C 
ATOM     26  C   UNL     1       4.990  -2.833  27.528  0.00  0.00    +0.027 C 
ENDBRANCH  15  25
BRANCH   1  27
ATOM     27  C   UNL     1       5.240   0.044  25.217  0.00  0.00    +0.041 C 
BRANCH  27  29
ATOM     28  C   UNL     1       4.132   0.903  27.314  0.00  0.00    +0.004 C 
ATOM     29  C   UNL     1       5.448   0.748  26.564  0.00  0.00    +0.001 C 
ENDBRANCH  27  29
ENDBRANCH   1  27
TORSDOF 7
ENDMDL
MODEL 9
REMARK VINA RESULT:      -6.0      3.247      7.483
REMARK  Name = 
REMARK  9 active torsions:
REMARK  status: ('A' for Active; 'I' for Inactive)
REMARK    1  A    between atoms: C_1  and  C_2
REMARK    2  A    between atoms: C_2  and  C_3
REMARK    3  A    between atoms: C_3  and  C_4
REMARK    4  A    between atoms: N_6  and  C_7
REMARK    5  A    between atoms: C_7  and  C_8
REMARK    6  A    between atoms: C_9  and  C_25
REMARK    7  A    between atoms: C_18  and  C_22
REMARK    8  A    between atoms: C_22  and  O_23
REMARK    9  A    between atoms: C_25  and  O_26
REMARK                            x       y       z     vdW  Elec       q    Type
REMARK                         _______ _______ _______ _____ _____    ______ ____
ROOT
ATOM      1  C   UNL     1       7.374  -2.506  24.009  0.00  0.00    +0.020 A 
ATOM      2  C   UNL     1       7.508  -1.150  24.485  0.00  0.00    +0.145 A 
ATOM      3  O   UNL     1       8.692  -0.482  24.209  0.00  0.00    -0.448 OA
ATOM      4  C   UNL     1       8.869   0.814  24.661  0.00  0.00    +0.215 A 
ATOM      5  C   UNL     1       7.960   1.510  25.352  0.00  0.00    +0.105 A 
ATOM      6  C   UNL     1       6.679   0.871  25.660  0.00  0.00    +0.193 A 
ATOM      7  O   UNL     1       5.816   1.467  26.287  0.00  0.00    -0.287 OA
ATOM      8  C   UNL     1       6.498  -0.510  25.188  0.00  0.00    +0.065 A 
ATOM      9  C   UNL     1       5.311  -1.177  25.424  0.00  0.00    +0.029 A 
ATOM     10  C   UNL     1       5.137  -2.495  24.963  0.00  0.00    +0.046 A 
ATOM     11  C   UNL     1       3.815  -3.072  25.249  0.00  0.00    +0.190 A 
ATOM     12  O   UNL     1       2.942  -2.468  25.858  0.00  0.00    -0.287 OA
ATOM     13  C   UNL     1       3.543  -4.423  24.788  0.00  0.00    +0.084 A 
ATOM     14  C   UNL     1       4.509  -5.135  24.197  0.00  0.00    +0.131 A 
ATOM     15  N   UNL     1       5.799  -4.618  23.875  0.00  0.00    -0.335 N 
ATOM     16  C   UNL     1       6.139  -3.233  24.258  0.00  0.00    +0.060 A 
ENDROOT
BRANCH   4  17
ATOM     17  C   UNL     1      10.164   1.486  24.361  0.00  0.00    +0.373 C 
ATOM     18  O   UNL     1      11.259   0.963  24.472  0.00  0.00    -0.242 OA
BRANCH  17  19
ATOM     19  O   UNL     1       9.992   2.760  23.945  0.00  0.00    -0.475 OA
ATOM     20  H   UNL     1      10.608   3.014  23.231  0.00  0.00    +0.296 HD
ENDBRANCH  17  19
ENDBRANCH   4  17
BRANCH  14  21
ATOM     21  C   UNL     1       3.969  -6.503  23.810  0.00  0.00    +0.354 C 
ATOM     22  O   UNL     1       4.122  -7.515  24.465  0.00  0.00    -0.243 OA
BRANCH  21  23
ATOM     23  O   UNL     1       3.326  -6.556  22.615  0.00  0.00    -0.476 OA
ATOM     24  H   UNL     1       2.580  -7.174  22.516  0.00  0.00    +0.295 HD
ENDBRANCH  21  23
ENDBRANCH  14  21
BRANCH  15  25
ATOM     25  C   UNL     1       6.923  -5.359  23.273  0.00  0.00    +0.119 C 
ATOM     26  C   UNL     1       6.947  -5.886  21.859  0.00  0.00    +0.027 C 
ENDBRANCH  15  25
BRANCH   1  27
ATOM     27  C   UNL     1       8.604  -2.958  23.216  0.00  0.00    +0.041 C 
BRANCH  27  29
ATOM     28  C   UNL     1       9.529  -4.254  25.172  0.00  0.00    +0.004 C 
ATOM     29  C   UNL     1       9.825  -3.200  24.114  0.00  0.00    +0.001 C 
ENDBRANCH  27  29
ENDBRANCH   1  27
TORSDOF 7
ENDMDL
