MODEL 1
REMARK VINA RESULT:      -7.1      0.000      0.000
REMARK  Name = 
REMARK  12 active torsions:
REMARK  status: ('A' for Active; 'I' for Inactive)
REMARK    1  A    between atoms: C_1  and  O_2
REMARK    2  A    between atoms: O_2  and  C_3
REMARK    3  A    between atoms: C_3  and  C_5
REMARK    4  A    between atoms: C_3  and  C_30
REMARK    5  A    between atoms: C_5  and  C_6
REMARK    6  A    between atoms: C_9  and  O_10
REMARK    7  A    between atoms: O_10  and  C_11
REMARK    8  A    between atoms: C_11  and  C_12
REMARK    9  A    between atoms: C_12  and  C_13
REMARK   10  A    between atoms: C_14  and  C_15
REMARK   11  A    between atoms: C_17  and  C_19
REMARK   12  A    between atoms: C_30  and  O_31
REMARK                            x       y       z     vdW  Elec       q    Type
REMARK                         _______ _______ _______ _____ _____    ______ ____
ROOT
ATOM      1  C   UNL     1       5.606  -4.247  25.191  0.00  0.00    -0.030 A 
ATOM      2  C   UNL     1       6.999  -4.464  25.346  0.00  0.00    +0.026 A 
ATOM      3  S   UNL     1       7.811  -5.152  26.712  0.00  0.00    -0.096 S 
ATOM      4  C   UNL     1       9.345  -4.992  26.000  0.00  0.00    +0.046 A 
ATOM      5  C   UNL     1       9.271  -4.425  24.753  0.00  0.00    +0.020 A 
ATOM      6  C   UNL     1       7.924  -4.120  24.342  0.00  0.00    +0.031 A 
ATOM      7  C   UNL     1       7.452  -3.538  23.132  0.00  0.00    +0.129 A 
ATOM      8  C   UNL     1       6.075  -3.385  22.956  0.00  0.00    +0.046 A 
ATOM      9  C   UNL     1       5.182  -3.742  23.952  0.00  0.00    +0.008 A 
ENDROOT
BRANCH   1  10
ATOM     10  C   UNL     1       4.574  -4.496  26.278  0.00  0.00    +0.079 C 
BRANCH  10  11
ATOM     11  C   UNL     1       3.579  -5.627  25.956  0.00  0.00    +0.230 C 
BRANCH  11  13
ATOM     12  C   UNL     1       1.475  -6.647  26.516  0.00  0.00    +0.195 C 
ATOM     13  O   UNL     1       2.546  -5.814  26.950  0.00  0.00    -0.368 OA
ENDBRANCH  11  13
BRANCH  11  14
ATOM     14  C   UNL     1       4.318  -6.962  25.795  0.00  0.00    +0.334 C 
ATOM     15  O   UNL     1       4.344  -7.630  24.773  0.00  0.00    -0.248 OA
BRANCH  14  16
ATOM     16  O   UNL     1       4.937  -7.343  26.943  0.00  0.00    -0.479 OA
ATOM     17  H   UNL     1       5.594  -6.644  27.168  0.00  0.00    +0.295 HD
ENDBRANCH  14  16
ENDBRANCH  11  14
ENDBRANCH  10  11
ENDBRANCH   1  10
BRANCH   7  18
ATOM     18  O   UNL     1       8.385  -3.156  22.193  0.00  0.00    -0.491 OA
BRANCH  18  19
ATOM     19  C   UNL     1       8.554  -1.745  22.021  0.00  0.00    +0.235 C 
BRANCH  19  20
ATOM     20  C   UNL     1       9.973  -1.335  22.402  0.00  0.00    +0.100 C 
BRANCH  20  21
ATOM     21  C   UNL     1       9.960  -0.129  23.270  0.00  0.00    +0.086 A 
ATOM     22  N   UNL     1      10.336   1.087  22.756  0.00  0.00    -0.214 NA
ATOM     23  C   UNL     1      10.166   1.937  23.750  0.00  0.00    +0.228 A 
ATOM     24  O   UNL     1       9.695   1.358  24.902  0.00  0.00    -0.440 OA
ATOM     25  C   UNL     1       9.562   0.030  24.581  0.00  0.00    +0.126 A 
ATOM     26  C   UNL     1       9.040  -0.867  25.626  0.00  0.00    +0.088 C 
BRANCH  23  27
ATOM     27  C   UNL     1      10.395   3.380  23.743  0.00  0.00    +0.037 A 
ATOM     28  C   UNL     1       9.349   4.225  24.152  0.00  0.00    +0.013 A 
ATOM     29  C   UNL     1       9.507   5.609  24.185  0.00  0.00    +0.001 A 
ATOM     30  C   UNL     1      10.722   6.174  23.810  0.00  0.00    +0.000 A 
ATOM     31  C   UNL     1      11.772   5.354  23.395  0.00  0.00    +0.001 A 
ATOM     32  C   UNL     1      11.611   3.963  23.362  0.00  0.00    +0.013 A 
ENDBRANCH  23  27
ENDBRANCH  20  21
ENDBRANCH  19  20
ENDBRANCH  18  19
ENDBRANCH   7  18
TORSDOF 10
ENDMDL
MODEL 2
REMARK VINA RESULT:      -7.0      1.748      2.270
REMARK  Name = 
REMARK  12 active torsions:
REMARK  status: ('A' for Active; 'I' for Inactive)
REMARK    1  A    between atoms: C_1  and  O_2
REMARK    2  A    between atoms: O_2  and  C_3
REMARK    3  A    between atoms: C_3  and  C_5
REMARK    4  A    between atoms: C_3  and  C_30
REMARK    5  A    between atoms: C_5  and  C_6
REMARK    6  A    between atoms: C_9  and  O_10
REMARK    7  A    between atoms: O_10  and  C_11
REMARK    8  A    between atoms: C_11  and  C_12
REMARK    9  A    between atoms: C_12  and  C_13
REMARK   10  A    between atoms: C_14  and  C_15
REMARK   11  A    between atoms: C_17  and  C_19
REMARK   12  A    between atoms: C_30  and  O_31
REMARK                            x       y       z     vdW  Elec       q    Type
REMARK                         _______ _______ _______ _____ _____    ______ ____
ROOT
ATOM      1  C   UNL     1       5.959  -3.693  23.971  0.00  0.00    -0.030 A 
ATOM      2  C   UNL     1       7.103  -4.136  24.683  0.00  0.00    +0.026 A 
ATOM      3  S   UNL     1       7.139  -5.111  26.114  0.00  0.00    -0.096 S 
ATOM      4  C   UNL     1       8.836  -5.093  26.197  0.00  0.00    +0.046 A 
ATOM      5  C   UNL     1       9.388  -4.363  25.174  0.00  0.00    +0.020 A 
ATOM      6  C   UNL     1       8.410  -3.807  24.275  0.00  0.00    +0.031 A 
ATOM      7  C   UNL     1       8.593  -3.008  23.112  0.00  0.00    +0.129 A 
ATOM      8  C   UNL     1       7.468  -2.628  22.376  0.00  0.00    +0.046 A 
ATOM      9  C   UNL     1       6.192  -2.974  22.790  0.00  0.00    +0.008 A 
ENDROOT
BRANCH   1  10
ATOM     10  C   UNL     1       4.526  -3.924  24.423  0.00  0.00    +0.079 C 
BRANCH  10  11
ATOM     11  C   UNL     1       3.734  -4.899  23.532  0.00  0.00    +0.230 C 
BRANCH  11  13
ATOM     12  C   UNL     1       1.445  -5.427  23.020  0.00  0.00    +0.195 C 
ATOM     13  O   UNL     1       2.422  -5.238  24.039  0.00  0.00    -0.368 OA
ENDBRANCH  11  13
BRANCH  11  14
ATOM     14  C   UNL     1       4.512  -6.207  23.344  0.00  0.00    +0.334 C 
ATOM     15  O   UNL     1       4.657  -7.067  24.199  0.00  0.00    -0.248 OA
BRANCH  14  16
ATOM     16  O   UNL     1       5.055  -6.302  22.101  0.00  0.00    -0.479 OA
ATOM     17  H   UNL     1       5.133  -5.386  21.745  0.00  0.00    +0.295 HD
ENDBRANCH  14  16
ENDBRANCH  11  14
ENDBRANCH  10  11
ENDBRANCH   1  10
BRANCH   7  18
ATOM     18  O   UNL     1       9.879  -2.652  22.770  0.00  0.00    -0.491 OA
BRANCH  18  19
ATOM     19  C   UNL     1      10.128  -1.246  22.660  0.00  0.00    +0.235 C 
BRANCH  19  20
ATOM     20  C   UNL     1      10.183  -0.613  24.046  0.00  0.00    +0.100 C 
BRANCH  20  21
ATOM     21  C   UNL     1       9.243   0.534  24.142  0.00  0.00    +0.086 A 
ATOM     22  N   UNL     1       9.586   1.747  23.597  0.00  0.00    -0.214 NA
ATOM     23  C   UNL     1       8.536   2.517  23.804  0.00  0.00    +0.228 A 
ATOM     24  O   UNL     1       7.505   1.886  24.457  0.00  0.00    -0.440 OA
ATOM     25  C   UNL     1       7.969   0.612  24.665  0.00  0.00    +0.126 A 
ATOM     26  C   UNL     1       7.061  -0.335  25.335  0.00  0.00    +0.088 C 
BRANCH  23  27
ATOM     27  C   UNL     1       8.354   3.910  23.403  0.00  0.00    +0.037 A 
ATOM     28  C   UNL     1       9.258   4.869  23.890  0.00  0.00    +0.013 A 
ATOM     29  C   UNL     1       9.152   6.211  23.532  0.00  0.00    +0.001 A 
ATOM     30  C   UNL     1       8.134   6.619  22.675  0.00  0.00    +0.000 A 
ATOM     31  C   UNL     1       7.223   5.684  22.184  0.00  0.00    +0.001 A 
ATOM     32  C   UNL     1       7.331   4.334  22.545  0.00  0.00    +0.013 A 
ENDBRANCH  23  27
ENDBRANCH  20  21
ENDBRANCH  19  20
ENDBRANCH  18  19
ENDBRANCH   7  18
TORSDOF 10
ENDMDL
MODEL 3
REMARK VINA RESULT:      -6.9      1.870      2.684
REMARK  Name = 
REMARK  12 active torsions:
REMARK  status: ('A' for Active; 'I' for Inactive)
REMARK    1  A    between atoms: C_1  and  O_2
REMARK    2  A    between atoms: O_2  and  C_3
REMARK    3  A    between atoms: C_3  and  C_5
REMARK    4  A    between atoms: C_3  and  C_30
REMARK    5  A    between atoms: C_5  and  C_6
REMARK    6  A    between atoms: C_9  and  O_10
REMARK    7  A    between atoms: O_10  and  C_11
REMARK    8  A    between atoms: C_11  and  C_12
REMARK    9  A    between atoms: C_12  and  C_13
REMARK   10  A    between atoms: C_14  and  C_15
REMARK   11  A    between atoms: C_17  and  C_19
REMARK   12  A    between atoms: C_30  and  O_31
REMARK                            x       y       z     vdW  Elec       q    Type
REMARK                         _______ _______ _______ _____ _____    ______ ____
ROOT
ATOM      1  C   UNL     1       5.974  -5.680  25.632  0.00  0.00    -0.030 A 
ATOM      2  C   UNL     1       6.102  -5.512  24.230  0.00  0.00    +0.026 A 
ATOM      3  S   UNL     1       4.984  -6.007  23.004  0.00  0.00    -0.096 S 
ATOM      4  C   UNL     1       5.959  -5.419  21.743  0.00  0.00    +0.046 A 
ATOM      5  C   UNL     1       7.119  -4.858  22.216  0.00  0.00    +0.020 A 
ATOM      6  C   UNL     1       7.224  -4.886  23.653  0.00  0.00    +0.031 A 
ATOM      7  C   UNL     1       8.262  -4.405  24.499  0.00  0.00    +0.129 A 
ATOM      8  C   UNL     1       8.103  -4.513  25.882  0.00  0.00    +0.046 A 
ATOM      9  C   UNL     1       6.985  -5.121  26.428  0.00  0.00    +0.008 A 
ENDROOT
BRANCH   1  10
ATOM     10  C   UNL     1       4.842  -6.441  26.303  0.00  0.00    +0.079 C 
BRANCH  10  11
ATOM     11  C   UNL     1       4.837  -6.337  27.840  0.00  0.00    +0.230 C 
BRANCH  11  13
ATOM     12  C   UNL     1       6.358  -6.862  29.626  0.00  0.00    +0.195 C 
ATOM     13  O   UNL     1       5.622  -7.351  28.508  0.00  0.00    -0.368 OA
ENDBRANCH  11  13
BRANCH  11  14
ATOM     14  C   UNL     1       3.404  -6.426  28.379  0.00  0.00    +0.334 C 
ATOM     15  O   UNL     1       2.657  -5.475  28.550  0.00  0.00    -0.248 OA
BRANCH  14  16
ATOM     16  O   UNL     1       3.050  -7.705  28.676  0.00  0.00    -0.479 OA
ATOM     17  H   UNL     1       3.571  -8.297  28.084  0.00  0.00    +0.295 HD
ENDBRANCH  14  16
ENDBRANCH  11  14
ENDBRANCH  10  11
ENDBRANCH   1  10
BRANCH   7  18
ATOM     18  O   UNL     1       9.375  -3.852  23.903  0.00  0.00    -0.491 OA
BRANCH  18  19
ATOM     19  C   UNL     1       9.690  -2.511  24.298  0.00  0.00    +0.235 C 
BRANCH  19  20
ATOM     20  C   UNL     1       9.958  -1.651  23.068  0.00  0.00    +0.100 C 
BRANCH  20  21
ATOM     21  C   UNL     1       9.507  -0.253  23.291  0.00  0.00    +0.086 A 
ATOM     22  N   UNL     1      10.430   0.759  23.367  0.00  0.00    -0.214 NA
ATOM     23  C   UNL     1       9.713   1.857  23.516  0.00  0.00    +0.228 A 
ATOM     24  O   UNL     1       8.358   1.635  23.542  0.00  0.00    -0.440 OA
ATOM     25  C   UNL     1       8.237   0.276  23.393  0.00  0.00    +0.126 A 
ATOM     26  C   UNL     1       6.872  -0.279  23.355  0.00  0.00    +0.088 C 
BRANCH  23  27
ATOM     27  C   UNL     1      10.193   3.232  23.626  0.00  0.00    +0.037 A 
ATOM     28  C   UNL     1       9.291   4.224  24.047  0.00  0.00    +0.013 A 
ATOM     29  C   UNL     1       9.688   5.551  24.190  0.00  0.00    +0.001 A 
ATOM     30  C   UNL     1      11.003   5.911  23.914  0.00  0.00    +0.000 A 
ATOM     31  C   UNL     1      11.914   4.944  23.489  0.00  0.00    +0.001 A 
ATOM     32  C   UNL     1      11.513   3.609  23.346  0.00  0.00    +0.013 A 
ENDBRANCH  23  27
ENDBRANCH  20  21
ENDBRANCH  19  20
ENDBRANCH  18  19
ENDBRANCH   7  18
TORSDOF 10
ENDMDL
MODEL 4
REMARK VINA RESULT:      -6.9      1.938      2.692
REMARK  Name = 
REMARK  12 active torsions:
REMARK  status: ('A' for Active; 'I' for Inactive)
REMARK    1  A    between atoms: C_1  and  O_2
REMARK    2  A    between atoms: O_2  and  C_3
REMARK    3  A    between atoms: C_3  and  C_5
REMARK    4  A    between atoms: C_3  and  C_30
REMARK    5  A    between atoms: C_5  and  C_6
REMARK    6  A    between atoms: C_9  and  O_10
REMARK    7  A    between atoms: O_10  and  C_11
REMARK    8  A    between atoms: C_11  and  C_12
REMARK    9  A    between atoms: C_12  and  C_13
REMARK   10  A    between atoms: C_14  and  C_15
REMARK   11  A    between atoms: C_17  and  C_19
REMARK   12  A    between atoms: C_30  and  O_31
REMARK                            x       y       z     vdW  Elec       q    Type
REMARK                         _______ _______ _______ _____ _____    ______ ____
ROOT
ATOM      1  C   UNL     1       5.639  -3.873  25.002  0.00  0.00    -0.030 A 
ATOM      2  C   UNL     1       5.851  -4.480  23.738  0.00  0.00    +0.026 A 
ATOM      3  S   UNL     1       5.335  -6.052  23.226  0.00  0.00    -0.096 S 
ATOM      4  C   UNL     1       6.022  -5.878  21.682  0.00  0.00    +0.046 A 
ATOM      5  C   UNL     1       6.641  -4.663  21.535  0.00  0.00    +0.020 A 
ATOM      6  C   UNL     1       6.549  -3.827  22.704  0.00  0.00    +0.031 A 
ATOM      7  C   UNL     1       7.056  -2.516  22.929  0.00  0.00    +0.129 A 
ATOM      8  C   UNL     1       6.790  -1.895  24.151  0.00  0.00    +0.046 A 
ATOM      9  C   UNL     1       6.090  -2.553  25.150  0.00  0.00    +0.008 A 
ENDROOT
BRANCH   1  10
ATOM     10  C   UNL     1       4.991  -4.568  26.189  0.00  0.00    +0.079 C 
BRANCH  10  11
ATOM     11  C   UNL     1       5.697  -5.868  26.620  0.00  0.00    +0.230 C 
BRANCH  11  13
ATOM     12  C   UNL     1       3.441  -6.700  26.595  0.00  0.00    +0.195 C 
ATOM     13  O   UNL     1       4.799  -6.954  26.945  0.00  0.00    -0.368 OA
ENDBRANCH  11  13
BRANCH  11  14
ATOM     14  C   UNL     1       6.585  -5.615  27.845  0.00  0.00    +0.334 C 
ATOM     15  O   UNL     1       6.193  -5.187  28.920  0.00  0.00    -0.248 OA
BRANCH  14  16
ATOM     16  O   UNL     1       7.890  -5.903  27.596  0.00  0.00    -0.479 OA
ATOM     17  H   UNL     1       8.384  -5.771  28.439  0.00  0.00    +0.295 HD
ENDBRANCH  14  16
ENDBRANCH  11  14
ENDBRANCH  10  11
ENDBRANCH   1  10
BRANCH   7  18
ATOM     18  O   UNL     1       7.785  -1.925  21.920  0.00  0.00    -0.491 OA
BRANCH  18  19
ATOM     19  C   UNL     1       9.054  -1.384  22.305  0.00  0.00    +0.235 C 
BRANCH  19  20
ATOM     20  C   UNL     1       9.410  -0.197  21.417  0.00  0.00    +0.100 C 
BRANCH  20  21
ATOM     21  C   UNL     1       9.222   1.084  22.146  0.00  0.00    +0.086 A 
ATOM     22  N   UNL     1      10.305   1.882  22.417  0.00  0.00    -0.214 NA
ATOM     23  C   UNL     1       9.799   2.943  23.016  0.00  0.00    +0.228 A 
ATOM     24  O   UNL     1       8.434   2.901  23.159  0.00  0.00    -0.440 OA
ATOM     25  C   UNL     1       8.074   1.704  22.593  0.00  0.00    +0.126 A 
ATOM     26  C   UNL     1       6.637   1.375  22.569  0.00  0.00    +0.088 C 
BRANCH  23  27
ATOM     27  C   UNL     1      10.511   4.123  23.499  0.00  0.00    +0.037 A 
ATOM     28  C   UNL     1      11.893   4.215  23.259  0.00  0.00    +0.013 A 
ATOM     29  C   UNL     1      12.629   5.322  23.678  0.00  0.00    +0.001 A 
ATOM     30  C   UNL     1      11.991   6.362  24.345  0.00  0.00    +0.000 A 
ATOM     31  C   UNL     1      10.620   6.289  24.598  0.00  0.00    +0.001 A 
ATOM     32  C   UNL     1       9.882   5.176  24.177  0.00  0.00    +0.013 A 
ENDBRANCH  23  27
ENDBRANCH  20  21
ENDBRANCH  19  20
ENDBRANCH  18  19
ENDBRANCH   7  18
TORSDOF 10
ENDMDL
MODEL 5
REMARK VINA RESULT:      -6.9      1.733      2.514
REMARK  Name = 
REMARK  12 active torsions:
REMARK  status: ('A' for Active; 'I' for Inactive)
REMARK    1  A    between atoms: C_1  and  O_2
REMARK    2  A    between atoms: O_2  and  C_3
REMARK    3  A    between atoms: C_3  and  C_5
REMARK    4  A    between atoms: C_3  and  C_30
REMARK    5  A    between atoms: C_5  and  C_6
REMARK    6  A    between atoms: C_9  and  O_10
REMARK    7  A    between atoms: O_10  and  C_11
REMARK    8  A    between atoms: C_11  and  C_12
REMARK    9  A    between atoms: C_12  and  C_13
REMARK   10  A    between atoms: C_14  and  C_15
REMARK   11  A    between atoms: C_17  and  C_19
REMARK   12  A    between atoms: C_30  and  O_31
REMARK                            x       y       z     vdW  Elec       q    Type
REMARK                         _______ _______ _______ _____ _____    ______ ____
ROOT
ATOM      1  C   UNL     1       6.976  -4.427  25.286  0.00  0.00    -0.030 A 
ATOM      2  C   UNL     1       6.993  -3.112  25.819  0.00  0.00    +0.026 A 
ATOM      3  S   UNL     1       5.868  -2.415  26.936  0.00  0.00    -0.096 S 
ATOM      4  C   UNL     1       6.670  -0.917  26.955  0.00  0.00    +0.046 A 
ATOM      5  C   UNL     1       7.769  -0.918  26.133  0.00  0.00    +0.020 A 
ATOM      6  C   UNL     1       7.989  -2.179  25.472  0.00  0.00    +0.031 A 
ATOM      7  C   UNL     1       9.012  -2.563  24.560  0.00  0.00    +0.129 A 
ATOM      8  C   UNL     1       9.030  -3.876  24.088  0.00  0.00    +0.046 A 
ATOM      9  C   UNL     1       8.047  -4.782  24.453  0.00  0.00    +0.008 A 
ENDROOT
BRANCH   1  10
ATOM     10  C   UNL     1       5.870  -5.439  25.538  0.00  0.00    +0.079 C 
BRANCH  10  11
ATOM     11  C   UNL     1       4.596  -5.202  24.706  0.00  0.00    +0.230 C 
BRANCH  11  13
ATOM     12  C   UNL     1       3.494  -5.504  26.821  0.00  0.00    +0.195 C 
ATOM     13  O   UNL     1       3.365  -5.503  25.402  0.00  0.00    -0.368 OA
ENDBRANCH  11  13
BRANCH  11  14
ATOM     14  C   UNL     1       4.626  -6.047  23.427  0.00  0.00    +0.334 C 
ATOM     15  O   UNL     1       4.642  -5.599  22.290  0.00  0.00    -0.248 OA
BRANCH  14  16
ATOM     16  O   UNL     1       4.610  -7.379  23.695  0.00  0.00    -0.479 OA
ATOM     17  H   UNL     1       3.998  -7.517  24.456  0.00  0.00    +0.295 HD
ENDBRANCH  14  16
ENDBRANCH  11  14
ENDBRANCH  10  11
ENDBRANCH   1  10
BRANCH   7  18
ATOM     18  O   UNL     1       9.938  -1.611  24.193  0.00  0.00    -0.491 OA
BRANCH  18  19
ATOM     19  C   UNL     1      10.304  -1.601  22.808  0.00  0.00    +0.235 C 
BRANCH  19  20
ATOM     20  C   UNL     1       9.303  -0.778  22.005  0.00  0.00    +0.100 C 
BRANCH  20  21
ATOM     21  C   UNL     1       9.107   0.562  22.618  0.00  0.00    +0.086 A 
ATOM     22  N   UNL     1      10.164   1.433  22.709  0.00  0.00    -0.214 NA
ATOM     23  C   UNL     1       9.653   2.525  23.243  0.00  0.00    +0.228 A 
ATOM     24  O   UNL     1       8.310   2.435  23.513  0.00  0.00    -0.440 OA
ATOM     25  C   UNL     1       7.969   1.170  23.104  0.00  0.00    +0.126 A 
ATOM     26  C   UNL     1       6.556   0.775  23.243  0.00  0.00    +0.088 C 
BRANCH  23  27
ATOM     27  C   UNL     1      10.337   3.781  23.540  0.00  0.00    +0.037 A 
ATOM     28  C   UNL     1      11.708   3.882  23.245  0.00  0.00    +0.013 A 
ATOM     29  C   UNL     1      12.416   5.057  23.487  0.00  0.00    +0.001 A 
ATOM     30  C   UNL     1      11.762   6.158  24.030  0.00  0.00    +0.000 A 
ATOM     31  C   UNL     1      10.403   6.079  24.334  0.00  0.00    +0.001 A 
ATOM     32  C   UNL     1       9.692   4.896  24.091  0.00  0.00    +0.013 A 
ENDBRANCH  23  27
ENDBRANCH  20  21
ENDBRANCH  19  20
ENDBRANCH  18  19
ENDBRANCH   7  18
TORSDOF 10
ENDMDL
MODEL 6
REMARK VINA RESULT:      -6.9      3.229     10.499
REMARK  Name = 
REMARK  12 active torsions:
REMARK  status: ('A' for Active; 'I' for Inactive)
REMARK    1  A    between atoms: C_1  and  O_2
REMARK    2  A    between atoms: O_2  and  C_3
REMARK    3  A    between atoms: C_3  and  C_5
REMARK    4  A    between atoms: C_3  and  C_30
REMARK    5  A    between atoms: C_5  and  C_6
REMARK    6  A    between atoms: C_9  and  O_10
REMARK    7  A    between atoms: O_10  and  C_11
REMARK    8  A    between atoms: C_11  and  C_12
REMARK    9  A    between atoms: C_12  and  C_13
REMARK   10  A    between atoms: C_14  and  C_15
REMARK   11  A    between atoms: C_17  and  C_19
REMARK   12  A    between atoms: C_30  and  O_31
REMARK                            x       y       z     vdW  Elec       q    Type
REMARK                         _______ _______ _______ _____ _____    ______ ____
ROOT
ATOM      1  C   UNL     1      10.107   3.846  23.630  0.00  0.00    -0.030 A 
ATOM      2  C   UNL     1       9.074   3.533  24.549  0.00  0.00    +0.026 A 
ATOM      3  S   UNL     1       8.199   4.632  25.562  0.00  0.00    -0.096 S 
ATOM      4  C   UNL     1       7.257   3.396  26.250  0.00  0.00    +0.046 A 
ATOM      5  C   UNL     1       7.585   2.164  25.743  0.00  0.00    +0.020 A 
ATOM      6  C   UNL     1       8.625   2.213  24.747  0.00  0.00    +0.031 A 
ATOM      7  C   UNL     1       9.222   1.158  24.002  0.00  0.00    +0.129 A 
ATOM      8  C   UNL     1      10.194   1.476  23.051  0.00  0.00    +0.046 A 
ATOM      9  C   UNL     1      10.611   2.784  22.864  0.00  0.00    +0.008 A 
ENDROOT
BRANCH   1  10
ATOM     10  C   UNL     1      10.706   5.232  23.454  0.00  0.00    +0.079 C 
BRANCH  10  11
ATOM     11  C   UNL     1      12.150   5.365  23.973  0.00  0.00    +0.230 C 
BRANCH  11  13
ATOM     12  C   UNL     1      11.302   7.014  25.503  0.00  0.00    +0.195 C 
ATOM     13  O   UNL     1      12.407   6.580  24.715  0.00  0.00    -0.368 OA
ENDBRANCH  11  13
BRANCH  11  14
ATOM     14  C   UNL     1      13.146   5.313  22.808  0.00  0.00    +0.334 C 
ATOM     15  O   UNL     1      12.859   5.471  21.631  0.00  0.00    -0.248 OA
BRANCH  14  16
ATOM     16  O   UNL     1      14.410   5.043  23.230  0.00  0.00    -0.479 OA
ATOM     17  H   UNL     1      14.848   4.514  22.522  0.00  0.00    +0.295 HD
ENDBRANCH  14  16
ENDBRANCH  11  14
ENDBRANCH  10  11
ENDBRANCH   1  10
BRANCH   7  18
ATOM     18  O   UNL     1       8.805  -0.129  24.260  0.00  0.00    -0.491 OA
BRANCH  18  19
ATOM     19  C   UNL     1       7.826  -0.658  23.357  0.00  0.00    +0.235 C 
BRANCH  19  20
ATOM     20  C   UNL     1       8.322  -1.968  22.754  0.00  0.00    +0.100 C 
BRANCH  20  21
ATOM     21  C   UNL     1       7.683  -3.133  23.421  0.00  0.00    +0.086 A 
ATOM     22  N   UNL     1       6.380  -3.454  23.136  0.00  0.00    -0.214 NA
ATOM     23  C   UNL     1       6.141  -4.544  23.840  0.00  0.00    +0.228 A 
ATOM     24  O   UNL     1       7.214  -4.971  24.582  0.00  0.00    -0.440 OA
ATOM     25  C   UNL     1       8.201  -4.059  24.302  0.00  0.00    +0.126 A 
ATOM     26  C   UNL     1       9.512  -4.268  24.941  0.00  0.00    +0.088 C 
BRANCH  23  27
ATOM     27  C   UNL     1       4.908  -5.325  23.890  0.00  0.00    +0.037 A 
ATOM     28  C   UNL     1       4.892  -6.501  24.659  0.00  0.00    +0.013 A 
ATOM     29  C   UNL     1       3.744  -7.283  24.764  0.00  0.00    +0.001 A 
ATOM     30  C   UNL     1       2.584  -6.899  24.098  0.00  0.00    +0.000 A 
ATOM     31  C   UNL     1       2.579  -5.737  23.325  0.00  0.00    +0.001 A 
ATOM     32  C   UNL     1       3.735  -4.952  23.221  0.00  0.00    +0.013 A 
ENDBRANCH  23  27
ENDBRANCH  20  21
ENDBRANCH  19  20
ENDBRANCH  18  19
ENDBRANCH   7  18
TORSDOF 10
ENDMDL
MODEL 7
REMARK VINA RESULT:      -6.9      1.636      2.402
REMARK  Name = 
REMARK  12 active torsions:
REMARK  status: ('A' for Active; 'I' for Inactive)
REMARK    1  A    between atoms: C_1  and  O_2
REMARK    2  A    between atoms: O_2  and  C_3
REMARK    3  A    between atoms: C_3  and  C_5
REMARK    4  A    between atoms: C_3  and  C_30
REMARK    5  A    between atoms: C_5  and  C_6
REMARK    6  A    between atoms: C_9  and  O_10
REMARK    7  A    between atoms: O_10  and  C_11
REMARK    8  A    between atoms: C_11  and  C_12
REMARK    9  A    between atoms: C_12  and  C_13
REMARK   10  A    between atoms: C_14  and  C_15
REMARK   11  A    between atoms: C_17  and  C_19
REMARK   12  A    between atoms: C_30  and  O_31
REMARK                            x       y       z     vdW  Elec       q    Type
REMARK                         _______ _______ _______ _____ _____    ______ ____
ROOT
ATOM      1  C   UNL     1       6.077  -4.369  25.850  0.00  0.00    -0.030 A 
ATOM      2  C   UNL     1       6.184  -4.636  24.461  0.00  0.00    +0.026 A 
ATOM      3  S   UNL     1       4.973  -5.312  23.424  0.00  0.00    -0.096 S 
ATOM      4  C   UNL     1       5.979  -5.255  22.055  0.00  0.00    +0.046 A 
ATOM      5  C   UNL     1       7.216  -4.743  22.355  0.00  0.00    +0.020 A 
ATOM      6  C   UNL     1       7.361  -4.365  23.737  0.00  0.00    +0.031 A 
ATOM      7  C   UNL     1       8.478  -3.803  24.415  0.00  0.00    +0.129 A 
ATOM      8  C   UNL     1       8.349  -3.480  25.768  0.00  0.00    +0.046 A 
ATOM      9  C   UNL     1       7.177  -3.745  26.457  0.00  0.00    +0.008 A 
ENDROOT
BRANCH   1  10
ATOM     10  C   UNL     1       4.875  -4.740  26.704  0.00  0.00    +0.079 C 
BRANCH  10  11
ATOM     11  C   UNL     1       4.798  -6.234  27.069  0.00  0.00    +0.230 C 
BRANCH  11  13
ATOM     12  C   UNL     1       2.580  -6.442  26.166  0.00  0.00    +0.195 C 
ATOM     13  O   UNL     1       3.454  -6.734  27.252  0.00  0.00    -0.368 OA
ENDBRANCH  11  13
BRANCH  11  14
ATOM     14  C   UNL     1       5.578  -6.511  28.360  0.00  0.00    +0.334 C 
ATOM     15  O   UNL     1       6.065  -5.656  29.084  0.00  0.00    -0.248 OA
BRANCH  14  16
ATOM     16  O   UNL     1       5.693  -7.843  28.610  0.00  0.00    -0.479 OA
ATOM     17  H   UNL     1       4.933  -8.100  29.182  0.00  0.00    +0.295 HD
ENDBRANCH  14  16
ENDBRANCH  11  14
ENDBRANCH  10  11
ENDBRANCH   1  10
BRANCH   7  18
ATOM     18  O   UNL     1       9.636  -3.604  23.695  0.00  0.00    -0.491 OA
BRANCH  18  19
ATOM     19  C   UNL     1      10.193  -2.286  23.764  0.00  0.00    +0.235 C 
BRANCH  19  20
ATOM     20  C   UNL     1       9.647  -1.425  22.630  0.00  0.00    +0.100 C 
BRANCH  20  21
ATOM     21  C   UNL     1       9.267  -0.077  23.125  0.00  0.00    +0.086 A 
ATOM     22  N   UNL     1      10.170   0.955  23.060  0.00  0.00    -0.214 NA
ATOM     23  C   UNL     1       9.516   2.003  23.523  0.00  0.00    +0.228 A 
ATOM     24  O   UNL     1       8.222   1.731  23.893  0.00  0.00    -0.440 OA
ATOM     25  C   UNL     1       8.072   0.392  23.630  0.00  0.00    +0.126 A 
ATOM     26  C   UNL     1       6.753  -0.204  23.903  0.00  0.00    +0.088 C 
BRANCH  23  27
ATOM     27  C   UNL     1      10.000   3.375  23.652  0.00  0.00    +0.037 A 
ATOM     28  C   UNL     1      11.332   3.650  23.298  0.00  0.00    +0.013 A 
ATOM     29  C   UNL     1      11.852   4.940  23.381  0.00  0.00    +0.001 A 
ATOM     30  C   UNL     1      11.042   5.984  23.819  0.00  0.00    +0.000 A 
ATOM     31  C   UNL     1       9.718   5.732  24.179  0.00  0.00    +0.001 A 
ATOM     32  C   UNL     1       9.197   4.434  24.096  0.00  0.00    +0.013 A 
ENDBRANCH  23  27
ENDBRANCH  20  21
ENDBRANCH  19  20
ENDBRANCH  18  19
ENDBRANCH   7  18
TORSDOF 10
ENDMDL
MODEL 8
REMARK VINA RESULT:      -6.8      2.729      6.320
REMARK  Name = 
REMARK  12 active torsions:
REMARK  status: ('A' for Active; 'I' for Inactive)
REMARK    1  A    between atoms: C_1  and  O_2
REMARK    2  A    between atoms: O_2  and  C_3
REMARK    3  A    between atoms: C_3  and  C_5
REMARK    4  A    between atoms: C_3  and  C_30
REMARK    5  A    between atoms: C_5  and  C_6
REMARK    6  A    between atoms: C_9  and  O_10
REMARK    7  A    between atoms: O_10  and  C_11
REMARK    8  A    between atoms: C_11  and  C_12
REMARK    9  A    between atoms: C_12  and  C_13
REMARK   10  A    between atoms: C_14  and  C_15
REMARK   11  A    between atoms: C_17  and  C_19
REMARK   12  A    between atoms: C_30  and  O_31
REMARK                            x       y       z     vdW  Elec       q    Type
REMARK                         _______ _______ _______ _____ _____    ______ ____
ROOT
ATOM      1  C   UNL     1       7.307  -2.418  26.725  0.00  0.00    -0.030 A 
ATOM      2  C   UNL     1       6.190  -1.545  26.760  0.00  0.00    +0.026 A 
ATOM      3  S   UNL     1       4.563  -1.936  27.206  0.00  0.00    -0.096 S 
ATOM      4  C   UNL     1       4.009  -0.353  26.939  0.00  0.00    +0.046 A 
ATOM      5  C   UNL     1       5.018   0.474  26.514  0.00  0.00    +0.020 A 
ATOM      6  C   UNL     1       6.295  -0.185  26.413  0.00  0.00    +0.031 A 
ATOM      7  C   UNL     1       7.559   0.335  26.016  0.00  0.00    +0.129 A 
ATOM      8  C   UNL     1       8.670  -0.511  26.045  0.00  0.00    +0.046 A 
ATOM      9  C   UNL     1       8.545  -1.843  26.403  0.00  0.00    +0.008 A 
ENDROOT
BRANCH   1  10
ATOM     10  C   UNL     1       7.234  -3.915  26.984  0.00  0.00    +0.079 C 
BRANCH  10  11
ATOM     11  C   UNL     1       7.447  -4.782  25.729  0.00  0.00    +0.230 C 
BRANCH  11  13
ATOM     12  C   UNL     1       5.541  -5.986  26.564  0.00  0.00    +0.195 C 
ATOM     13  O   UNL     1       6.689  -6.014  25.720  0.00  0.00    -0.368 OA
ENDBRANCH  11  13
BRANCH  11  14
ATOM     14  C   UNL     1       8.928  -5.146  25.573  0.00  0.00    +0.334 C 
ATOM     15  O   UNL     1       9.467  -5.462  24.523  0.00  0.00    -0.248 OA
BRANCH  14  16
ATOM     16  O   UNL     1       9.592  -5.100  26.759  0.00  0.00    -0.479 OA
ATOM     17  H   UNL     1       9.702  -4.149  26.995  0.00  0.00    +0.295 HD
ENDBRANCH  14  16
ENDBRANCH  11  14
ENDBRANCH  10  11
ENDBRANCH   1  10
BRANCH   7  18
ATOM     18  O   UNL     1       7.619   1.655  25.624  0.00  0.00    -0.491 OA
BRANCH  18  19
ATOM     19  C   UNL     1       8.177   1.894  24.327  0.00  0.00    +0.235 C 
BRANCH  19  20
ATOM     20  C   UNL     1       7.210   1.425  23.245  0.00  0.00    +0.100 C 
BRANCH  20  21
ATOM     21  C   UNL     1       7.477   0.012  22.874  0.00  0.00    +0.086 A 
ATOM     22  N   UNL     1       6.527  -0.949  23.115  0.00  0.00    -0.214 NA
ATOM     23  C   UNL     1       7.046  -2.062  22.631  0.00  0.00    +0.228 A 
ATOM     24  O   UNL     1       8.291  -1.899  22.077  0.00  0.00    -0.440 OA
ATOM     25  C   UNL     1       8.557  -0.562  22.235  0.00  0.00    +0.126 A 
ATOM     26  C   UNL     1       9.837  -0.062  21.705  0.00  0.00    +0.088 C 
BRANCH  23  27
ATOM     27  C   UNL     1       6.443  -3.392  22.603  0.00  0.00    +0.037 A 
ATOM     28  C   UNL     1       5.154  -3.554  23.139  0.00  0.00    +0.013 A 
ATOM     29  C   UNL     1       4.514  -4.791  23.128  0.00  0.00    +0.001 A 
ATOM     30  C   UNL     1       5.156  -5.895  22.575  0.00  0.00    +0.000 A 
ATOM     31  C   UNL     1       6.438  -5.758  22.042  0.00  0.00    +0.001 A 
ATOM     32  C   UNL     1       7.080  -4.513  22.055  0.00  0.00    +0.013 A 
ENDBRANCH  23  27
ENDBRANCH  20  21
ENDBRANCH  19  20
ENDBRANCH  18  19
ENDBRANCH   7  18
TORSDOF 10
ENDMDL
MODEL 9
REMARK VINA RESULT:      -6.8      3.260     10.445
REMARK  Name = 
REMARK  12 active torsions:
REMARK  status: ('A' for Active; 'I' for Inactive)
REMARK    1  A    between atoms: C_1  and  O_2
REMARK    2  A    between atoms: O_2  and  C_3
REMARK    3  A    between atoms: C_3  and  C_5
REMARK    4  A    between atoms: C_3  and  C_30
REMARK    5  A    between atoms: C_5  and  C_6
REMARK    6  A    between atoms: C_9  and  O_10
REMARK    7  A    between atoms: O_10  and  C_11
REMARK    8  A    between atoms: C_11  and  C_12
REMARK    9  A    between atoms: C_12  and  C_13
REMARK   10  A    between atoms: C_14  and  C_15
REMARK   11  A    between atoms: C_17  and  C_19
REMARK   12  A    between atoms: C_30  and  O_31
REMARK                            x       y       z     vdW  Elec       q    Type
REMARK                         _______ _______ _______ _____ _____    ______ ____
ROOT
ATOM      1  C   UNL     1      10.122   4.013  23.731  0.00  0.00    -0.030 A 
ATOM      2  C   UNL     1       9.067   3.701  24.625  0.00  0.00    +0.026 A 
ATOM      3  S   UNL     1       8.130   4.805  25.574  0.00  0.00    -0.096 S 
ATOM      4  C   UNL     1       7.198   3.566  26.269  0.00  0.00    +0.046 A 
ATOM      5  C   UNL     1       7.575   2.329  25.811  0.00  0.00    +0.020 A 
ATOM      6  C   UNL     1       8.646   2.375  24.849  0.00  0.00    +0.031 A 
ATOM      7  C   UNL     1       9.296   1.315  24.158  0.00  0.00    +0.129 A 
ATOM      8  C   UNL     1      10.290   1.630  23.230  0.00  0.00    +0.046 A 
ATOM      9  C   UNL     1      10.679   2.943  23.016  0.00  0.00    +0.008 A 
ENDROOT
BRANCH   1  10
ATOM     10  C   UNL     1      10.691   5.409  23.532  0.00  0.00    +0.079 C 
BRANCH  10  11
ATOM     11  C   UNL     1      12.141   5.575  24.023  0.00  0.00    +0.230 C 
BRANCH  11  13
ATOM     12  C   UNL     1      11.728   7.108  25.828  0.00  0.00    +0.195 C 
ATOM     13  O   UNL     1      12.427   6.866  24.610  0.00  0.00    -0.368 OA
ENDBRANCH  11  13
BRANCH  11  14
ATOM     14  C   UNL     1      13.126   5.361  22.867  0.00  0.00    +0.334 C 
ATOM     15  O   UNL     1      12.885   5.578  21.690  0.00  0.00    -0.248 OA
BRANCH  14  16
ATOM     16  O   UNL     1      14.319   4.873  23.299  0.00  0.00    -0.479 OA
ATOM     17  H   UNL     1      14.213   3.899  23.413  0.00  0.00    +0.295 HD
ENDBRANCH  14  16
ENDBRANCH  11  14
ENDBRANCH  10  11
ENDBRANCH   1  10
BRANCH   7  18
ATOM     18  O   UNL     1       8.903   0.025  24.441  0.00  0.00    -0.491 OA
BRANCH  18  19
ATOM     19  C   UNL     1       8.678  -0.820  23.307  0.00  0.00    +0.235 C 
BRANCH  19  20
ATOM     20  C   UNL     1       9.283  -2.199  23.551  0.00  0.00    +0.100 C 
BRANCH  20  21
ATOM     21  C   UNL     1       8.223  -3.199  23.838  0.00  0.00    +0.086 A 
ATOM     22  N   UNL     1       8.087  -3.706  25.106  0.00  0.00    -0.214 NA
ATOM     23  C   UNL     1       7.044  -4.511  25.035  0.00  0.00    +0.228 A 
ATOM     24  O   UNL     1       6.473  -4.571  23.788  0.00  0.00    -0.440 OA
ATOM     25  C   UNL     1       7.236  -3.721  23.028  0.00  0.00    +0.126 A 
ATOM     26  C   UNL     1       6.848  -3.547  21.617  0.00  0.00    +0.088 C 
BRANCH  23  27
ATOM     27  C   UNL     1       6.444  -5.295  26.112  0.00  0.00    +0.037 A 
ATOM     28  C   UNL     1       7.064  -5.285  27.373  0.00  0.00    +0.013 A 
ATOM     29  C   UNL     1       6.534  -5.996  28.447  0.00  0.00    +0.001 A 
ATOM     30  C   UNL     1       5.366  -6.733  28.277  0.00  0.00    +0.000 A 
ATOM     31  C   UNL     1       4.736  -6.762  27.032  0.00  0.00    +0.001 A 
ATOM     32  C   UNL     1       5.271  -6.046  25.953  0.00  0.00    +0.013 A 
ENDBRANCH  23  27
ENDBRANCH  20  21
ENDBRANCH  19  20
ENDBRANCH  18  19
ENDBRANCH   7  18
TORSDOF 10
ENDMDL
