MODEL 1
REMARK VINA RESULT:      -7.2      0.000      0.000
REMARK  Name = 
REMARK  14 active torsions:
REMARK  status: ('A' for Active; 'I' for Inactive)
REMARK    1  A    between atoms: C_1  and  C_2
REMARK    2  A    between atoms: C_2  and  C_3
REMARK    3  A    between atoms: C_2  and  C_4
REMARK    4  A    between atoms: C_4  and  C_5
REMARK    5  A    between atoms: C_5  and  N_7
REMARK    6  A    between atoms: C_5  and  C_19
REMARK    7  A    between atoms: C_8  and  C_10
REMARK    8  A    between atoms: C_13  and  N_16
REMARK    9  A    between atoms: C_25  and  C_27
REMARK   10  A    between atoms: N_29  and  C_30
REMARK   11  A    between atoms: C_30  and  C_31
REMARK   12  A    between atoms: C_31  and  C_32
REMARK   13  A    between atoms: C_32  and  C_33
REMARK   14  A    between atoms: C_33  and  N_34
REMARK                            x       y       z     vdW  Elec       q    Type
REMARK                         _______ _______ _______ _____ _____    ______ ____
ROOT
ATOM      1  C   UNL     1       6.667  -3.030  23.949  0.00  0.00    +0.237 C 
ATOM      2  N   UNL     1       6.382  -4.308  23.460  0.00  0.00    -0.288 N 
ATOM      3  C   UNL     1       5.192  -4.595  22.625  0.00  0.00    +0.162 C 
ATOM      4  C   UNL     1       5.699  -5.598  21.564  0.00  0.00    +0.033 C 
ATOM      5  C   UNL     1       7.170  -5.833  21.871  0.00  0.00    +0.021 C 
ATOM      6  C   UNL     1       7.339  -5.389  23.306  0.00  0.00    +0.109 C 
ATOM      7  O   UNL     1       5.888  -2.084  23.801  0.00  0.00    -0.274 OA
ENDROOT
BRANCH   3   8
ATOM      8  C   UNL     1       3.975  -5.275  23.321  0.00  0.00    +0.234 C 
ATOM      9  N   UNL     1       3.953  -6.649  23.291  0.00  0.00    -0.314 N 
ATOM     10  H   UNL     1       4.797  -7.116  22.999  0.00  0.00    +0.149 HD
ATOM     11  O   UNL     1       3.044  -4.610  23.774  0.00  0.00    -0.274 OA
BRANCH   9  12
ATOM     12  C   UNL     1       2.850  -7.446  23.805  0.00  0.00    +0.104 C 
BRANCH  12  13
ATOM     13  C   UNL     1       3.048  -7.891  25.259  0.00  0.00    +0.022 C 
BRANCH  13  14
ATOM     14  C   UNL     1       2.381  -6.968  26.283  0.00  0.00    +0.042 C 
BRANCH  14  15
ATOM     15  C   UNL     1       3.403  -6.055  26.970  0.00  0.00    +0.243 C 
BRANCH  15  16
ATOM     16  N   UNL     1       3.304  -6.244  28.417  0.00  0.00    -0.114 NA
ATOM     17  C   UNL     1       4.221  -6.919  29.002  0.00  0.00    +0.376 C 
ATOM     18  N   UNL     1       4.173  -7.123  30.336  0.00  0.00    -0.289 N 
ATOM     19  H   UNL     1       4.409  -8.073  30.601  0.00  0.00    +0.255 HD
ATOM     20  H   UNL     1       3.262  -6.862  30.700  0.00  0.00    +0.255 HD
ATOM     21  N   UNL     1       5.320  -7.517  28.491  0.00  0.00    -0.289 N 
ATOM     22  H   UNL     1       6.118  -7.466  29.112  0.00  0.00    +0.255 HD
ATOM     23  H   UNL     1       5.568  -7.219  27.557  0.00  0.00    +0.255 HD
ENDBRANCH  15  16
ENDBRANCH  14  15
ENDBRANCH  13  14
ENDBRANCH  12  13
ENDBRANCH   9  12
ENDBRANCH   3   8
BRANCH   1  24
ATOM     24  C   UNL     1       8.008  -2.816  24.732  0.00  0.00    +0.160 C 
BRANCH  24  25
ATOM     25  N   UNL     1       8.493  -1.447  24.560  0.00  0.00    -0.300 N 
ATOM     26  H   UNL     1       8.234  -0.776  25.276  0.00  0.00    +0.150 HD
ATOM     27  C   UNL     1       9.098  -1.044  23.383  0.00  0.00    +0.245 C 
ATOM     28  O   UNL     1       9.273  -1.764  22.412  0.00  0.00    -0.270 OA
BRANCH  27  29
ATOM     29  C   UNL     1       9.495   0.384  23.335  0.00  0.00    +0.037 A 
ATOM     30  C   UNL     1       9.272   1.184  24.464  0.00  0.00    +0.019 A 
ATOM     31  C   UNL     1       9.746   2.497  24.485  0.00  0.00    +0.085 A 
ATOM     32  C   UNL     1      10.416   3.011  23.361  0.00  0.00    +0.273 A 
ATOM     33  C   UNL     1      10.570   2.232  22.207  0.00  0.00    +0.085 A 
ATOM     34  C   UNL     1      10.101   0.921  22.193  0.00  0.00    +0.019 A 
BRANCH  32  35
ATOM     35  N   UNL     1      10.983   4.362  23.406  0.00  0.00    +0.080 N 
ATOM     36  O   UNL     1      10.212   5.307  23.616  0.00  0.00    +0.041 OA
ATOM     37  O   UNL     1      12.209   4.474  23.251  0.00  0.00    -0.576 OA
ENDBRANCH  32  35
ENDBRANCH  27  29
ENDBRANCH  24  25
BRANCH  24  38
ATOM     38  C   UNL     1       7.883  -3.138  26.238  0.00  0.00    +0.034 C 
BRANCH  38  40
ATOM     39  C   UNL     1       7.650  -5.583  26.903  0.00  0.00    +0.007 C 
ATOM     40  C   UNL     1       8.623  -4.434  26.615  0.00  0.00    -0.015 C 
ATOM     41  C   UNL     1       9.693  -4.852  25.602  0.00  0.00    +0.007 C 
ENDBRANCH  38  40
ENDBRANCH  24  38
ENDBRANCH   1  24
TORSDOF 12
ENDMDL
MODEL 2
REMARK VINA RESULT:      -7.1      1.546      1.820
REMARK  Name = 
REMARK  14 active torsions:
REMARK  status: ('A' for Active; 'I' for Inactive)
REMARK    1  A    between atoms: C_1  and  C_2
REMARK    2  A    between atoms: C_2  and  C_3
REMARK    3  A    between atoms: C_2  and  C_4
REMARK    4  A    between atoms: C_4  and  C_5
REMARK    5  A    between atoms: C_5  and  N_7
REMARK    6  A    between atoms: C_5  and  C_19
REMARK    7  A    between atoms: C_8  and  C_10
REMARK    8  A    between atoms: C_13  and  N_16
REMARK    9  A    between atoms: C_25  and  C_27
REMARK   10  A    between atoms: N_29  and  C_30
REMARK   11  A    between atoms: C_30  and  C_31
REMARK   12  A    between atoms: C_31  and  C_32
REMARK   13  A    between atoms: C_32  and  C_33
REMARK   14  A    between atoms: C_33  and  N_34
REMARK                            x       y       z     vdW  Elec       q    Type
REMARK                         _______ _______ _______ _____ _____    ______ ____
ROOT
ATOM      1  C   UNL     1       6.430  -3.419  24.249  0.00  0.00    +0.237 C 
ATOM      2  N   UNL     1       6.397  -4.635  23.563  0.00  0.00    -0.288 N 
ATOM      3  C   UNL     1       5.194  -5.109  22.838  0.00  0.00    +0.162 C 
ATOM      4  C   UNL     1       5.752  -5.760  21.552  0.00  0.00    +0.033 C 
ATOM      5  C   UNL     1       7.265  -5.626  21.630  0.00  0.00    +0.021 C 
ATOM      6  C   UNL     1       7.553  -5.376  23.093  0.00  0.00    +0.109 C 
ATOM      7  O   UNL     1       5.427  -2.712  24.378  0.00  0.00    -0.274 OA
ENDROOT
BRANCH   3   8
ATOM      8  C   UNL     1       4.318  -6.194  23.531  0.00  0.00    +0.234 C 
ATOM      9  N   UNL     1       3.108  -6.462  22.939  0.00  0.00    -0.314 N 
ATOM     10  H   UNL     1       2.955  -6.088  22.015  0.00  0.00    +0.149 HD
ATOM     11  O   UNL     1       4.654  -6.699  24.602  0.00  0.00    -0.274 OA
BRANCH   9  12
ATOM     12  C   UNL     1       2.123  -7.374  23.499  0.00  0.00    +0.104 C 
BRANCH  12  13
ATOM     13  C   UNL     1       0.999  -6.661  24.261  0.00  0.00    +0.022 C 
BRANCH  13  14
ATOM     14  C   UNL     1       0.894  -7.073  25.734  0.00  0.00    +0.042 C 
BRANCH  14  15
ATOM     15  C   UNL     1       1.850  -6.261  26.615  0.00  0.00    +0.243 C 
BRANCH  15  16
ATOM     16  N   UNL     1       1.793  -4.859  26.201  0.00  0.00    -0.114 NA
ATOM     17  C   UNL     1       2.864  -4.161  26.287  0.00  0.00    +0.376 C 
ATOM     18  N   UNL     1       2.861  -2.862  25.920  0.00  0.00    -0.289 N 
ATOM     19  H   UNL     1       3.368  -2.266  26.564  0.00  0.00    +0.255 HD
ATOM     20  H   UNL     1       1.909  -2.532  25.794  0.00  0.00    +0.255 HD
ATOM     21  N   UNL     1       4.097  -4.510  26.713  0.00  0.00    -0.289 N 
ATOM     22  H   UNL     1       4.835  -4.057  26.187  0.00  0.00    +0.255 HD
ATOM     23  H   UNL     1       4.257  -5.507  26.776  0.00  0.00    +0.255 HD
ENDBRANCH  15  16
ENDBRANCH  14  15
ENDBRANCH  13  14
ENDBRANCH  12  13
ENDBRANCH   9  12
ENDBRANCH   3   8
BRANCH   1  24
ATOM     24  C   UNL     1       7.786  -2.966  24.892  0.00  0.00    +0.160 C 
BRANCH  24  25
ATOM     25  N   UNL     1       8.019  -1.541  24.658  0.00  0.00    -0.300 N 
ATOM     26  H   UNL     1       7.208  -0.932  24.696  0.00  0.00    +0.150 HD
ATOM     27  C   UNL     1       9.242  -1.080  24.204  0.00  0.00    +0.245 C 
ATOM     28  O   UNL     1      10.204  -1.792  23.964  0.00  0.00    -0.270 OA
BRANCH  27  29
ATOM     29  C   UNL     1       9.316   0.382  23.965  0.00  0.00    +0.037 A 
ATOM     30  C   UNL     1       8.676   1.245  24.865  0.00  0.00    +0.019 A 
ATOM     31  C   UNL     1       8.832   2.626  24.728  0.00  0.00    +0.085 A 
ATOM     32  C   UNL     1       9.608   3.134  23.672  0.00  0.00    +0.273 A 
ATOM     33  C   UNL     1      10.185   2.270  22.732  0.00  0.00    +0.085 A 
ATOM     34  C   UNL     1      10.030   0.894  22.876  0.00  0.00    +0.019 A 
BRANCH  32  35
ATOM     35  N   UNL     1       9.839   4.578  23.568  0.00  0.00    +0.080 N 
ATOM     36  O   UNL     1       8.853   5.315  23.440  0.00  0.00    +0.041 OA
ATOM     37  O   UNL     1      11.013   4.977  23.636  0.00  0.00    -0.576 OA
ENDBRANCH  32  35
ENDBRANCH  27  29
ENDBRANCH  24  25
BRANCH  24  38
ATOM     38  C   UNL     1       7.862  -3.262  26.407  0.00  0.00    +0.034 C 
BRANCH  38  40
ATOM     39  C   UNL     1       7.546  -5.748  26.850  0.00  0.00    +0.007 C 
ATOM     40  C   UNL     1       8.556  -4.604  26.699  0.00  0.00    -0.015 C 
ATOM     41  C   UNL     1       9.656  -4.963  25.695  0.00  0.00    +0.007 C 
ENDBRANCH  38  40
ENDBRANCH  24  38
ENDBRANCH   1  24
TORSDOF 12
ENDMDL
MODEL 3
REMARK VINA RESULT:      -6.9      2.051      2.815
REMARK  Name = 
REMARK  14 active torsions:
REMARK  status: ('A' for Active; 'I' for Inactive)
REMARK    1  A    between atoms: C_1  and  C_2
REMARK    2  A    between atoms: C_2  and  C_3
REMARK    3  A    between atoms: C_2  and  C_4
REMARK    4  A    between atoms: C_4  and  C_5
REMARK    5  A    between atoms: C_5  and  N_7
REMARK    6  A    between atoms: C_5  and  C_19
REMARK    7  A    between atoms: C_8  and  C_10
REMARK    8  A    between atoms: C_13  and  N_16
REMARK    9  A    between atoms: C_25  and  C_27
REMARK   10  A    between atoms: N_29  and  C_30
REMARK   11  A    between atoms: C_30  and  C_31
REMARK   12  A    between atoms: C_31  and  C_32
REMARK   13  A    between atoms: C_32  and  C_33
REMARK   14  A    between atoms: C_33  and  N_34
REMARK                            x       y       z     vdW  Elec       q    Type
REMARK                         _______ _______ _______ _____ _____    ______ ____
ROOT
ATOM      1  C   UNL     1       6.837  -1.948  24.012  0.00  0.00    +0.237 C 
ATOM      2  N   UNL     1       6.860  -3.343  24.081  0.00  0.00    -0.288 N 
ATOM      3  C   UNL     1       6.650  -4.203  22.892  0.00  0.00    +0.162 C 
ATOM      4  C   UNL     1       7.653  -5.365  23.076  0.00  0.00    +0.033 C 
ATOM      5  C   UNL     1       8.378  -5.097  24.386  0.00  0.00    +0.021 C 
ATOM      6  C   UNL     1       7.483  -4.130  25.129  0.00  0.00    +0.109 C 
ATOM      7  O   UNL     1       6.539  -1.347  22.976  0.00  0.00    -0.274 OA
ENDROOT
BRANCH   3   8
ATOM      8  C   UNL     1       5.249  -4.861  22.721  0.00  0.00    +0.234 C 
ATOM      9  N   UNL     1       4.286  -4.474  23.622  0.00  0.00    -0.314 N 
ATOM     10  H   UNL     1       4.490  -3.672  24.197  0.00  0.00    +0.149 HD
ATOM     11  O   UNL     1       5.056  -5.749  21.891  0.00  0.00    -0.274 OA
BRANCH   9  12
ATOM     12  C   UNL     1       2.952  -5.053  23.671  0.00  0.00    +0.104 C 
BRANCH  12  13
ATOM     13  C   UNL     1       2.460  -5.326  25.097  0.00  0.00    +0.022 C 
BRANCH  13  14
ATOM     14  C   UNL     1       3.586  -5.407  26.134  0.00  0.00    +0.042 C 
BRANCH  14  15
ATOM     15  C   UNL     1       4.147  -6.829  26.248  0.00  0.00    +0.243 C 
BRANCH  15  16
ATOM     16  N   UNL     1       5.367  -6.789  27.054  0.00  0.00    -0.114 NA
ATOM     17  C   UNL     1       5.276  -7.076  28.299  0.00  0.00    +0.376 C 
ATOM     18  N   UNL     1       6.373  -7.051  29.086  0.00  0.00    -0.289 N 
ATOM     19  H   UNL     1       6.206  -6.618  29.987  0.00  0.00    +0.255 HD
ATOM     20  H   UNL     1       7.143  -6.598  28.604  0.00  0.00    +0.255 HD
ATOM     21  N   UNL     1       4.198  -7.425  29.034  0.00  0.00    -0.289 N 
ATOM     22  H   UNL     1       4.415  -8.114  29.744  0.00  0.00    +0.255 HD
ATOM     23  H   UNL     1       3.389  -7.703  28.494  0.00  0.00    +0.255 HD
ENDBRANCH  15  16
ENDBRANCH  14  15
ENDBRANCH  13  14
ENDBRANCH  12  13
ENDBRANCH   9  12
ENDBRANCH   3   8
BRANCH   1  24
ATOM     24  C   UNL     1       7.177  -1.135  25.309  0.00  0.00    +0.160 C 
BRANCH  24  25
ATOM     25  N   UNL     1       7.679   0.196  24.968  0.00  0.00    -0.300 N 
ATOM     26  H   UNL     1       6.990   0.889  24.694  0.00  0.00    +0.150 HD
ATOM     27  C   UNL     1       9.034   0.437  24.828  0.00  0.00    +0.245 C 
ATOM     28  O   UNL     1       9.905  -0.408  24.968  0.00  0.00    -0.270 OA
BRANCH  27  29
ATOM     29  C   UNL     1       9.392   1.820  24.433  0.00  0.00    +0.037 A 
ATOM     30  C   UNL     1       8.553   2.872  24.827  0.00  0.00    +0.019 A 
ATOM     31  C   UNL     1       8.931   4.191  24.570  0.00  0.00    +0.085 A 
ATOM     32  C   UNL     1      10.136   4.447  23.893  0.00  0.00    +0.273 A 
ATOM     33  C   UNL     1      10.934   3.391  23.435  0.00  0.00    +0.085 A 
ATOM     34  C   UNL     1      10.555   2.077  23.699  0.00  0.00    +0.019 A 
BRANCH  32  35
ATOM     35  N   UNL     1      10.576   5.831  23.689  0.00  0.00    +0.080 N 
ATOM     36  O   UNL     1      11.793   6.054  23.671  0.00  0.00    +0.041 OA
ATOM     37  O   UNL     1       9.699   6.693  23.525  0.00  0.00    -0.576 OA
ENDBRANCH  32  35
ENDBRANCH  27  29
ENDBRANCH  24  25
BRANCH  24  38
ATOM     38  C   UNL     1       5.974  -1.006  26.270  0.00  0.00    +0.034 C 
BRANCH  38  40
ATOM     39  C   UNL     1       4.498   1.065  26.365  0.00  0.00    +0.007 C 
ATOM     40  C   UNL     1       5.818   0.426  26.812  0.00  0.00    -0.015 C 
ATOM     41  C   UNL     1       6.003   0.537  28.329  0.00  0.00    +0.007 C 
ENDBRANCH  38  40
ENDBRANCH  24  38
ENDBRANCH   1  24
TORSDOF 12
ENDMDL
MODEL 4
REMARK VINA RESULT:      -6.7      3.310     10.165
REMARK  Name = 
REMARK  14 active torsions:
REMARK  status: ('A' for Active; 'I' for Inactive)
REMARK    1  A    between atoms: C_1  and  C_2
REMARK    2  A    between atoms: C_2  and  C_3
REMARK    3  A    between atoms: C_2  and  C_4
REMARK    4  A    between atoms: C_4  and  C_5
REMARK    5  A    between atoms: C_5  and  N_7
REMARK    6  A    between atoms: C_5  and  C_19
REMARK    7  A    between atoms: C_8  and  C_10
REMARK    8  A    between atoms: C_13  and  N_16
REMARK    9  A    between atoms: C_25  and  C_27
REMARK   10  A    between atoms: N_29  and  C_30
REMARK   11  A    between atoms: C_30  and  C_31
REMARK   12  A    between atoms: C_31  and  C_32
REMARK   13  A    between atoms: C_32  and  C_33
REMARK   14  A    between atoms: C_33  and  N_34
REMARK                            x       y       z     vdW  Elec       q    Type
REMARK                         _______ _______ _______ _____ _____    ______ ____
ROOT
ATOM      1  C   UNL     1       6.980   0.724  23.666  0.00  0.00    +0.237 C 
ATOM      2  N   UNL     1       6.376   1.660  24.509  0.00  0.00    -0.288 N 
ATOM      3  C   UNL     1       5.189   2.449  24.102  0.00  0.00    +0.162 C 
ATOM      4  C   UNL     1       4.312   2.508  25.374  0.00  0.00    +0.033 C 
ATOM      5  C   UNL     1       5.071   1.745  26.448  0.00  0.00    +0.021 C 
ATOM      6  C   UNL     1       6.499   1.704  25.954  0.00  0.00    +0.109 C 
ATOM      7  O   UNL     1       6.624   0.571  22.494  0.00  0.00    -0.274 OA
ENDROOT
BRANCH   3   8
ATOM      8  C   UNL     1       5.423   3.926  23.667  0.00  0.00    +0.234 C 
ATOM      9  N   UNL     1       6.387   4.127  22.707  0.00  0.00    -0.314 N 
ATOM     10  H   UNL     1       6.733   3.312  22.225  0.00  0.00    +0.149 HD
ATOM     11  O   UNL     1       4.849   4.858  24.229  0.00  0.00    -0.274 OA
BRANCH   9  12
ATOM     12  C   UNL     1       6.804   5.443  22.250  0.00  0.00    +0.104 C 
BRANCH  12  13
ATOM     13  C   UNL     1       8.075   5.952  22.941  0.00  0.00    +0.022 C 
BRANCH  13  14
ATOM     14  C   UNL     1       8.882   4.851  23.638  0.00  0.00    +0.042 C 
BRANCH  14  15
ATOM     15  C   UNL     1      10.132   5.415  24.322  0.00  0.00    +0.243 C 
BRANCH  15  16
ATOM     16  N   UNL     1      11.306   5.048  23.531  0.00  0.00    -0.114 NA
ATOM     17  C   UNL     1      12.410   5.650  23.774  0.00  0.00    +0.376 C 
ATOM     18  N   UNL     1      13.521   5.349  23.069  0.00  0.00    -0.289 N 
ATOM     19  H   UNL     1      14.053   6.168  22.796  0.00  0.00    +0.255 HD
ATOM     20  H   UNL     1      13.284   4.784  22.259  0.00  0.00    +0.255 HD
ATOM     21  N   UNL     1      12.693   6.613  24.679  0.00  0.00    -0.289 N 
ATOM     22  H   UNL     1      13.621   6.516  25.075  0.00  0.00    +0.255 HD
ATOM     23  H   UNL     1      11.999   6.729  25.405  0.00  0.00    +0.255 HD
ENDBRANCH  15  16
ENDBRANCH  14  15
ENDBRANCH  13  14
ENDBRANCH  12  13
ENDBRANCH   9  12
ENDBRANCH   3   8
BRANCH   1  24
ATOM     24  C   UNL     1       8.164  -0.131  24.235  0.00  0.00    +0.160 C 
BRANCH  24  25
ATOM     25  N   UNL     1       7.669  -1.379  24.815  0.00  0.00    -0.300 N 
ATOM     26  H   UNL     1       6.935  -1.862  24.306  0.00  0.00    +0.150 HD
ATOM     27  C   UNL     1       8.034  -1.771  26.091  0.00  0.00    +0.245 C 
ATOM     28  O   UNL     1       8.774  -1.134  26.825  0.00  0.00    -0.270 OA
BRANCH  27  29
ATOM     29  C   UNL     1       7.416  -3.032  26.565  0.00  0.00    +0.037 A 
ATOM     30  C   UNL     1       6.093  -3.002  27.027  0.00  0.00    +0.019 A 
ATOM     31  C   UNL     1       5.452  -4.196  27.365  0.00  0.00    +0.085 A 
ATOM     32  C   UNL     1       6.152  -5.411  27.266  0.00  0.00    +0.273 A 
ATOM     33  C   UNL     1       7.498  -5.428  26.876  0.00  0.00    +0.085 A 
ATOM     34  C   UNL     1       8.130  -4.236  26.534  0.00  0.00    +0.019 A 
BRANCH  32  35
ATOM     35  N   UNL     1       5.461  -6.674  27.545  0.00  0.00    +0.080 N 
ATOM     36  O   UNL     1       4.643  -7.082  26.712  0.00  0.00    +0.041 OA
ATOM     37  O   UNL     1       5.756  -7.268  28.594  0.00  0.00    -0.576 OA
ENDBRANCH  32  35
ENDBRANCH  27  29
ENDBRANCH  24  25
BRANCH  24  38
ATOM     38  C   UNL     1       9.244  -0.445  23.174  0.00  0.00    +0.034 C 
BRANCH  38  40
ATOM     39  C   UNL     1      10.030   1.660  21.980  0.00  0.00    +0.007 C 
ATOM     40  C   UNL     1      10.318   0.654  23.101  0.00  0.00    -0.015 C 
ATOM     41  C   UNL     1      10.568   1.365  24.434  0.00  0.00    +0.007 C 
ENDBRANCH  38  40
ENDBRANCH  24  38
ENDBRANCH   1  24
TORSDOF 12
ENDMDL
MODEL 5
REMARK VINA RESULT:      -6.7      2.378      3.430
REMARK  Name = 
REMARK  14 active torsions:
REMARK  status: ('A' for Active; 'I' for Inactive)
REMARK    1  A    between atoms: C_1  and  C_2
REMARK    2  A    between atoms: C_2  and  C_3
REMARK    3  A    between atoms: C_2  and  C_4
REMARK    4  A    between atoms: C_4  and  C_5
REMARK    5  A    between atoms: C_5  and  N_7
REMARK    6  A    between atoms: C_5  and  C_19
REMARK    7  A    between atoms: C_8  and  C_10
REMARK    8  A    between atoms: C_13  and  N_16
REMARK    9  A    between atoms: C_25  and  C_27
REMARK   10  A    between atoms: N_29  and  C_30
REMARK   11  A    between atoms: C_30  and  C_31
REMARK   12  A    between atoms: C_31  and  C_32
REMARK   13  A    between atoms: C_32  and  C_33
REMARK   14  A    between atoms: C_33  and  N_34
REMARK                            x       y       z     vdW  Elec       q    Type
REMARK                         _______ _______ _______ _____ _____    ______ ____
ROOT
ATOM      1  C   UNL     1       6.036  -1.460  24.967  0.00  0.00    +0.237 C 
ATOM      2  N   UNL     1       6.335  -2.503  24.088  0.00  0.00    -0.288 N 
ATOM      3  C   UNL     1       5.364  -3.004  23.087  0.00  0.00    +0.162 C 
ATOM      4  C   UNL     1       6.218  -3.288  21.830  0.00  0.00    +0.033 C 
ATOM      5  C   UNL     1       7.650  -2.936  22.202  0.00  0.00    +0.021 C 
ATOM      6  C   UNL     1       7.667  -2.942  23.714  0.00  0.00    +0.109 C 
ATOM      7  O   UNL     1       4.909  -0.960  25.032  0.00  0.00    -0.274 OA
ENDROOT
BRANCH   3   8
ATOM      8  C   UNL     1       4.616  -4.332  23.413  0.00  0.00    +0.234 C 
ATOM      9  N   UNL     1       4.551  -4.676  24.742  0.00  0.00    -0.314 N 
ATOM     10  H   UNL     1       4.816  -3.973  25.413  0.00  0.00    +0.149 HD
ATOM     11  O   UNL     1       4.204  -5.070  22.520  0.00  0.00    -0.274 OA
BRANCH   9  12
ATOM     12  C   UNL     1       3.977  -5.924  25.222  0.00  0.00    +0.104 C 
BRANCH  12  13
ATOM     13  C   UNL     1       3.947  -6.031  26.751  0.00  0.00    +0.022 C 
BRANCH  13  14
ATOM     14  C   UNL     1       5.273  -6.495  27.363  0.00  0.00    +0.042 C 
BRANCH  14  15
ATOM     15  C   UNL     1       6.362  -5.425  27.227  0.00  0.00    +0.243 C 
BRANCH  15  16
ATOM     16  N   UNL     1       7.476  -5.983  26.459  0.00  0.00    -0.114 NA
ATOM     17  C   UNL     1       8.535  -5.275  26.332  0.00  0.00    +0.376 C 
ATOM     18  N   UNL     1       9.588  -5.745  25.630  0.00  0.00    -0.289 N 
ATOM     19  H   UNL     1      10.006  -5.047  25.025  0.00  0.00    +0.255 HD
ATOM     20  H   UNL     1       9.322  -6.570  25.102  0.00  0.00    +0.255 HD
ATOM     21  N   UNL     1       8.818  -4.042  26.805  0.00  0.00    -0.289 N 
ATOM     22  H   UNL     1       9.788  -3.943  27.083  0.00  0.00    +0.255 HD
ATOM     23  H   UNL     1       8.197  -3.716  27.534  0.00  0.00    +0.255 HD
ENDBRANCH  15  16
ENDBRANCH  14  15
ENDBRANCH  13  14
ENDBRANCH  12  13
ENDBRANCH   9  12
ENDBRANCH   3   8
BRANCH   1  24
ATOM     24  C   UNL     1       7.172  -0.937  25.913  0.00  0.00    +0.160 C 
BRANCH  24  25
ATOM     25  N   UNL     1       7.681   0.352  25.446  0.00  0.00    -0.300 N 
ATOM     26  H   UNL     1       6.998   1.088  25.298  0.00  0.00    +0.150 HD
ATOM     27  C   UNL     1       8.993   0.496  25.032  0.00  0.00    +0.245 C 
ATOM     28  O   UNL     1       9.817  -0.405  25.016  0.00  0.00    -0.270 OA
BRANCH  27  29
ATOM     29  C   UNL     1       9.355   1.848  24.539  0.00  0.00    +0.037 A 
ATOM     30  C   UNL     1       8.526   2.929  24.870  0.00  0.00    +0.019 A 
ATOM     31  C   UNL     1       8.909   4.225  24.519  0.00  0.00    +0.085 A 
ATOM     32  C   UNL     1      10.108   4.427  23.813  0.00  0.00    +0.273 A 
ATOM     33  C   UNL     1      10.895   3.336  23.420  0.00  0.00    +0.085 A 
ATOM     34  C   UNL     1      10.511   2.046  23.777  0.00  0.00    +0.019 A 
BRANCH  32  35
ATOM     35  N   UNL     1      10.554   5.790  23.510  0.00  0.00    +0.080 N 
ATOM     36  O   UNL     1      11.759   5.971  23.296  0.00  0.00    +0.041 OA
ATOM     37  O   UNL     1       9.688   6.679  23.466  0.00  0.00    -0.576 OA
ENDBRANCH  32  35
ENDBRANCH  27  29
ENDBRANCH  24  25
BRANCH  24  38
ATOM     38  C   UNL     1       6.720  -0.814  27.385  0.00  0.00    +0.034 C 
BRANCH  38  40
ATOM     39  C   UNL     1       4.938   0.911  27.954  0.00  0.00    +0.007 C 
ATOM     40  C   UNL     1       6.439   0.645  27.783  0.00  0.00    -0.015 C 
ATOM     41  C   UNL     1       7.229   1.116  29.008  0.00  0.00    +0.007 C 
ENDBRANCH  38  40
ENDBRANCH  24  38
ENDBRANCH   1  24
TORSDOF 12
ENDMDL
MODEL 6
REMARK VINA RESULT:      -6.7      2.974      4.839
REMARK  Name = 
REMARK  14 active torsions:
REMARK  status: ('A' for Active; 'I' for Inactive)
REMARK    1  A    between atoms: C_1  and  C_2
REMARK    2  A    between atoms: C_2  and  C_3
REMARK    3  A    between atoms: C_2  and  C_4
REMARK    4  A    between atoms: C_4  and  C_5
REMARK    5  A    between atoms: C_5  and  N_7
REMARK    6  A    between atoms: C_5  and  C_19
REMARK    7  A    between atoms: C_8  and  C_10
REMARK    8  A    between atoms: C_13  and  N_16
REMARK    9  A    between atoms: C_25  and  C_27
REMARK   10  A    between atoms: N_29  and  C_30
REMARK   11  A    between atoms: C_30  and  C_31
REMARK   12  A    between atoms: C_31  and  C_32
REMARK   13  A    between atoms: C_32  and  C_33
REMARK   14  A    between atoms: C_33  and  N_34
REMARK                            x       y       z     vdW  Elec       q    Type
REMARK                         _______ _______ _______ _____ _____    ______ ____
ROOT
ATOM      1  C   UNL     1       4.785  -3.952  27.181  0.00  0.00    +0.237 C 
ATOM      2  N   UNL     1       4.029  -4.291  26.056  0.00  0.00    -0.288 N 
ATOM      3  C   UNL     1       3.648  -5.689  25.745  0.00  0.00    +0.162 C 
ATOM      4  C   UNL     1       2.200  -5.583  25.213  0.00  0.00    +0.033 C 
ATOM      5  C   UNL     1       1.844  -4.105  25.245  0.00  0.00    +0.021 C 
ATOM      6  C   UNL     1       3.174  -3.390  25.306  0.00  0.00    +0.109 C 
ATOM      7  O   UNL     1       5.268  -4.807  27.929  0.00  0.00    -0.274 OA
ENDROOT
BRANCH   3   8
ATOM      8  C   UNL     1       4.464  -6.427  24.643  0.00  0.00    +0.234 C 
ATOM      9  N   UNL     1       5.298  -5.643  23.882  0.00  0.00    -0.314 N 
ATOM     10  H   UNL     1       5.465  -4.703  24.204  0.00  0.00    +0.149 HD
ATOM     11  O   UNL     1       4.286  -7.622  24.408  0.00  0.00    -0.274 OA
BRANCH   9  12
ATOM     12  C   UNL     1       6.061  -6.145  22.750  0.00  0.00    +0.104 C 
BRANCH  12  13
ATOM     13  C   UNL     1       7.367  -5.379  22.510  0.00  0.00    +0.022 C 
BRANCH  13  14
ATOM     14  C   UNL     1       7.324  -3.922  22.983  0.00  0.00    +0.042 C 
BRANCH  14  15
ATOM     15  C   UNL     1       8.318  -3.669  24.122  0.00  0.00    +0.243 C 
BRANCH  15  16
ATOM     16  N   UNL     1       7.782  -4.254  25.351  0.00  0.00    -0.114 NA
ATOM     17  C   UNL     1       8.451  -5.189  25.915  0.00  0.00    +0.376 C 
ATOM     18  N   UNL     1       7.997  -5.763  27.050  0.00  0.00    -0.289 N 
ATOM     19  H   UNL     1       8.099  -6.771  27.054  0.00  0.00    +0.255 HD
ATOM     20  H   UNL     1       7.032  -5.497  27.219  0.00  0.00    +0.255 HD
ATOM     21  N   UNL     1       9.623  -5.757  25.557  0.00  0.00    -0.289 N 
ATOM     22  H   UNL     1      10.201  -5.998  26.353  0.00  0.00    +0.255 HD
ATOM     23  H   UNL     1      10.152  -5.237  24.869  0.00  0.00    +0.255 HD
ENDBRANCH  15  16
ENDBRANCH  14  15
ENDBRANCH  13  14
ENDBRANCH  12  13
ENDBRANCH   9  12
ENDBRANCH   3   8
BRANCH   1  24
ATOM     24  C   UNL     1       5.042  -2.432  27.472  0.00  0.00    +0.160 C 
BRANCH  24  25
ATOM     25  N   UNL     1       5.752  -1.806  26.358  0.00  0.00    -0.300 N 
ATOM     26  H   UNL     1       5.671  -2.255  25.452  0.00  0.00    +0.150 HD
ATOM     27  C   UNL     1       6.651  -0.776  26.570  0.00  0.00    +0.245 C 
ATOM     28  O   UNL     1       6.928  -0.313  27.666  0.00  0.00    -0.270 OA
BRANCH  27  29
ATOM     29  C   UNL     1       7.332  -0.272  25.353  0.00  0.00    +0.037 A 
ATOM     30  C   UNL     1       8.640   0.219  25.467  0.00  0.00    +0.019 A 
ATOM     31  C   UNL     1       9.343   0.587  24.319  0.00  0.00    +0.085 A 
ATOM     32  C   UNL     1       8.720   0.487  23.063  0.00  0.00    +0.273 A 
ATOM     33  C   UNL     1       7.387   0.066  22.961  0.00  0.00    +0.085 A 
ATOM     34  C   UNL     1       6.692  -0.304  24.109  0.00  0.00    +0.019 A 
BRANCH  32  35
ATOM     35  N   UNL     1       9.478   0.797  21.847  0.00  0.00    +0.080 N 
ATOM     36  O   UNL     1       9.361   0.033  20.881  0.00  0.00    +0.041 OA
ATOM     37  O   UNL     1      10.177   1.823  21.854  0.00  0.00    -0.576 OA
ENDBRANCH  32  35
ENDBRANCH  27  29
ENDBRANCH  24  25
BRANCH  24  38
ATOM     38  C   UNL     1       3.743  -1.648  27.767  0.00  0.00    +0.034 C 
BRANCH  38  40
ATOM     39  C   UNL     1       3.639  -2.160  30.258  0.00  0.00    +0.007 C 
ATOM     40  C   UNL     1       2.928  -2.287  28.905  0.00  0.00    -0.015 C 
ATOM     41  C   UNL     1       1.483  -1.786  28.988  0.00  0.00    +0.007 C 
ENDBRANCH  38  40
ENDBRANCH  24  38
ENDBRANCH   1  24
TORSDOF 12
ENDMDL
MODEL 7
REMARK VINA RESULT:      -6.6      3.012      9.916
REMARK  Name = 
REMARK  14 active torsions:
REMARK  status: ('A' for Active; 'I' for Inactive)
REMARK    1  A    between atoms: C_1  and  C_2
REMARK    2  A    between atoms: C_2  and  C_3
REMARK    3  A    between atoms: C_2  and  C_4
REMARK    4  A    between atoms: C_4  and  C_5
REMARK    5  A    between atoms: C_5  and  N_7
REMARK    6  A    between atoms: C_5  and  C_19
REMARK    7  A    between atoms: C_8  and  C_10
REMARK    8  A    between atoms: C_13  and  N_16
REMARK    9  A    between atoms: C_25  and  C_27
REMARK   10  A    between atoms: N_29  and  C_30
REMARK   11  A    between atoms: C_30  and  C_31
REMARK   12  A    between atoms: C_31  and  C_32
REMARK   13  A    between atoms: C_32  and  C_33
REMARK   14  A    between atoms: C_33  and  N_34
REMARK                            x       y       z     vdW  Elec       q    Type
REMARK                         _______ _______ _______ _____ _____    ______ ____
ROOT
ATOM      1  C   UNL     1       7.227   0.461  24.108  0.00  0.00    +0.237 C 
ATOM      2  N   UNL     1       7.486   0.877  25.417  0.00  0.00    -0.288 N 
ATOM      3  C   UNL     1       6.750   1.990  26.059  0.00  0.00    +0.162 C 
ATOM      4  C   UNL     1       6.537   1.521  27.517  0.00  0.00    +0.033 C 
ATOM      5  C   UNL     1       7.186   0.150  27.620  0.00  0.00    +0.021 C 
ATOM      6  C   UNL     1       8.136   0.085  26.445  0.00  0.00    +0.109 C 
ATOM      7  O   UNL     1       6.440   1.063  23.373  0.00  0.00    -0.274 OA
ENDROOT
BRANCH   3   8
ATOM      8  C   UNL     1       7.468   3.370  26.147  0.00  0.00    +0.234 C 
ATOM      9  N   UNL     1       8.242   3.717  25.066  0.00  0.00    -0.314 N 
ATOM     10  H   UNL     1       8.144   3.160  24.232  0.00  0.00    +0.149 HD
ATOM     11  O   UNL     1       7.422   4.051  27.170  0.00  0.00    -0.274 OA
BRANCH   9  12
ATOM     12  C   UNL     1       9.057   4.921  25.014  0.00  0.00    +0.104 C 
BRANCH  12  13
ATOM     13  C   UNL     1       9.304   5.428  23.588  0.00  0.00    +0.022 C 
BRANCH  13  14
ATOM     14  C   UNL     1       8.430   6.625  23.199  0.00  0.00    +0.042 C 
BRANCH  14  15
ATOM     15  C   UNL     1       7.328   6.221  22.214  0.00  0.00    +0.243 C 
BRANCH  15  16
ATOM     16  N   UNL     1       6.232   5.605  22.962  0.00  0.00    -0.114 NA
ATOM     17  C   UNL     1       5.924   4.392  22.693  0.00  0.00    +0.376 C 
ATOM     18  N   UNL     1       4.919   3.780  23.354  0.00  0.00    -0.289 N 
ATOM     19  H   UNL     1       4.320   3.232  22.747  0.00  0.00    +0.255 HD
ATOM     20  H   UNL     1       4.377   4.459  23.880  0.00  0.00    +0.255 HD
ATOM     21  N   UNL     1       6.462   3.539  21.794  0.00  0.00    -0.289 N 
ATOM     22  H   UNL     1       6.488   2.583  22.129  0.00  0.00    +0.255 HD
ATOM     23  H   UNL     1       7.362   3.820  21.429  0.00  0.00    +0.255 HD
ENDBRANCH  15  16
ENDBRANCH  14  15
ENDBRANCH  13  14
ENDBRANCH  12  13
ENDBRANCH   9  12
ENDBRANCH   3   8
BRANCH   1  24
ATOM     24  C   UNL     1       7.990  -0.796  23.564  0.00  0.00    +0.160 C 
BRANCH  24  25
ATOM     25  N   UNL     1       7.091  -1.945  23.468  0.00  0.00    -0.300 N 
ATOM     26  H   UNL     1       6.297  -1.855  22.841  0.00  0.00    +0.150 HD
ATOM     27  C   UNL     1       7.200  -3.015  24.338  0.00  0.00    +0.245 C 
ATOM     28  O   UNL     1       8.025  -3.097  25.235  0.00  0.00    -0.270 OA
BRANCH  27  29
ATOM     29  C   UNL     1       6.190  -4.085  24.152  0.00  0.00    +0.037 A 
ATOM     30  C   UNL     1       6.259  -5.225  24.965  0.00  0.00    +0.019 A 
ATOM     31  C   UNL     1       5.252  -6.189  24.891  0.00  0.00    +0.085 A 
ATOM     32  C   UNL     1       4.194  -6.017  23.982  0.00  0.00    +0.273 A 
ATOM     33  C   UNL     1       4.168  -4.913  23.119  0.00  0.00    +0.085 A 
ATOM     34  C   UNL     1       5.172  -3.952  23.200  0.00  0.00    +0.019 A 
BRANCH  32  35
ATOM     35  N   UNL     1       3.093  -6.985  23.954  0.00  0.00    +0.080 N 
ATOM     36  O   UNL     1       2.102  -6.715  23.265  0.00  0.00    +0.041 OA
ATOM     37  O   UNL     1       3.232  -8.030  24.610  0.00  0.00    -0.576 OA
ENDBRANCH  32  35
ENDBRANCH  27  29
ENDBRANCH  24  25
BRANCH  24  38
ATOM     38  C   UNL     1       8.661  -0.546  22.194  0.00  0.00    +0.034 C 
BRANCH  38  40
ATOM     39  C   UNL     1       9.850   1.694  21.984  0.00  0.00    +0.007 C 
ATOM     40  C   UNL     1       9.995   0.208  22.334  0.00  0.00    -0.015 C 
ATOM     41  C   UNL     1      10.672   0.022  23.696  0.00  0.00    +0.007 C 
ENDBRANCH  38  40
ENDBRANCH  24  38
ENDBRANCH   1  24
TORSDOF 12
ENDMDL
MODEL 8
REMARK VINA RESULT:      -6.6      3.042     10.350
REMARK  Name = 
REMARK  14 active torsions:
REMARK  status: ('A' for Active; 'I' for Inactive)
REMARK    1  A    between atoms: C_1  and  C_2
REMARK    2  A    between atoms: C_2  and  C_3
REMARK    3  A    between atoms: C_2  and  C_4
REMARK    4  A    between atoms: C_4  and  C_5
REMARK    5  A    between atoms: C_5  and  N_7
REMARK    6  A    between atoms: C_5  and  C_19
REMARK    7  A    between atoms: C_8  and  C_10
REMARK    8  A    between atoms: C_13  and  N_16
REMARK    9  A    between atoms: C_25  and  C_27
REMARK   10  A    between atoms: N_29  and  C_30
REMARK   11  A    between atoms: C_30  and  C_31
REMARK   12  A    between atoms: C_31  and  C_32
REMARK   13  A    between atoms: C_32  and  C_33
REMARK   14  A    between atoms: C_33  and  N_34
REMARK                            x       y       z     vdW  Elec       q    Type
REMARK                         _______ _______ _______ _____ _____    ______ ____
ROOT
ATOM      1  C   UNL     1       6.774   1.503  23.504  0.00  0.00    +0.237 C 
ATOM      2  N   UNL     1       6.667   2.197  24.712  0.00  0.00    -0.288 N 
ATOM      3  C   UNL     1       5.671   3.273  24.927  0.00  0.00    +0.162 C 
ATOM      4  C   UNL     1       5.180   3.060  26.377  0.00  0.00    +0.033 C 
ATOM      5  C   UNL     1       5.948   1.862  26.912  0.00  0.00    +0.021 C 
ATOM      6  C   UNL     1       7.148   1.736  26.001  0.00  0.00    +0.109 C 
ATOM      7  O   UNL     1       6.115   1.815  22.509  0.00  0.00    -0.274 OA
ENDROOT
BRANCH   3   8
ATOM      8  C   UNL     1       6.176   4.745  24.850  0.00  0.00    +0.234 C 
ATOM      9  N   UNL     1       6.239   5.297  23.593  0.00  0.00    -0.314 N 
ATOM     10  H   UNL     1       5.786   4.793  22.846  0.00  0.00    +0.149 HD
ATOM     11  O   UNL     1       6.589   5.332  25.849  0.00  0.00    -0.274 OA
BRANCH   9  12
ATOM     12  C   UNL     1       6.774   6.622  23.323  0.00  0.00    +0.104 C 
BRANCH  12  13
ATOM     13  C   UNL     1       8.268   6.616  22.979  0.00  0.00    +0.022 C 
BRANCH  13  14
ATOM     14  C   UNL     1       9.169   7.050  24.140  0.00  0.00    +0.042 C 
BRANCH  14  15
ATOM     15  C   UNL     1      10.062   5.900  24.621  0.00  0.00    +0.243 C 
BRANCH  15  16
ATOM     16  N   UNL     1      11.441   6.177  24.220  0.00  0.00    -0.114 NA
ATOM     17  C   UNL     1      12.048   5.305  23.505  0.00  0.00    +0.376 C 
ATOM     18  N   UNL     1      13.323   5.514  23.112  0.00  0.00    -0.289 N 
ATOM     19  H   UNL     1      13.905   4.688  23.196  0.00  0.00    +0.255 HD
ATOM     20  H   UNL     1      13.727   6.295  23.620  0.00  0.00    +0.255 HD
ATOM     21  N   UNL     1      11.617   4.115  23.033  0.00  0.00    -0.289 N 
ATOM     22  H   UNL     1      11.978   3.907  22.109  0.00  0.00    +0.255 HD
ATOM     23  H   UNL     1      10.614   3.985  23.068  0.00  0.00    +0.255 HD
ENDBRANCH  15  16
ENDBRANCH  14  15
ENDBRANCH  13  14
ENDBRANCH  12  13
ENDBRANCH   9  12
ENDBRANCH   3   8
BRANCH   1  24
ATOM     24  C   UNL     1       7.791   0.312  23.420  0.00  0.00    +0.160 C 
BRANCH  24  25
ATOM     25  N   UNL     1       7.084  -0.964  23.323  0.00  0.00    -0.300 N 
ATOM     26  H   UNL     1       6.338  -1.024  22.638  0.00  0.00    +0.150 HD
ATOM     27  C   UNL     1       7.284  -1.966  24.256  0.00  0.00    +0.245 C 
ATOM     28  O   UNL     1       8.038  -1.881  25.213  0.00  0.00    -0.270 OA
BRANCH  27  29
ATOM     29  C   UNL     1       6.463  -3.185  24.058  0.00  0.00    +0.037 A 
ATOM     30  C   UNL     1       6.743  -4.319  24.833  0.00  0.00    +0.019 A 
ATOM     31  C   UNL     1       5.909  -5.436  24.750  0.00  0.00    +0.085 A 
ATOM     32  C   UNL     1       4.815  -5.420  23.868  0.00  0.00    +0.273 A 
ATOM     33  C   UNL     1       4.582  -4.313  23.041  0.00  0.00    +0.085 A 
ATOM     34  C   UNL     1       5.413  -3.200  23.132  0.00  0.00    +0.019 A 
BRANCH  32  35
ATOM     35  N   UNL     1       3.891  -6.559  23.833  0.00  0.00    +0.080 N 
ATOM     36  O   UNL     1       4.194  -7.570  24.479  0.00  0.00    +0.041 OA
ATOM     37  O   UNL     1       2.849  -6.431  23.172  0.00  0.00    -0.576 OA
ENDBRANCH  32  35
ENDBRANCH  27  29
ENDBRANCH  24  25
BRANCH  24  38
ATOM     38  C   UNL     1       8.781   0.448  22.241  0.00  0.00    +0.034 C 
BRANCH  38  40
ATOM     39  C   UNL     1      10.587   0.481  24.033  0.00  0.00    +0.007 C 
ATOM     40  C   UNL     1      10.203   0.004  22.627  0.00  0.00    -0.015 C 
ATOM     41  C   UNL     1      10.447  -1.499  22.465  0.00  0.00    +0.007 C 
ENDBRANCH  38  40
ENDBRANCH  24  38
ENDBRANCH   1  24
TORSDOF 12
ENDMDL
MODEL 9
REMARK VINA RESULT:      -6.6      2.196      3.043
REMARK  Name = 
REMARK  14 active torsions:
REMARK  status: ('A' for Active; 'I' for Inactive)
REMARK    1  A    between atoms: C_1  and  C_2
REMARK    2  A    between atoms: C_2  and  C_3
REMARK    3  A    between atoms: C_2  and  C_4
REMARK    4  A    between atoms: C_4  and  C_5
REMARK    5  A    between atoms: C_5  and  N_7
REMARK    6  A    between atoms: C_5  and  C_19
REMARK    7  A    between atoms: C_8  and  C_10
REMARK    8  A    between atoms: C_13  and  N_16
REMARK    9  A    between atoms: C_25  and  C_27
REMARK   10  A    between atoms: N_29  and  C_30
REMARK   11  A    between atoms: C_30  and  C_31
REMARK   12  A    between atoms: C_31  and  C_32
REMARK   13  A    between atoms: C_32  and  C_33
REMARK   14  A    between atoms: C_33  and  N_34
REMARK                            x       y       z     vdW  Elec       q    Type
REMARK                         _______ _______ _______ _____ _____    ______ ____
ROOT
ATOM      1  C   UNL     1       6.819  -2.891  23.368  0.00  0.00    +0.237 C 
ATOM      2  N   UNL     1       6.661  -4.271  23.216  0.00  0.00    -0.288 N 
ATOM      3  C   UNL     1       5.332  -4.925  23.204  0.00  0.00    +0.162 C 
ATOM      4  C   UNL     1       5.450  -6.019  22.119  0.00  0.00    +0.033 C 
ATOM      5  C   UNL     1       6.868  -5.927  21.577  0.00  0.00    +0.021 C 
ATOM      6  C   UNL     1       7.638  -5.177  22.640  0.00  0.00    +0.109 C 
ATOM      7  O   UNL     1       5.864  -2.145  23.605  0.00  0.00    -0.274 OA
ENDROOT
BRANCH   3   8
ATOM      8  C   UNL     1       4.877  -5.650  24.506  0.00  0.00    +0.234 C 
ATOM      9  N   UNL     1       5.737  -5.567  25.575  0.00  0.00    -0.314 N 
ATOM     10  H   UNL     1       6.491  -4.902  25.508  0.00  0.00    +0.149 HD
ATOM     11  O   UNL     1       3.858  -6.339  24.531  0.00  0.00    -0.274 OA
BRANCH   9  12
ATOM     12  C   UNL     1       5.521  -6.260  26.835  0.00  0.00    +0.104 C 
BRANCH  12  13
ATOM     13  C   UNL     1       6.121  -5.529  28.042  0.00  0.00    +0.022 C 
BRANCH  13  14
ATOM     14  C   UNL     1       5.072  -4.959  29.002  0.00  0.00    +0.042 C 
BRANCH  14  15
ATOM     15  C   UNL     1       4.061  -4.070  28.270  0.00  0.00    +0.243 C 
BRANCH  15  16
ATOM     16  N   UNL     1       4.721  -2.820  27.893  0.00  0.00    -0.114 NA
ATOM     17  C   UNL     1       4.434  -2.305  26.756  0.00  0.00    +0.376 C 
ATOM     18  N   UNL     1       5.019  -1.154  26.363  0.00  0.00    -0.289 N 
ATOM     19  H   UNL     1       5.310  -1.168  25.392  0.00  0.00    +0.255 HD
ATOM     20  H   UNL     1       5.799  -0.927  26.971  0.00  0.00    +0.255 HD
ATOM     21  N   UNL     1       3.588  -2.737  25.796  0.00  0.00    -0.289 N 
ATOM     22  H   UNL     1       3.109  -1.977  25.326  0.00  0.00    +0.255 HD
ATOM     23  H   UNL     1       2.934  -3.447  26.096  0.00  0.00    +0.255 HD
ENDBRANCH  15  16
ENDBRANCH  14  15
ENDBRANCH  13  14
ENDBRANCH  12  13
ENDBRANCH   9  12
ENDBRANCH   3   8
BRANCH   1  24
ATOM     24  C   UNL     1       8.263  -2.292  23.259  0.00  0.00    +0.160 C 
BRANCH  24  25
ATOM     25  N   UNL     1       8.222  -0.831  23.308  0.00  0.00    -0.300 N 
ATOM     26  H   UNL     1       7.598  -0.413  23.991  0.00  0.00    +0.150 HD
ATOM     27  C   UNL     1       8.843  -0.063  22.339  0.00  0.00    +0.245 C 
ATOM     28  O   UNL     1       9.458  -0.517  21.386  0.00  0.00    -0.270 OA
BRANCH  27  29
ATOM     29  C   UNL     1       8.675   1.402  22.491  0.00  0.00    +0.037 A 
ATOM     30  C   UNL     1       7.642   2.039  21.790  0.00  0.00    +0.019 A 
ATOM     31  C   UNL     1       7.390   3.394  22.009  0.00  0.00    +0.085 A 
ATOM     32  C   UNL     1       8.196   4.112  22.911  0.00  0.00    +0.273 A 
ATOM     33  C   UNL     1       9.275   3.489  23.553  0.00  0.00    +0.085 A 
ATOM     34  C   UNL     1       9.518   2.136  23.334  0.00  0.00    +0.019 A 
BRANCH  32  35
ATOM     35  N   UNL     1       7.888   5.515  23.204  0.00  0.00    +0.080 N 
ATOM     36  O   UNL     1       7.471   6.222  22.278  0.00  0.00    +0.041 OA
ATOM     37  O   UNL     1       8.047   5.904  24.372  0.00  0.00    -0.576 OA
ENDBRANCH  32  35
ENDBRANCH  27  29
ENDBRANCH  24  25
BRANCH  24  38
ATOM     38  C   UNL     1       9.218  -2.821  24.353  0.00  0.00    +0.034 C 
BRANCH  38  40
ATOM     39  C   UNL     1       9.046  -4.278  26.432  0.00  0.00    +0.007 C 
ATOM     40  C   UNL     1       8.492  -3.056  25.689  0.00  0.00    -0.015 C 
ATOM     41  C   UNL     1       8.455  -1.824  26.598  0.00  0.00    +0.007 C 
ENDBRANCH  38  40
ENDBRANCH  24  38
ENDBRANCH   1  24
TORSDOF 12
ENDMDL
