MODEL 1
REMARK VINA RESULT:      -4.3      0.000      0.000
REMARK  Name = 
REMARK  8 active torsions:
REMARK  status: ('A' for Active; 'I' for Inactive)
REMARK    1  A    between atoms: CA_2  and  CB_3
REMARK    2  A    between atoms: CA_2  and  N_7
REMARK    3  A    between atoms: CA_2  and  C_11
REMARK    4  A    between atoms: CB_3  and  CG_4
REMARK    5  A    between atoms: CG_4  and  SD_5
REMARK    6  A    between atoms: SD_5  and  CE_6
REMARK    7  A    between atoms: C_8  and  C_9
REMARK    8  A    between atoms: C_11  and  O_12
REMARK                            x       y       z     vdW  Elec       q    Type
REMARK                         _______ _______ _______ _____ _____    ______ ____
ROOT
ATOM      1  CA  MET A   1       8.463  -4.655  24.094  0.00  0.00    +0.182 C 
ENDROOT
BRANCH   1   2
ATOM      2  N   MET A   1       7.045  -4.966  23.911  0.00  0.00    -0.303 N 
ATOM      3  H   MET A   1       6.441  -4.870  24.724  0.00  0.00    +0.149 HD
ATOM      4  C   UNK A   0       6.552  -5.489  22.743  0.00  0.00    +0.211 C 
ATOM      5  O   UNK A   0       7.236  -5.662  21.740  0.00  0.00    -0.276 OA
ATOM      6  C   UNK A   0       5.092  -5.848  22.786  0.00  0.00    +0.109 C 
ENDBRANCH   1   2
BRANCH   1   7
ATOM      7  C   MET A   1       8.920  -5.391  25.360  0.00  0.00    +0.325 C 
ATOM      8  OXT MET A   1       8.162  -5.730  26.261  0.00  0.00    -0.249 OA
BRANCH   7   9
ATOM      9  O   MET A   1      10.251  -5.628  25.414  0.00  0.00    -0.479 OA
ATOM     10  H   MET A   1      10.717  -5.457  24.568  0.00  0.00    +0.295 HD
ENDBRANCH   7   9
ENDBRANCH   1   7
BRANCH   1  11
ATOM     11  CB  MET A   1       8.703  -3.143  24.216  0.00  0.00    +0.044 C 
BRANCH  11  12
ATOM     12  CG  MET A   1       8.637  -2.352  22.905  0.00  0.00    +0.071 C 
BRANCH  12  13
ATOM     13  SD  MET A   1      10.186  -1.446  22.576  0.00  0.00    -0.164 S 
ATOM     14  CE  MET A   1       9.528  -0.118  21.539  0.00  0.00    +0.084 C 
ENDBRANCH  12  13
ENDBRANCH  11  12
ENDBRANCH   1  11
TORSDOF 6
ENDMDL
MODEL 2
REMARK VINA RESULT:      -4.2      3.080      4.939
REMARK  Name = 
REMARK  8 active torsions:
REMARK  status: ('A' for Active; 'I' for Inactive)
REMARK    1  A    between atoms: CA_2  and  CB_3
REMARK    2  A    between atoms: CA_2  and  N_7
REMARK    3  A    between atoms: CA_2  and  C_11
REMARK    4  A    between atoms: CB_3  and  CG_4
REMARK    5  A    between atoms: CG_4  and  SD_5
REMARK    6  A    between atoms: SD_5  and  CE_6
REMARK    7  A    between atoms: C_8  and  C_9
REMARK    8  A    between atoms: C_11  and  O_12
REMARK                            x       y       z     vdW  Elec       q    Type
REMARK                         _______ _______ _______ _____ _____    ______ ____
ROOT
ATOM      1  CA  MET A   1       7.747  -3.352  22.747  0.00  0.00    +0.182 C 
ENDROOT
BRANCH   1   2
ATOM      2  N   MET A   1       8.267  -2.286  23.605  0.00  0.00    -0.303 N 
ATOM      3  H   MET A   1       7.590  -1.766  24.158  0.00  0.00    +0.149 HD
ATOM      4  C   UNK A   0       9.583  -1.902  23.584  0.00  0.00    +0.211 C 
ATOM      5  O   UNK A   0      10.440  -2.466  22.911  0.00  0.00    -0.276 OA
ATOM      6  C   UNK A   0       9.901  -0.715  24.451  0.00  0.00    +0.109 C 
ENDBRANCH   1   2
BRANCH   1   7
ATOM      7  C   MET A   1       6.340  -2.926  22.310  0.00  0.00    +0.325 C 
ATOM      8  OXT MET A   1       5.641  -3.576  21.543  0.00  0.00    -0.249 OA
BRANCH   7   9
ATOM      9  O   MET A   1       5.931  -1.747  22.834  0.00  0.00    -0.479 OA
ATOM     10  H   MET A   1       5.098  -1.811  23.349  0.00  0.00    +0.295 HD
ENDBRANCH   7   9
ENDBRANCH   1   7
BRANCH   1  11
ATOM     11  CB  MET A   1       7.716  -4.704  23.476  0.00  0.00    +0.044 C 
BRANCH  11  12
ATOM     12  CG  MET A   1       6.917  -4.736  24.782  0.00  0.00    +0.071 C 
BRANCH  12  13
ATOM     13  SD  MET A   1       7.994  -4.972  26.236  0.00  0.00    -0.164 S 
ATOM     14  CE  MET A   1       9.577  -5.195  25.390  0.00  0.00    +0.084 C 
ENDBRANCH  12  13
ENDBRANCH  11  12
ENDBRANCH   1  11
TORSDOF 6
ENDMDL
MODEL 3
REMARK VINA RESULT:      -4.2      2.746      3.789
REMARK  Name = 
REMARK  8 active torsions:
REMARK  status: ('A' for Active; 'I' for Inactive)
REMARK    1  A    between atoms: CA_2  and  CB_3
REMARK    2  A    between atoms: CA_2  and  N_7
REMARK    3  A    between atoms: CA_2  and  C_11
REMARK    4  A    between atoms: CB_3  and  CG_4
REMARK    5  A    between atoms: CG_4  and  SD_5
REMARK    6  A    between atoms: SD_5  and  CE_6
REMARK    7  A    between atoms: C_8  and  C_9
REMARK    8  A    between atoms: C_11  and  O_12
REMARK                            x       y       z     vdW  Elec       q    Type
REMARK                         _______ _______ _______ _____ _____    ______ ____
ROOT
ATOM      1  CA  MET A   1       7.801  -2.483  22.954  0.00  0.00    +0.182 C 
ENDROOT
BRANCH   1   2
ATOM      2  N   MET A   1       7.555  -3.845  22.477  0.00  0.00    -0.303 N 
ATOM      3  H   MET A   1       8.294  -4.527  22.626  0.00  0.00    +0.149 HD
ATOM      4  C   UNK A   0       6.443  -4.178  21.747  0.00  0.00    +0.211 C 
ATOM      5  O   UNK A   0       5.535  -3.390  21.503  0.00  0.00    -0.276 OA
ATOM      6  C   UNK A   0       6.424  -5.597  21.250  0.00  0.00    +0.109 C 
ENDBRANCH   1   2
BRANCH   1   7
ATOM      7  C   MET A   1       9.288  -2.190  22.716  0.00  0.00    +0.325 C 
ATOM      8  OXT MET A   1      10.152  -2.321  23.573  0.00  0.00    -0.249 OA
BRANCH   7   9
ATOM      9  O   MET A   1       9.573  -1.752  21.467  0.00  0.00    -0.479 OA
ATOM     10  H   MET A   1      10.133  -2.370  20.950  0.00  0.00    +0.295 HD
ENDBRANCH   7   9
ENDBRANCH   1   7
BRANCH   1  11
ATOM     11  CB  MET A   1       7.436  -2.325  24.438  0.00  0.00    +0.044 C 
BRANCH  11  12
ATOM     12  CG  MET A   1       7.176  -3.628  25.201  0.00  0.00    +0.071 C 
BRANCH  12  13
ATOM     13  SD  MET A   1       8.539  -4.034  26.343  0.00  0.00    -0.164 S 
ATOM     14  CE  MET A   1       9.396  -5.272  25.342  0.00  0.00    +0.084 C 
ENDBRANCH  12  13
ENDBRANCH  11  12
ENDBRANCH   1  11
TORSDOF 6
ENDMDL
MODEL 4
REMARK VINA RESULT:      -4.2      4.103      5.693
REMARK  Name = 
REMARK  8 active torsions:
REMARK  status: ('A' for Active; 'I' for Inactive)
REMARK    1  A    between atoms: CA_2  and  CB_3
REMARK    2  A    between atoms: CA_2  and  N_7
REMARK    3  A    between atoms: CA_2  and  C_11
REMARK    4  A    between atoms: CB_3  and  CG_4
REMARK    5  A    between atoms: CG_4  and  SD_5
REMARK    6  A    between atoms: SD_5  and  CE_6
REMARK    7  A    between atoms: C_8  and  C_9
REMARK    8  A    between atoms: C_11  and  O_12
REMARK                            x       y       z     vdW  Elec       q    Type
REMARK                         _______ _______ _______ _____ _____    ______ ____
ROOT
ATOM      1  CA  MET A   1      10.191  -0.264  23.522  0.00  0.00    +0.182 C 
ENDROOT
BRANCH   1   2
ATOM      2  N   MET A   1       9.036   0.422  22.941  0.00  0.00    -0.303 N 
ATOM      3  H   MET A   1       8.124  -0.004  23.084  0.00  0.00    +0.149 HD
ATOM      4  C   UNK A   0       9.166   1.520  22.128  0.00  0.00    +0.211 C 
ATOM      5  O   UNK A   0      10.242   2.058  21.888  0.00  0.00    -0.276 OA
ATOM      6  C   UNK A   0       7.875   2.015  21.536  0.00  0.00    +0.109 C 
ENDBRANCH   1   2
BRANCH   1   7
ATOM      7  C   MET A   1      10.220  -1.674  22.919  0.00  0.00    +0.325 C 
ATOM      8  OXT MET A   1      10.251  -2.699  23.589  0.00  0.00    -0.249 OA
BRANCH   7   9
ATOM      9  O   MET A   1      10.227  -1.698  21.566  0.00  0.00    -0.479 OA
ATOM     10  H   MET A   1      10.054  -2.586  21.186  0.00  0.00    +0.295 HD
ENDBRANCH   7   9
ENDBRANCH   1   7
BRANCH   1  11
ATOM     11  CB  MET A   1      10.108  -0.318  25.056  0.00  0.00    +0.044 C 
BRANCH  11  12
ATOM     12  CG  MET A   1       8.712  -0.118  25.653  0.00  0.00    +0.071 C 
BRANCH  12  13
ATOM     13  SD  MET A   1       8.023  -1.672  26.316  0.00  0.00    -0.164 S 
ATOM     14  CE  MET A   1       6.989  -2.151  24.913  0.00  0.00    +0.084 C 
ENDBRANCH  12  13
ENDBRANCH  11  12
ENDBRANCH   1  11
TORSDOF 6
ENDMDL
MODEL 5
REMARK VINA RESULT:      -4.1      2.864      3.312
REMARK  Name = 
REMARK  8 active torsions:
REMARK  status: ('A' for Active; 'I' for Inactive)
REMARK    1  A    between atoms: CA_2  and  CB_3
REMARK    2  A    between atoms: CA_2  and  N_7
REMARK    3  A    between atoms: CA_2  and  C_11
REMARK    4  A    between atoms: CB_3  and  CG_4
REMARK    5  A    between atoms: CG_4  and  SD_5
REMARK    6  A    between atoms: SD_5  and  CE_6
REMARK    7  A    between atoms: C_8  and  C_9
REMARK    8  A    between atoms: C_11  and  O_12
REMARK                            x       y       z     vdW  Elec       q    Type
REMARK                         _______ _______ _______ _____ _____    ______ ____
ROOT
ATOM      1  CA  MET A   1       7.943  -2.305  22.477  0.00  0.00    +0.182 C 
ENDROOT
BRANCH   1   2
ATOM      2  N   MET A   1       7.604  -3.729  22.487  0.00  0.00    -0.303 N 
ATOM      3  H   MET A   1       8.275  -4.361  22.915  0.00  0.00    +0.149 HD
ATOM      4  C   UNK A   0       6.501  -4.226  21.840  0.00  0.00    +0.211 C 
ATOM      5  O   UNK A   0       5.675  -3.517  21.273  0.00  0.00    -0.276 OA
ATOM      6  C   UNK A   0       6.384  -5.724  21.867  0.00  0.00    +0.109 C 
ENDBRANCH   1   2
BRANCH   1   7
ATOM      7  C   MET A   1       9.472  -2.212  22.559  0.00  0.00    +0.325 C 
ATOM      8  OXT MET A   1      10.132  -2.654  23.492  0.00  0.00    -0.249 OA
BRANCH   7   9
ATOM      9  O   MET A   1      10.045  -1.578  21.510  0.00  0.00    -0.479 OA
ATOM     10  H   MET A   1      10.429  -0.704  21.738  0.00  0.00    +0.295 HD
ENDBRANCH   7   9
ENDBRANCH   1   7
BRANCH   1  11
ATOM     11  CB  MET A   1       7.279  -1.554  23.642  0.00  0.00    +0.044 C 
BRANCH  11  12
ATOM     12  CG  MET A   1       7.654  -0.076  23.779  0.00  0.00    +0.071 C 
BRANCH  12  13
ATOM     13  SD  MET A   1       8.519   0.268  25.348  0.00  0.00    -0.164 S 
ATOM     14  CE  MET A   1      10.137   0.734  24.690  0.00  0.00    +0.084 C 
ENDBRANCH  12  13
ENDBRANCH  11  12
ENDBRANCH   1  11
TORSDOF 6
ENDMDL
MODEL 6
REMARK VINA RESULT:      -4.1      2.913      4.156
REMARK  Name = 
REMARK  8 active torsions:
REMARK  status: ('A' for Active; 'I' for Inactive)
REMARK    1  A    between atoms: CA_2  and  CB_3
REMARK    2  A    between atoms: CA_2  and  N_7
REMARK    3  A    between atoms: CA_2  and  C_11
REMARK    4  A    between atoms: CB_3  and  CG_4
REMARK    5  A    between atoms: CG_4  and  SD_5
REMARK    6  A    between atoms: SD_5  and  CE_6
REMARK    7  A    between atoms: C_8  and  C_9
REMARK    8  A    between atoms: C_11  and  O_12
REMARK                            x       y       z     vdW  Elec       q    Type
REMARK                         _______ _______ _______ _____ _____    ______ ____
ROOT
ATOM      1  CA  MET A   1       9.331  -1.648  23.840  0.00  0.00    +0.182 C 
ENDROOT
BRANCH   1   2
ATOM      2  N   MET A   1       9.820  -2.914  24.386  0.00  0.00    -0.303 N 
ATOM      3  H   MET A   1      10.787  -3.161  24.188  0.00  0.00    +0.149 HD
ATOM      4  C   UNK A   0       8.998  -3.805  25.027  0.00  0.00    +0.211 C 
ATOM      5  O   UNK A   0       7.815  -3.581  25.264  0.00  0.00    -0.276 OA
ATOM      6  C   UNK A   0       9.659  -5.098  25.415  0.00  0.00    +0.109 C 
ENDBRANCH   1   2
BRANCH   1   7
ATOM      7  C   MET A   1       9.032  -1.889  22.355  0.00  0.00    +0.325 C 
ATOM      8  OXT MET A   1       7.954  -2.293  21.936  0.00  0.00    -0.249 OA
BRANCH   7   9
ATOM      9  O   MET A   1      10.073  -1.632  21.531  0.00  0.00    -0.479 OA
ATOM     10  H   MET A   1      10.796  -1.121  21.955  0.00  0.00    +0.295 HD
ENDBRANCH   7   9
ENDBRANCH   1   7
BRANCH   1  11
ATOM     11  CB  MET A   1      10.355  -0.516  24.023  0.00  0.00    +0.044 C 
BRANCH  11  12
ATOM     12  CG  MET A   1       9.808   0.785  24.618  0.00  0.00    +0.071 C 
BRANCH  12  13
ATOM     13  SD  MET A   1      10.394   2.252  23.706  0.00  0.00    -0.164 S 
ATOM     14  CE  MET A   1       9.828   1.806  22.047  0.00  0.00    +0.084 C 
ENDBRANCH  12  13
ENDBRANCH  11  12
ENDBRANCH   1  11
TORSDOF 6
ENDMDL
MODEL 7
REMARK VINA RESULT:      -4.1      5.944      8.201
REMARK  Name = 
REMARK  8 active torsions:
REMARK  status: ('A' for Active; 'I' for Inactive)
REMARK    1  A    between atoms: CA_2  and  CB_3
REMARK    2  A    between atoms: CA_2  and  N_7
REMARK    3  A    between atoms: CA_2  and  C_11
REMARK    4  A    between atoms: CB_3  and  CG_4
REMARK    5  A    between atoms: CG_4  and  SD_5
REMARK    6  A    between atoms: SD_5  and  CE_6
REMARK    7  A    between atoms: C_8  and  C_9
REMARK    8  A    between atoms: C_11  and  O_12
REMARK                            x       y       z     vdW  Elec       q    Type
REMARK                         _______ _______ _______ _____ _____    ______ ____
ROOT
ATOM      1  CA  MET A   1       9.844   2.353  23.347  0.00  0.00    +0.182 C 
ENDROOT
BRANCH   1   2
ATOM      2  N   MET A   1       9.791   3.795  23.595  0.00  0.00    -0.303 N 
ATOM      3  H   MET A   1       8.870   4.211  23.710  0.00  0.00    +0.149 HD
ATOM      4  C   UNK A   0      10.908   4.590  23.549  0.00  0.00    +0.211 C 
ATOM      5  O   UNK A   0      12.040   4.152  23.377  0.00  0.00    -0.276 OA
ATOM      6  C   UNK A   0      10.636   6.059  23.717  0.00  0.00    +0.109 C 
ENDBRANCH   1   2
BRANCH   1   7
ATOM      7  C   MET A   1       8.693   2.024  22.388  0.00  0.00    +0.325 C 
ATOM      8  OXT MET A   1       7.520   1.946  22.735  0.00  0.00    -0.249 OA
BRANCH   7   9
ATOM      9  O   MET A   1       9.081   1.806  21.111  0.00  0.00    -0.479 OA
ATOM     10  H   MET A   1       9.699   1.051  21.008  0.00  0.00    +0.295 HD
ENDBRANCH   7   9
ENDBRANCH   1   7
BRANCH   1  11
ATOM     11  CB  MET A   1       9.728   1.547  24.650  0.00  0.00    +0.044 C 
BRANCH  11  12
ATOM     12  CG  MET A   1      10.576   0.274  24.722  0.00  0.00    +0.071 C 
BRANCH  12  13
ATOM     13  SD  MET A   1       9.627  -1.207  24.237  0.00  0.00    -0.164 S 
ATOM     14  CE  MET A   1      10.279  -1.433  22.565  0.00  0.00    +0.084 C 
ENDBRANCH  12  13
ENDBRANCH  11  12
ENDBRANCH   1  11
TORSDOF 6
ENDMDL
MODEL 8
REMARK VINA RESULT:      -4.0      4.380      5.668
REMARK  Name = 
REMARK  8 active torsions:
REMARK  status: ('A' for Active; 'I' for Inactive)
REMARK    1  A    between atoms: CA_2  and  CB_3
REMARK    2  A    between atoms: CA_2  and  N_7
REMARK    3  A    between atoms: CA_2  and  C_11
REMARK    4  A    between atoms: CB_3  and  CG_4
REMARK    5  A    between atoms: CG_4  and  SD_5
REMARK    6  A    between atoms: SD_5  and  CE_6
REMARK    7  A    between atoms: C_8  and  C_9
REMARK    8  A    between atoms: C_11  and  O_12
REMARK                            x       y       z     vdW  Elec       q    Type
REMARK                         _______ _______ _______ _____ _____    ______ ____
ROOT
ATOM      1  CA  MET A   1       9.889   0.803  23.035  0.00  0.00    +0.182 C 
ENDROOT
BRANCH   1   2
ATOM      2  N   MET A   1       9.018  -0.373  23.024  0.00  0.00    -0.303 N 
ATOM      3  H   MET A   1       8.063  -0.245  23.349  0.00  0.00    +0.149 HD
ATOM      4  C   UNK A   0       9.481  -1.627  22.715  0.00  0.00    +0.211 C 
ATOM      5  O   UNK A   0      10.630  -1.851  22.351  0.00  0.00    -0.276 OA
ATOM      6  C   UNK A   0       8.463  -2.724  22.869  0.00  0.00    +0.109 C 
ENDBRANCH   1   2
BRANCH   1   7
ATOM      7  C   MET A   1       9.879   1.349  24.468  0.00  0.00    +0.325 C 
ATOM      8  OXT MET A   1       9.351   2.407  24.789  0.00  0.00    -0.249 OA
BRANCH   7   9
ATOM      9  O   MET A   1      10.526   0.567  25.363  0.00  0.00    -0.479 OA
ATOM     10  H   MET A   1      11.504   0.612  25.295  0.00  0.00    +0.295 HD
ENDBRANCH   7   9
ENDBRANCH   1   7
BRANCH   1  11
ATOM     11  CB  MET A   1       9.419   1.868  22.032  0.00  0.00    +0.044 C 
BRANCH  11  12
ATOM     12  CG  MET A   1       8.026   1.649  21.433  0.00  0.00    +0.071 C 
BRANCH  12  13
ATOM     13  SD  MET A   1       6.725   2.479  22.407  0.00  0.00    -0.164 S 
ATOM     14  CE  MET A   1       7.316   4.184  22.284  0.00  0.00    +0.084 C 
ENDBRANCH  12  13
ENDBRANCH  11  12
ENDBRANCH   1  11
TORSDOF 6
ENDMDL
MODEL 9
REMARK VINA RESULT:      -4.0      3.973      5.928
REMARK  Name = 
REMARK  8 active torsions:
REMARK  status: ('A' for Active; 'I' for Inactive)
REMARK    1  A    between atoms: CA_2  and  CB_3
REMARK    2  A    between atoms: CA_2  and  N_7
REMARK    3  A    between atoms: CA_2  and  C_11
REMARK    4  A    between atoms: CB_3  and  CG_4
REMARK    5  A    between atoms: CG_4  and  SD_5
REMARK    6  A    between atoms: SD_5  and  CE_6
REMARK    7  A    between atoms: C_8  and  C_9
REMARK    8  A    between atoms: C_11  and  O_12
REMARK                            x       y       z     vdW  Elec       q    Type
REMARK                         _______ _______ _______ _____ _____    ______ ____
ROOT
ATOM      1  CA  MET A   1       9.099  -0.647  23.492  0.00  0.00    +0.182 C 
ENDROOT
BRANCH   1   2
ATOM      2  N   MET A   1       9.810   0.581  23.136  0.00  0.00    -0.303 N 
ATOM      3  H   MET A   1      10.432   0.539  22.333  0.00  0.00    +0.149 HD
ATOM      4  C   UNK A   0       9.755   1.713  23.909  0.00  0.00    +0.211 C 
ATOM      5  O   UNK A   0       9.052   1.813  24.909  0.00  0.00    -0.276 OA
ATOM      6  C   UNK A   0      10.642   2.833  23.440  0.00  0.00    +0.109 C 
ENDBRANCH   1   2
BRANCH   1   7
ATOM      7  C   MET A   1       9.942  -1.817  22.967  0.00  0.00    +0.325 C 
ATOM      8  OXT MET A   1      10.247  -2.792  23.642  0.00  0.00    -0.249 OA
BRANCH   7   9
ATOM      9  O   MET A   1      10.343  -1.678  21.682  0.00  0.00    -0.479 OA
ATOM     10  H   MET A   1       9.702  -1.194  21.118  0.00  0.00    +0.295 HD
ENDBRANCH   7   9
ENDBRANCH   1   7
BRANCH   1  11
ATOM     11  CB  MET A   1       7.681  -0.676  22.902  0.00  0.00    +0.044 C 
BRANCH  11  12
ATOM     12  CG  MET A   1       6.712  -1.670  23.549  0.00  0.00    +0.071 C 
BRANCH  12  13
ATOM     13  SD  MET A   1       6.152  -2.945  22.369  0.00  0.00    -0.164 S 
ATOM     14  CE  MET A   1       7.135  -4.341  22.966  0.00  0.00    +0.084 C 
ENDBRANCH  12  13
ENDBRANCH  11  12
ENDBRANCH   1  11
TORSDOF 6
ENDMDL
