MODEL 1
REMARK VINA RESULT:      -6.4      0.000      0.000
REMARK  Name = 
REMARK  7 active torsions:
REMARK  status: ('A' for Active; 'I' for Inactive)
REMARK    1  A    between atoms: O_1  and  C_2
REMARK    2  A    between atoms: C_2  and  C_4
REMARK    3  A    between atoms: C_2  and  C_16
REMARK    4  A    between atoms: C_4  and  O_5
REMARK    5  A    between atoms: O_5  and  N_6
REMARK    6  A    between atoms: C_7  and  C_9
REMARK    7  A    between atoms: C_16  and  N_17
REMARK                            x       y       z     vdW  Elec       q    Type
REMARK                         _______ _______ _______ _____ _____    ______ ____
ROOT
ATOM      1  C   UNL     1       9.241  -5.150  25.866  0.00  0.00    +0.295 C 
ENDROOT
BRANCH   1   2
ATOM      2  C   UNL     1       7.832  -5.086  26.463  0.00  0.00    +0.168 C 
BRANCH   2   3
ATOM      3  O   UNL     1       7.713  -5.927  27.618  0.00  0.00    -0.387 OA
ATOM      4  H   UNL     1       7.645  -5.329  28.386  0.00  0.00    +0.210 HD
ENDBRANCH   2   3
BRANCH   2   5
ATOM      5  C   UNL     1       6.732  -5.416  25.419  0.00  0.00    +0.119 C 
BRANCH   5   6
ATOM      6  N   UNL     1       5.329  -5.464  25.895  0.00  0.00    -0.300 NA
ATOM      7  C   UNL     1       4.559  -6.521  25.210  0.00  0.00    +0.084 C 
ATOM      8  C   UNL     1       4.225  -6.217  23.745  0.00  0.00    +0.015 C 
ATOM      9  C   UNL     1       3.562  -4.853  23.581  0.00  0.00    +0.002 C 
ATOM     10  C   UNL     1       4.338  -3.768  24.322  0.00  0.00    +0.015 C 
ATOM     11  C   UNL     1       4.610  -4.185  25.771  0.00  0.00    +0.084 C 
ENDBRANCH   5   6
ENDBRANCH   2   5
ENDBRANCH   1   2
BRANCH   1  12
ATOM     12  O   UNL     1       9.170  -4.902  24.453  0.00  0.00    -0.390 OA
BRANCH  12  13
ATOM     13  N   UNL     1       9.620  -3.587  24.224  0.00  0.00    -0.072 NA
ATOM     14  C   UNL     1       8.945  -2.944  23.312  0.00  0.00    +0.181 C 
ATOM     15 CL   UNL     1       7.611  -3.694  22.493  0.00  0.00    -0.058 Cl
BRANCH  14  16
ATOM     16  C   UNL     1       9.368  -1.544  22.989  0.00  0.00    +0.080 A 
ATOM     17  C   UNL     1       9.045  -0.990  21.743  0.00  0.00    +0.023 A 
ATOM     18  C   UNL     1       9.396   0.323  21.439  0.00  0.00    +0.072 A 
ATOM     19  C   UNL     1      10.077   1.076  22.388  0.00  0.00    +0.322 A 
ATOM     20  N   UNL     1      10.420   0.544  23.621  0.00  0.00    -0.177 N 
ATOM     21  O   UNL     1      11.043   1.246  24.473  0.00  0.00    -0.620 OA
ATOM     22  C   UNL     1      10.065  -0.763  23.911  0.00  0.00    +0.333 A 
ENDBRANCH  14  16
ENDBRANCH  12  13
ENDBRANCH   1  12
TORSDOF 7
ENDMDL
MODEL 2
REMARK VINA RESULT:      -6.4      3.027      4.973
REMARK  Name = 
REMARK  7 active torsions:
REMARK  status: ('A' for Active; 'I' for Inactive)
REMARK    1  A    between atoms: O_1  and  C_2
REMARK    2  A    between atoms: C_2  and  C_4
REMARK    3  A    between atoms: C_2  and  C_16
REMARK    4  A    between atoms: C_4  and  O_5
REMARK    5  A    between atoms: O_5  and  N_6
REMARK    6  A    between atoms: C_7  and  C_9
REMARK    7  A    between atoms: C_16  and  N_17
REMARK                            x       y       z     vdW  Elec       q    Type
REMARK                         _______ _______ _______ _____ _____    ______ ____
ROOT
ATOM      1  C   UNL     1       9.969  -0.914  24.486  0.00  0.00    +0.295 C 
ENDROOT
BRANCH   1   2
ATOM      2  C   UNL     1       9.939  -2.185  23.631  0.00  0.00    +0.168 C 
BRANCH   2   3
ATOM      3  O   UNL     1      10.129  -1.887  22.242  0.00  0.00    -0.387 OA
ATOM      4  H   UNL     1       9.442  -1.237  22.005  0.00  0.00    +0.210 HD
ENDBRANCH   2   3
BRANCH   2   5
ATOM      5  C   UNL     1       8.646  -3.015  23.852  0.00  0.00    +0.119 C 
BRANCH   5   6
ATOM      6  N   UNL     1       8.796  -4.476  24.050  0.00  0.00    -0.300 NA
ATOM      7  C   UNL     1       7.486  -5.150  24.135  0.00  0.00    +0.084 C 
ATOM      8  C   UNL     1       6.716  -4.886  25.434  0.00  0.00    +0.015 C 
ATOM      9  C   UNL     1       7.566  -5.168  26.670  0.00  0.00    +0.002 C 
ATOM     10  C   UNL     1       8.934  -4.503  26.564  0.00  0.00    +0.015 C 
ATOM     11  C   UNL     1       9.604  -4.841  25.228  0.00  0.00    +0.084 C 
ENDBRANCH   5   6
ENDBRANCH   2   5
ENDBRANCH   1   2
BRANCH   1  12
ATOM     12  O   UNL     1       9.005   0.022  23.981  0.00  0.00    -0.390 OA
BRANCH  12  13
ATOM     13  N   UNL     1       9.458   1.318  24.293  0.00  0.00    -0.072 NA
ATOM     14  C   UNL     1       9.793   2.030  23.254  0.00  0.00    +0.181 C 
ATOM     15 CL   UNL     1       9.660   1.385  21.648  0.00  0.00    -0.058 Cl
BRANCH  14  16
ATOM     16  C   UNL     1      10.307   3.417  23.495  0.00  0.00    +0.080 A 
ATOM     17  C   UNL     1       9.427   4.418  23.927  0.00  0.00    +0.023 A 
ATOM     18  C   UNL     1       9.892   5.703  24.193  0.00  0.00    +0.072 A 
ATOM     19  C   UNL     1      11.243   5.981  24.019  0.00  0.00    +0.322 A 
ATOM     20  N   UNL     1      12.129   5.010  23.580  0.00  0.00    -0.177 N 
ATOM     21  O   UNL     1      13.357   5.283  23.426  0.00  0.00    -0.620 OA
ATOM     22  C   UNL     1      11.653   3.736  23.318  0.00  0.00    +0.333 A 
ENDBRANCH  14  16
ENDBRANCH  12  13
ENDBRANCH   1  12
TORSDOF 7
ENDMDL
MODEL 3
REMARK VINA RESULT:      -6.3      3.269      4.879
REMARK  Name = 
REMARK  7 active torsions:
REMARK  status: ('A' for Active; 'I' for Inactive)
REMARK    1  A    between atoms: O_1  and  C_2
REMARK    2  A    between atoms: C_2  and  C_4
REMARK    3  A    between atoms: C_2  and  C_16
REMARK    4  A    between atoms: C_4  and  O_5
REMARK    5  A    between atoms: O_5  and  N_6
REMARK    6  A    between atoms: C_7  and  C_9
REMARK    7  A    between atoms: C_16  and  N_17
REMARK                            x       y       z     vdW  Elec       q    Type
REMARK                         _______ _______ _______ _____ _____    ______ ____
ROOT
ATOM      1  C   UNL     1       9.948  -0.859  24.134  0.00  0.00    +0.295 C 
ENDROOT
BRANCH   1   2
ATOM      2  C   UNL     1       9.787  -1.934  23.055  0.00  0.00    +0.168 C 
BRANCH   2   3
ATOM      3  O   UNL     1      10.534  -1.610  21.875  0.00  0.00    -0.387 OA
ATOM      4  H   UNL     1      11.429  -1.367  22.176  0.00  0.00    +0.210 HD
ENDBRANCH   2   3
BRANCH   2   5
ATOM      5  C   UNL     1       8.298  -2.210  22.713  0.00  0.00    +0.119 C 
BRANCH   5   6
ATOM      6  N   UNL     1       7.501  -2.979  23.698  0.00  0.00    -0.300 NA
ATOM      7  C   UNL     1       7.807  -4.421  23.637  0.00  0.00    +0.084 C 
ATOM      8  C   UNL     1       7.265  -5.135  22.393  0.00  0.00    +0.015 C 
ATOM      9  C   UNL     1       5.775  -4.875  22.189  0.00  0.00    +0.002 C 
ATOM     10  C   UNL     1       5.455  -3.387  22.291  0.00  0.00    +0.015 C 
ATOM     11  C   UNL     1       6.046  -2.788  23.571  0.00  0.00    +0.084 C 
ENDBRANCH   5   6
ENDBRANCH   2   5
ENDBRANCH   1   2
BRANCH   1  12
ATOM     12  O   UNL     1       8.923   0.133  23.972  0.00  0.00    -0.390 OA
BRANCH  12  13
ATOM     13  N   UNL     1       9.484   1.386  24.290  0.00  0.00    -0.072 NA
ATOM     14  C   UNL     1       9.711   2.146  23.255  0.00  0.00    +0.181 C 
ATOM     15 CL   UNL     1       9.325   1.609  21.651  0.00  0.00    -0.058 Cl
BRANCH  14  16
ATOM     16  C   UNL     1      10.325   3.491  23.499  0.00  0.00    +0.080 A 
ATOM     17  C   UNL     1       9.535   4.537  23.991  0.00  0.00    +0.023 A 
ATOM     18  C   UNL     1      10.096   5.783  24.261  0.00  0.00    +0.072 A 
ATOM     19  C   UNL     1      11.453   5.975  24.029  0.00  0.00    +0.322 A 
ATOM     20  N   UNL     1      12.251   4.959  23.530  0.00  0.00    -0.177 N 
ATOM     21  O   UNL     1      13.486   5.154  23.324  0.00  0.00    -0.620 OA
ATOM     22  C   UNL     1      11.680   3.725  23.265  0.00  0.00    +0.333 A 
ENDBRANCH  14  16
ENDBRANCH  12  13
ENDBRANCH   1  12
TORSDOF 7
ENDMDL
MODEL 4
REMARK VINA RESULT:      -6.2      2.281      7.591
REMARK  Name = 
REMARK  7 active torsions:
REMARK  status: ('A' for Active; 'I' for Inactive)
REMARK    1  A    between atoms: O_1  and  C_2
REMARK    2  A    between atoms: C_2  and  C_4
REMARK    3  A    between atoms: C_2  and  C_16
REMARK    4  A    between atoms: C_4  and  O_5
REMARK    5  A    between atoms: O_5  and  N_6
REMARK    6  A    between atoms: C_7  and  C_9
REMARK    7  A    between atoms: C_16  and  N_17
REMARK                            x       y       z     vdW  Elec       q    Type
REMARK                         _______ _______ _______ _____ _____    ______ ____
ROOT
ATOM      1  C   UNL     1       8.180  -2.006  22.461  0.00  0.00    +0.295 C 
ENDROOT
BRANCH   1   2
ATOM      2  C   UNL     1       9.612  -1.730  22.928  0.00  0.00    +0.168 C 
BRANCH   2   3
ATOM      3  O   UNL     1      10.158  -2.851  23.636  0.00  0.00    -0.387 OA
ATOM      4  H   UNL     1       9.760  -3.647  23.238  0.00  0.00    +0.210 HD
ENDBRANCH   2   3
BRANCH   2   5
ATOM      5  C   UNL     1       9.719  -0.431  23.771  0.00  0.00    +0.119 C 
BRANCH   5   6
ATOM      6  N   UNL     1      10.458   0.709  23.179  0.00  0.00    -0.300 NA
ATOM      7  C   UNL     1      10.514   1.858  24.105  0.00  0.00    +0.084 C 
ATOM      8  C   UNL     1       9.183   2.598  24.282  0.00  0.00    +0.015 C 
ATOM      9  C   UNL     1       8.565   2.993  22.943  0.00  0.00    +0.002 C 
ATOM     10  C   UNL     1       8.543   1.814  21.975  0.00  0.00    +0.015 C 
ATOM     11  C   UNL     1       9.926   1.159  21.882  0.00  0.00    +0.084 C 
ENDBRANCH   5   6
ENDBRANCH   2   5
ENDBRANCH   1   2
BRANCH   1  12
ATOM     12  O   UNL     1       8.026  -3.409  22.201  0.00  0.00    -0.390 OA
BRANCH  12  13
ATOM     13  N   UNL     1       7.388  -3.987  23.316  0.00  0.00    -0.072 NA
ATOM     14  C   UNL     1       6.658  -5.029  23.032  0.00  0.00    +0.181 C 
ATOM     15 CL   UNL     1       6.531  -5.613  21.403  0.00  0.00    -0.058 Cl
BRANCH  14  16
ATOM     16  C   UNL     1       5.926  -5.695  24.157  0.00  0.00    +0.080 A 
ATOM     17  C   UNL     1       6.245  -5.371  25.482  0.00  0.00    +0.023 A 
ATOM     18  C   UNL     1       5.549  -5.950  26.540  0.00  0.00    +0.072 A 
ATOM     19  C   UNL     1       4.535  -6.860  26.263  0.00  0.00    +0.322 A 
ATOM     20  N   UNL     1       4.212  -7.205  24.961  0.00  0.00    -0.177 N 
ATOM     21  O   UNL     1       3.285  -8.038  24.728  0.00  0.00    -0.620 OA
ATOM     22  C   UNL     1       4.912  -6.622  23.917  0.00  0.00    +0.333 A 
ENDBRANCH  14  16
ENDBRANCH  12  13
ENDBRANCH   1  12
TORSDOF 7
ENDMDL
MODEL 5
REMARK VINA RESULT:      -6.2      2.736      6.431
REMARK  Name = 
REMARK  7 active torsions:
REMARK  status: ('A' for Active; 'I' for Inactive)
REMARK    1  A    between atoms: O_1  and  C_2
REMARK    2  A    between atoms: C_2  and  C_4
REMARK    3  A    between atoms: C_2  and  C_16
REMARK    4  A    between atoms: C_4  and  O_5
REMARK    5  A    between atoms: O_5  and  N_6
REMARK    6  A    between atoms: C_7  and  C_9
REMARK    7  A    between atoms: C_16  and  N_17
REMARK                            x       y       z     vdW  Elec       q    Type
REMARK                         _______ _______ _______ _____ _____    ______ ____
ROOT
ATOM      1  C   UNL     1       7.159  -1.418  26.814  0.00  0.00    +0.295 C 
ENDROOT
BRANCH   1   2
ATOM      2  C   UNL     1       8.643  -1.145  26.548  0.00  0.00    +0.168 C 
BRANCH   2   3
ATOM      3  O   UNL     1       9.233  -0.377  27.605  0.00  0.00    -0.387 OA
ATOM      4  H   UNL     1       8.752  -0.616  28.419  0.00  0.00    +0.210 HD
ENDBRANCH   2   3
BRANCH   2   5
ATOM      5  C   UNL     1       8.882  -0.472  25.170  0.00  0.00    +0.119 C 
BRANCH   5   6
ATOM      6  N   UNL     1      10.088  -0.878  24.410  0.00  0.00    -0.300 NA
ATOM      7  C   UNL     1      10.686   0.263  23.689  0.00  0.00    +0.084 C 
ATOM      8  C   UNL     1       9.880   0.741  22.475  0.00  0.00    +0.015 C 
ATOM      9  C   UNL     1       9.547  -0.405  21.523  0.00  0.00    +0.002 C 
ATOM     10  C   UNL     1       8.965  -1.597  22.275  0.00  0.00    +0.015 C 
ATOM     11  C   UNL     1       9.856  -1.981  23.462  0.00  0.00    +0.084 C 
ENDBRANCH   5   6
ENDBRANCH   2   5
ENDBRANCH   1   2
BRANCH   1  12
ATOM     12  O   UNL     1       6.966  -2.824  27.028  0.00  0.00    -0.390 OA
BRANCH  12  13
ATOM     13  N   UNL     1       6.413  -3.367  25.852  0.00  0.00    -0.072 NA
ATOM     14  C   UNL     1       7.171  -4.252  25.266  0.00  0.00    +0.181 C 
ATOM     15 CL   UNL     1       8.712  -4.690  25.932  0.00  0.00    -0.058 Cl
BRANCH  14  16
ATOM     16  C   UNL     1       6.669  -4.867  23.995  0.00  0.00    +0.080 A 
ATOM     17  C   UNL     1       7.578  -5.233  22.994  0.00  0.00    +0.023 A 
ATOM     18  C   UNL     1       7.136  -5.841  21.823  0.00  0.00    +0.072 A 
ATOM     19  C   UNL     1       5.776  -6.077  21.658  0.00  0.00    +0.322 A 
ATOM     20  N   UNL     1       4.857  -5.711  22.628  0.00  0.00    -0.177 N 
ATOM     21  O   UNL     1       3.620  -5.932  22.459  0.00  0.00    -0.620 OA
ATOM     22  C   UNL     1       5.311  -5.106  23.789  0.00  0.00    +0.333 A 
ENDBRANCH  14  16
ENDBRANCH  12  13
ENDBRANCH   1  12
TORSDOF 7
ENDMDL
MODEL 6
REMARK VINA RESULT:      -6.2      2.451      7.331
REMARK  Name = 
REMARK  7 active torsions:
REMARK  status: ('A' for Active; 'I' for Inactive)
REMARK    1  A    between atoms: O_1  and  C_2
REMARK    2  A    between atoms: C_2  and  C_4
REMARK    3  A    between atoms: C_2  and  C_16
REMARK    4  A    between atoms: C_4  and  O_5
REMARK    5  A    between atoms: O_5  and  N_6
REMARK    6  A    between atoms: C_7  and  C_9
REMARK    7  A    between atoms: C_16  and  N_17
REMARK                            x       y       z     vdW  Elec       q    Type
REMARK                         _______ _______ _______ _____ _____    ______ ____
ROOT
ATOM      1  C   UNL     1      10.146  -1.584  23.585  0.00  0.00    +0.295 C 
ENDROOT
BRANCH   1   2
ATOM      2  C   UNL     1       9.042  -1.233  22.583  0.00  0.00    +0.168 C 
BRANCH   2   3
ATOM      3  O   UNL     1       9.506  -1.342  21.231  0.00  0.00    -0.387 OA
ATOM      4  H   UNL     1      10.461  -1.531  21.284  0.00  0.00    +0.210 HD
ENDBRANCH   2   3
BRANCH   2   5
ATOM      5  C   UNL     1       8.426   0.167  22.850  0.00  0.00    +0.119 C 
BRANCH   5   6
ATOM      6  N   UNL     1       8.776   1.258  21.909  0.00  0.00    -0.300 NA
ATOM      7  C   UNL     1      10.113   1.813  22.196  0.00  0.00    +0.084 C 
ATOM      8  C   UNL     1      10.192   2.662  23.470  0.00  0.00    +0.015 C 
ATOM      9  C   UNL     1       9.121   3.750  23.499  0.00  0.00    +0.002 C 
ATOM     10  C   UNL     1       7.746   3.182  23.165  0.00  0.00    +0.015 C 
ATOM     11  C   UNL     1       7.795   2.357  21.875  0.00  0.00    +0.084 C 
ENDBRANCH   5   6
ENDBRANCH   2   5
ENDBRANCH   1   2
BRANCH   1  12
ATOM     12  O   UNL     1      10.204  -3.009  23.748  0.00  0.00    -0.390 OA
BRANCH  12  13
ATOM     13  N   UNL     1       8.885  -3.502  23.701  0.00  0.00    -0.072 NA
ATOM     14  C   UNL     1       8.642  -4.457  24.556  0.00  0.00    +0.181 C 
ATOM     15 CL   UNL     1       9.875  -5.021  25.638  0.00  0.00    -0.058 Cl
BRANCH  14  16
ATOM     16  C   UNL     1       7.268  -5.054  24.561  0.00  0.00    +0.080 A 
ATOM     17  C   UNL     1       6.719  -5.523  25.762  0.00  0.00    +0.023 A 
ATOM     18  C   UNL     1       5.429  -6.046  25.794  0.00  0.00    +0.072 A 
ATOM     19  C   UNL     1       4.694  -6.102  24.616  0.00  0.00    +0.322 A 
ATOM     20  N   UNL     1       5.222  -5.658  23.414  0.00  0.00    -0.177 N 
ATOM     21  O   UNL     1       4.537  -5.718  22.349  0.00  0.00    -0.620 OA
ATOM     22  C   UNL     1       6.507  -5.140  23.396  0.00  0.00    +0.333 A 
ENDBRANCH  14  16
ENDBRANCH  12  13
ENDBRANCH   1  12
TORSDOF 7
ENDMDL
MODEL 7
REMARK VINA RESULT:      -6.1      1.829      2.076
REMARK  Name = 
REMARK  7 active torsions:
REMARK  status: ('A' for Active; 'I' for Inactive)
REMARK    1  A    between atoms: O_1  and  C_2
REMARK    2  A    between atoms: C_2  and  C_4
REMARK    3  A    between atoms: C_2  and  C_16
REMARK    4  A    between atoms: C_4  and  O_5
REMARK    5  A    between atoms: O_5  and  N_6
REMARK    6  A    between atoms: C_7  and  C_9
REMARK    7  A    between atoms: C_16  and  N_17
REMARK                            x       y       z     vdW  Elec       q    Type
REMARK                         _______ _______ _______ _____ _____    ______ ____
ROOT
ATOM      1  C   UNL     1       7.146  -3.286  26.710  0.00  0.00    +0.295 C 
ENDROOT
BRANCH   1   2
ATOM      2  C   UNL     1       6.949  -4.795  26.542  0.00  0.00    +0.168 C 
BRANCH   2   3
ATOM      3  O   UNL     1       7.916  -5.538  27.296  0.00  0.00    -0.387 OA
ATOM      4  H   UNL     1       8.661  -5.712  26.692  0.00  0.00    +0.210 HD
ENDBRANCH   2   3
BRANCH   2   5
ATOM      5  C   UNL     1       6.952  -5.229  25.052  0.00  0.00    +0.119 C 
BRANCH   5   6
ATOM      6  N   UNL     1       5.790  -4.831  24.221  0.00  0.00    -0.300 NA
ATOM      7  C   UNL     1       5.281  -5.962  23.421  0.00  0.00    +0.084 C 
ATOM      8  C   UNL     1       6.186  -6.374  22.253  0.00  0.00    +0.015 C 
ATOM      9  C   UNL     1       6.551  -5.186  21.367  0.00  0.00    +0.002 C 
ATOM     10  C   UNL     1       7.040  -4.005  22.198  0.00  0.00    +0.015 C 
ATOM     11  C   UNL     1       6.056  -3.689  23.329  0.00  0.00    +0.084 C 
ENDBRANCH   5   6
ENDBRANCH   2   5
ENDBRANCH   1   2
BRANCH   1  12
ATOM     12  O   UNL     1       8.545  -2.976  26.614  0.00  0.00    -0.390 OA
BRANCH  12  13
ATOM     13  N   UNL     1       8.680  -1.848  25.780  0.00  0.00    -0.072 NA
ATOM     14  C   UNL     1       9.343  -2.075  24.680  0.00  0.00    +0.181 C 
ATOM     15 CL   UNL     1       9.970  -3.653  24.325  0.00  0.00    -0.058 Cl
BRANCH  14  16
ATOM     16  C   UNL     1       9.552  -0.925  23.743  0.00  0.00    +0.080 A 
ATOM     17  C   UNL     1       9.242  -1.071  22.384  0.00  0.00    +0.023 A 
ATOM     18  C   UNL     1       9.392  -0.002  21.505  0.00  0.00    +0.072 A 
ATOM     19  C   UNL     1       9.861   1.212  21.993  0.00  0.00    +0.322 A 
ATOM     20  N   UNL     1      10.187   1.375  23.329  0.00  0.00    -0.177 N 
ATOM     21  O   UNL     1      10.615   2.490  23.756  0.00  0.00    -0.620 OA
ATOM     22  C   UNL     1      10.033   0.304  24.194  0.00  0.00    +0.333 A 
ENDBRANCH  14  16
ENDBRANCH  12  13
ENDBRANCH   1  12
TORSDOF 7
ENDMDL
MODEL 8
REMARK VINA RESULT:      -6.1      2.408      6.938
REMARK  Name = 
REMARK  7 active torsions:
REMARK  status: ('A' for Active; 'I' for Inactive)
REMARK    1  A    between atoms: O_1  and  C_2
REMARK    2  A    between atoms: C_2  and  C_4
REMARK    3  A    between atoms: C_2  and  C_16
REMARK    4  A    between atoms: C_4  and  O_5
REMARK    5  A    between atoms: O_5  and  N_6
REMARK    6  A    between atoms: C_7  and  C_9
REMARK    7  A    between atoms: C_16  and  N_17
REMARK                            x       y       z     vdW  Elec       q    Type
REMARK                         _______ _______ _______ _____ _____    ______ ____
ROOT
ATOM      1  C   UNL     1       8.763  -4.281  26.661  0.00  0.00    +0.295 C 
ENDROOT
BRANCH   1   2
ATOM      2  C   UNL     1       9.174  -4.635  25.228  0.00  0.00    +0.168 C 
BRANCH   2   3
ATOM      3  O   UNL     1      10.164  -5.672  25.208  0.00  0.00    -0.387 OA
ATOM      4  H   UNL     1      11.023  -5.229  25.084  0.00  0.00    +0.210 HD
ENDBRANCH   2   3
BRANCH   2   5
ATOM      5  C   UNL     1       9.651  -3.394  24.426  0.00  0.00    +0.119 C 
BRANCH   5   6
ATOM      6  N   UNL     1       8.661  -2.318  24.180  0.00  0.00    -0.300 NA
ATOM      7  C   UNL     1       8.359  -2.178  22.742  0.00  0.00    +0.084 C 
ATOM      8  C   UNL     1       9.488  -1.557  21.911  0.00  0.00    +0.015 C 
ATOM      9  C   UNL     1       9.978  -0.240  22.506  0.00  0.00    +0.002 C 
ATOM     10  C   UNL     1      10.254  -0.377  24.000  0.00  0.00    +0.015 C 
ATOM     11  C   UNL     1       9.056  -1.006  24.721  0.00  0.00    +0.084 C 
ENDBRANCH   5   6
ENDBRANCH   2   5
ENDBRANCH   1   2
BRANCH   1  12
ATOM     12  O   UNL     1       7.954  -5.338  27.198  0.00  0.00    -0.390 OA
BRANCH  12  13
ATOM     13  N   UNL     1       7.050  -5.741  26.196  0.00  0.00    -0.072 NA
ATOM     14  C   UNL     1       5.804  -5.459  26.457  0.00  0.00    +0.181 C 
ATOM     15 CL   UNL     1       5.361  -4.647  27.925  0.00  0.00    -0.058 Cl
BRANCH  14  16
ATOM     16  C   UNL     1       4.771  -5.871  25.453  0.00  0.00    +0.080 A 
ATOM     17  C   UNL     1       4.419  -4.994  24.419  0.00  0.00    +0.023 A 
ATOM     18  C   UNL     1       3.489  -5.372  23.455  0.00  0.00    +0.072 A 
ATOM     19  C   UNL     1       2.911  -6.634  23.535  0.00  0.00    +0.322 A 
ATOM     20  N   UNL     1       3.233  -7.512  24.556  0.00  0.00    -0.177 N 
ATOM     21  O   UNL     1       2.693  -8.658  24.613  0.00  0.00    -0.620 OA
ATOM     22  C   UNL     1       4.159  -7.123  25.510  0.00  0.00    +0.333 A 
ENDBRANCH  14  16
ENDBRANCH  12  13
ENDBRANCH   1  12
TORSDOF 7
ENDMDL
MODEL 9
REMARK VINA RESULT:      -6.1      1.881      7.317
REMARK  Name = 
REMARK  7 active torsions:
REMARK  status: ('A' for Active; 'I' for Inactive)
REMARK    1  A    between atoms: O_1  and  C_2
REMARK    2  A    between atoms: C_2  and  C_4
REMARK    3  A    between atoms: C_2  and  C_16
REMARK    4  A    between atoms: C_4  and  O_5
REMARK    5  A    between atoms: O_5  and  N_6
REMARK    6  A    between atoms: C_7  and  C_9
REMARK    7  A    between atoms: C_16  and  N_17
REMARK                            x       y       z     vdW  Elec       q    Type
REMARK                         _______ _______ _______ _____ _____    ______ ____
ROOT
ATOM      1  C   UNL     1       9.807  -2.430  24.245  0.00  0.00    +0.295 C 
ENDROOT
BRANCH   1   2
ATOM      2  C   UNL     1       9.448  -1.780  22.906  0.00  0.00    +0.168 C 
BRANCH   2   3
ATOM      3  O   UNL     1      10.539  -1.852  21.979  0.00  0.00    -0.387 OA
ATOM      4  H   UNL     1      11.354  -1.844  22.513  0.00  0.00    +0.210 HD
ENDBRANCH   2   3
BRANCH   2   5
ATOM      5  C   UNL     1       8.954  -0.317  23.072  0.00  0.00    +0.119 C 
BRANCH   5   6
ATOM      6  N   UNL     1       9.968   0.761  22.985  0.00  0.00    -0.300 NA
ATOM      7  C   UNL     1      10.136   1.454  24.277  0.00  0.00    +0.084 C 
ATOM      8  C   UNL     1       8.963   2.362  24.670  0.00  0.00    +0.015 C 
ATOM      9  C   UNL     1       8.601   3.341  23.557  0.00  0.00    +0.002 C 
ATOM     10  C   UNL     1       8.466   2.628  22.215  0.00  0.00    +0.015 C 
ATOM     11  C   UNL     1       9.694   1.757  21.934  0.00  0.00    +0.084 C 
ENDBRANCH   5   6
ENDBRANCH   2   5
ENDBRANCH   1   2
BRANCH   1  12
ATOM     12  O   UNL     1       9.738  -3.858  24.114  0.00  0.00    -0.390 OA
BRANCH  12  13
ATOM     13  N   UNL     1       8.916  -4.346  25.149  0.00  0.00    -0.072 NA
ATOM     14  C   UNL     1       7.796  -4.872  24.736  0.00  0.00    +0.181 C 
ATOM     15 CL   UNL     1       7.413  -4.945  23.046  0.00  0.00    -0.058 Cl
BRANCH  14  16
ATOM     16  C   UNL     1       6.851  -5.399  25.772  0.00  0.00    +0.080 A 
ATOM     17  C   UNL     1       5.657  -6.015  25.374  0.00  0.00    +0.023 A 
ATOM     18  C   UNL     1       4.784  -6.546  26.320  0.00  0.00    +0.072 A 
ATOM     19  C   UNL     1       5.112  -6.452  27.668  0.00  0.00    +0.322 A 
ATOM     20  N   UNL     1       6.280  -5.835  28.085  0.00  0.00    -0.177 N 
ATOM     21  O   UNL     1       6.560  -5.757  29.319  0.00  0.00    -0.620 OA
ATOM     22  C   UNL     1       7.140  -5.311  27.134  0.00  0.00    +0.333 A 
ENDBRANCH  14  16
ENDBRANCH  12  13
ENDBRANCH   1  12
TORSDOF 7
ENDMDL
