MODEL 1
REMARK VINA RESULT:      -6.7      0.000      0.000
REMARK  Name = 
REMARK  3 active torsions:
REMARK  status: ('A' for Active; 'I' for Inactive)
REMARK    1  A    between atoms: C_4  and  O_5
REMARK    2  A    between atoms: O_5  and  C_6
REMARK    3  A    between atoms: C_6  and  C_7
REMARK                            x       y       z     vdW  Elec       q    Type
REMARK                         _______ _______ _______ _____ _____    ______ ____
ROOT
ATOM      1  N   UNL     1       9.638  -5.753  25.725  0.00  0.00    -0.327 N 
ATOM      2  H   UNL     1       9.201  -6.658  25.624  0.00  0.00    +0.145 HD
ATOM      3  H   UNL     1      10.645  -5.710  25.650  0.00  0.00    +0.145 HD
ATOM      4  C   UNL     1       9.057  -4.848  24.854  0.00  0.00    +0.218 A 
ATOM      5  N   UNL     1       7.807  -5.124  24.455  0.00  0.00    -0.195 NA
ATOM      6  C   UNL     1       7.332  -4.190  23.622  0.00  0.00    +0.166 A 
ATOM      7  C   UNL     1       7.983  -3.064  23.156  0.00  0.00    +0.169 A 
ATOM      8  N   UNL     1       7.159  -2.349  22.312  0.00  0.00    -0.229 NA
ATOM      9  C   UNL     1       6.034  -3.035  22.272  0.00  0.00    +0.199 A 
ATOM     10  C   UNL     1       9.293  -2.898  23.609  0.00  0.00    +0.248 A 
ATOM     11  N   UNL     1       6.097  -4.161  23.043  0.00  0.00    -0.329 N 
ATOM     12  H   UNL     1       5.375  -4.854  23.173  0.00  0.00    +0.168 HD
ATOM     13  N   UNL     1       9.823  -3.813  24.466  0.00  0.00    -0.178 NA
ENDROOT
BRANCH  10  14
ATOM     14  O   UNL     1      10.031  -1.808  23.195  0.00  0.00    -0.475 OA
BRANCH  14  15
ATOM     15  C   UNL     1       9.827  -0.641  23.992  0.00  0.00    +0.234 C 
BRANCH  15  16
ATOM     16  C   UNL     1      10.429   0.576  23.259  0.00  0.00    +0.027 C 
ATOM     17  C   UNL     1      10.322   1.893  24.055  0.00  0.00    +0.007 C 
ATOM     18  C   UNL     1       8.956   2.579  23.983  0.00  0.00    +0.000 C 
ATOM     19  C   UNL     1       8.403   2.662  22.564  0.00  0.00    +0.000 C 
ATOM     20  C   UNL     1       8.414   1.299  21.883  0.00  0.00    +0.000 C 
ATOM     21  C   UNL     1       9.829   0.730  21.854  0.00  0.00    +0.007 C 
ENDBRANCH  15  16
ENDBRANCH  14  15
ENDBRANCH  10  14
TORSDOF 3
ENDMDL
MODEL 2
REMARK VINA RESULT:      -6.5      1.453      1.799
REMARK  Name = 
REMARK  3 active torsions:
REMARK  status: ('A' for Active; 'I' for Inactive)
REMARK    1  A    between atoms: C_4  and  O_5
REMARK    2  A    between atoms: O_5  and  C_6
REMARK    3  A    between atoms: C_6  and  C_7
REMARK                            x       y       z     vdW  Elec       q    Type
REMARK                         _______ _______ _______ _____ _____    ______ ____
ROOT
ATOM      1  N   UNL     1      10.193  -5.554  25.628  0.00  0.00    -0.327 N 
ATOM      2  H   UNL     1       9.987  -6.442  26.061  0.00  0.00    +0.145 HD
ATOM      3  H   UNL     1      10.902  -5.539  24.908  0.00  0.00    +0.145 HD
ATOM      4  C   UNL     1       9.026  -4.975  25.159  0.00  0.00    +0.218 A 
ATOM      5  N   UNL     1       7.888  -5.363  25.754  0.00  0.00    -0.195 NA
ATOM      6  C   UNL     1       6.820  -4.745  25.237  0.00  0.00    +0.166 A 
ATOM      7  C   UNL     1       6.793  -3.829  24.203  0.00  0.00    +0.169 A 
ATOM      8  N   UNL     1       5.497  -3.421  23.958  0.00  0.00    -0.229 NA
ATOM      9  C   UNL     1       4.762  -4.082  24.830  0.00  0.00    +0.199 A 
ATOM     10  C   UNL     1       8.031  -3.529  23.634  0.00  0.00    +0.248 A 
ATOM     11  N   UNL     1       5.519  -4.901  25.619  0.00  0.00    -0.329 N 
ATOM     12  H   UNL     1       5.196  -5.514  26.352  0.00  0.00    +0.168 HD
ATOM     13  N   UNL     1       9.153  -4.121  24.129  0.00  0.00    -0.178 NA
ENDROOT
BRANCH  10  14
ATOM     14  O   UNL     1       8.109  -2.630  22.589  0.00  0.00    -0.475 OA
BRANCH  14  15
ATOM     15  C   UNL     1       8.292  -1.277  23.008  0.00  0.00    +0.234 C 
BRANCH  15  16
ATOM     16  C   UNL     1       9.654  -0.773  22.488  0.00  0.00    +0.027 C 
ATOM     17  C   UNL     1      10.566  -0.203  23.593  0.00  0.00    +0.007 C 
ATOM     18  C   UNL     1      10.243   1.233  24.015  0.00  0.00    +0.000 C 
ATOM     19  C   UNL     1      10.038   2.171  22.831  0.00  0.00    +0.000 C 
ATOM     20  C   UNL     1       9.024   1.607  21.844  0.00  0.00    +0.000 C 
ATOM     21  C   UNL     1       9.473   0.237  21.346  0.00  0.00    +0.007 C 
ENDBRANCH  15  16
ENDBRANCH  14  15
ENDBRANCH  10  14
TORSDOF 3
ENDMDL
MODEL 3
REMARK VINA RESULT:      -6.4      1.759      2.851
REMARK  Name = 
REMARK  3 active torsions:
REMARK  status: ('A' for Active; 'I' for Inactive)
REMARK    1  A    between atoms: C_4  and  O_5
REMARK    2  A    between atoms: O_5  and  C_6
REMARK    3  A    between atoms: C_6  and  C_7
REMARK                            x       y       z     vdW  Elec       q    Type
REMARK                         _______ _______ _______ _____ _____    ______ ____
ROOT
ATOM      1  N   UNL     1       6.986  -5.001  21.772  0.00  0.00    -0.327 N 
ATOM      2  H   UNL     1       6.108  -5.482  21.643  0.00  0.00    +0.145 HD
ATOM      3  H   UNL     1       7.134  -4.151  21.245  0.00  0.00    +0.145 HD
ATOM      4  C   UNL     1       7.208  -4.771  23.118  0.00  0.00    +0.218 A 
ATOM      5  N   UNL     1       6.582  -5.593  23.974  0.00  0.00    -0.195 NA
ATOM      6  C   UNL     1       6.863  -5.295  25.247  0.00  0.00    +0.166 A 
ATOM      7  C   UNL     1       7.665  -4.273  25.718  0.00  0.00    +0.169 A 
ATOM      8  N   UNL     1       7.705  -4.292  27.098  0.00  0.00    -0.229 NA
ATOM      9  C   UNL     1       6.939  -5.307  27.446  0.00  0.00    +0.199 A 
ATOM     10  C   UNL     1       8.235  -3.458  24.739  0.00  0.00    +0.248 A 
ATOM     11  N   UNL     1       6.402  -5.938  26.359  0.00  0.00    -0.329 N 
ATOM     12  H   UNL     1       5.780  -6.732  26.359  0.00  0.00    +0.168 HD
ATOM     13  N   UNL     1       7.991  -3.723  23.427  0.00  0.00    -0.178 NA
ENDROOT
BRANCH  10  14
ATOM     14  O   UNL     1       9.047  -2.404  25.109  0.00  0.00    -0.475 OA
BRANCH  14  15
ATOM     15  C   UNL     1       8.850  -1.227  24.325  0.00  0.00    +0.234 C 
BRANCH  15  16
ATOM     16  C   UNL     1      10.187  -0.840  23.660  0.00  0.00    +0.027 C 
ATOM     17  C   UNL     1      10.769   0.494  24.169  0.00  0.00    +0.007 C 
ATOM     18  C   UNL     1      10.146   1.746  23.547  0.00  0.00    +0.000 C 
ATOM     19  C   UNL     1      10.021   1.660  22.029  0.00  0.00    +0.000 C 
ATOM     20  C   UNL     1       9.317   0.378  21.602  0.00  0.00    +0.000 C 
ATOM     21  C   UNL     1      10.066  -0.842  22.129  0.00  0.00    +0.007 C 
ENDBRANCH  15  16
ENDBRANCH  14  15
ENDBRANCH  10  14
TORSDOF 3
ENDMDL
MODEL 4
REMARK VINA RESULT:      -6.4      1.524      3.161
REMARK  Name = 
REMARK  3 active torsions:
REMARK  status: ('A' for Active; 'I' for Inactive)
REMARK    1  A    between atoms: C_4  and  O_5
REMARK    2  A    between atoms: O_5  and  C_6
REMARK    3  A    between atoms: C_6  and  C_7
REMARK                            x       y       z     vdW  Elec       q    Type
REMARK                         _______ _______ _______ _____ _____    ______ ____
ROOT
ATOM      1  N   UNL     1       4.222  -5.290  24.705  0.00  0.00    -0.327 N 
ATOM      2  H   UNL     1       3.933  -5.500  25.649  0.00  0.00    +0.145 HD
ATOM      3  H   UNL     1       3.723  -4.559  24.216  0.00  0.00    +0.145 HD
ATOM      4  C   UNL     1       5.583  -5.041  24.670  0.00  0.00    +0.218 A 
ATOM      5  N   UNL     1       6.313  -5.582  25.658  0.00  0.00    -0.195 NA
ATOM      6  C   UNL     1       7.612  -5.290  25.534  0.00  0.00    +0.166 A 
ATOM      7  C   UNL     1       8.216  -4.518  24.560  0.00  0.00    +0.169 A 
ATOM      8  N   UNL     1       9.577  -4.451  24.776  0.00  0.00    -0.229 NA
ATOM      9  C   UNL     1       9.785  -5.170  25.862  0.00  0.00    +0.199 A 
ATOM     10  C   UNL     1       7.355  -3.976  23.604  0.00  0.00    +0.248 A 
ATOM     11  N   UNL     1       8.623  -5.690  26.359  0.00  0.00    -0.329 N 
ATOM     12  H   UNL     1       8.513  -6.265  27.180  0.00  0.00    +0.168 HD
ATOM     13  N   UNL     1       6.023  -4.249  23.677  0.00  0.00    -0.178 NA
ENDROOT
BRANCH  10  14
ATOM     14  O   UNL     1       7.859  -3.183  22.594  0.00  0.00    -0.475 OA
BRANCH  14  15
ATOM     15  C   UNL     1       8.067  -1.825  22.980  0.00  0.00    +0.234 C 
BRANCH  15  16
ATOM     16  C   UNL     1       9.556  -1.472  22.784  0.00  0.00    +0.027 C 
ATOM     17  C   UNL     1      10.184  -0.744  23.990  0.00  0.00    +0.007 C 
ATOM     18  C   UNL     1       9.882   0.755  24.064  0.00  0.00    +0.000 C 
ATOM     19  C   UNL     1      10.081   1.471  22.732  0.00  0.00    +0.000 C 
ATOM     20  C   UNL     1       9.324   0.774  21.609  0.00  0.00    +0.000 C 
ATOM     21  C   UNL     1       9.773  -0.679  21.487  0.00  0.00    +0.007 C 
ENDBRANCH  15  16
ENDBRANCH  14  15
ENDBRANCH  10  14
TORSDOF 3
ENDMDL
MODEL 5
REMARK VINA RESULT:      -6.3      1.550      3.128
REMARK  Name = 
REMARK  3 active torsions:
REMARK  status: ('A' for Active; 'I' for Inactive)
REMARK    1  A    between atoms: C_4  and  O_5
REMARK    2  A    between atoms: O_5  and  C_6
REMARK    3  A    between atoms: C_6  and  C_7
REMARK                            x       y       z     vdW  Elec       q    Type
REMARK                         _______ _______ _______ _____ _____    ______ ____
ROOT
ATOM      1  N   UNL     1       6.423  -5.024  21.556  0.00  0.00    -0.327 N 
ATOM      2  H   UNL     1       5.440  -5.235  21.652  0.00  0.00    +0.145 HD
ATOM      3  H   UNL     1       6.679  -4.256  20.952  0.00  0.00    +0.145 HD
ATOM      4  C   UNL     1       6.996  -4.859  22.805  0.00  0.00    +0.218 A 
ATOM      5  N   UNL     1       6.375  -5.462  23.829  0.00  0.00    -0.195 NA
ATOM      6  C   UNL     1       7.006  -5.248  24.989  0.00  0.00    +0.166 A 
ATOM      7  C   UNL     1       8.145  -4.496  25.206  0.00  0.00    +0.169 A 
ATOM      8  N   UNL     1       8.486  -4.516  26.543  0.00  0.00    -0.229 NA
ATOM      9  C   UNL     1       7.567  -5.268  27.117  0.00  0.00    +0.199 A 
ATOM     10  C   UNL     1       8.684  -3.885  24.073  0.00  0.00    +0.248 A 
ATOM     11  N   UNL     1       6.647  -5.725  26.217  0.00  0.00    -0.329 N 
ATOM     12  H   UNL     1       5.845  -6.307  26.405  0.00  0.00    +0.168 HD
ATOM     13  N   UNL     1       8.088  -4.077  22.865  0.00  0.00    -0.178 NA
ENDROOT
BRANCH  10  14
ATOM     14  O   UNL     1       9.818  -3.105  24.186  0.00  0.00    -0.475 OA
BRANCH  14  15
ATOM     15  C   UNL     1       9.877  -2.038  23.239  0.00  0.00    +0.234 C 
BRANCH  15  16
ATOM     16  C   UNL     1       9.055  -0.848  23.776  0.00  0.00    +0.027 C 
ATOM     17  C   UNL     1       8.662   0.173  22.690  0.00  0.00    +0.007 C 
ATOM     18  C   UNL     1       9.765   1.163  22.308  0.00  0.00    +0.000 C 
ATOM     19  C   UNL     1      10.461   1.777  23.518  0.00  0.00    +0.000 C 
ATOM     20  C   UNL     1      10.943   0.704  24.486  0.00  0.00    +0.000 C 
ATOM     21  C   UNL     1       9.774  -0.160  24.946  0.00  0.00    +0.007 C 
ENDBRANCH  15  16
ENDBRANCH  14  15
ENDBRANCH  10  14
TORSDOF 3
ENDMDL
MODEL 6
REMARK VINA RESULT:      -6.2      1.755      2.217
REMARK  Name = 
REMARK  3 active torsions:
REMARK  status: ('A' for Active; 'I' for Inactive)
REMARK    1  A    between atoms: C_4  and  O_5
REMARK    2  A    between atoms: O_5  and  C_6
REMARK    3  A    between atoms: C_6  and  C_7
REMARK                            x       y       z     vdW  Elec       q    Type
REMARK                         _______ _______ _______ _____ _____    ______ ____
ROOT
ATOM      1  N   UNL     1       6.265  -4.597  27.046  0.00  0.00    -0.327 N 
ATOM      2  H   UNL     1       5.895  -5.477  27.373  0.00  0.00    +0.145 HD
ATOM      3  H   UNL     1       7.063  -4.215  27.535  0.00  0.00    +0.145 HD
ATOM      4  C   UNL     1       6.529  -4.668  25.689  0.00  0.00    +0.218 A 
ATOM      5  N   UNL     1       5.837  -5.584  24.995  0.00  0.00    -0.195 NA
ATOM      6  C   UNL     1       6.158  -5.572  23.697  0.00  0.00    +0.166 A 
ATOM      7  C   UNL     1       7.090  -4.772  23.064  0.00  0.00    +0.169 A 
ATOM      8  N   UNL     1       7.133  -5.060  21.715  0.00  0.00    -0.229 NA
ATOM      9  C   UNL     1       6.242  -6.018  21.544  0.00  0.00    +0.199 A 
ATOM     10  C   UNL     1       7.776  -3.882  23.891  0.00  0.00    +0.248 A 
ATOM     11  N   UNL     1       5.634  -6.364  22.717  0.00  0.00    -0.329 N 
ATOM     12  H   UNL     1       4.927  -7.072  22.853  0.00  0.00    +0.168 HD
ATOM     13  N   UNL     1       7.482  -3.845  25.219  0.00  0.00    -0.178 NA
ENDROOT
BRANCH  10  14
ATOM     14  O   UNL     1       8.734  -3.044  23.355  0.00  0.00    -0.475 OA
BRANCH  14  15
ATOM     15  C   UNL     1       8.867  -1.805  24.053  0.00  0.00    +0.234 C 
BRANCH  15  16
ATOM     16  C   UNL     1      10.192  -1.136  23.633  0.00  0.00    +0.027 C 
ATOM     17  C   UNL     1      10.410   0.255  24.263  0.00  0.00    +0.007 C 
ATOM     18  C   UNL     1       9.662   1.398  23.572  0.00  0.00    +0.000 C 
ATOM     19  C   UNL     1       9.803   1.373  22.054  0.00  0.00    +0.000 C 
ATOM     20  C   UNL     1       9.444   0.007  21.485  0.00  0.00    +0.000 C 
ATOM     21  C   UNL     1      10.323  -1.076  22.104  0.00  0.00    +0.007 C 
ENDBRANCH  15  16
ENDBRANCH  14  15
ENDBRANCH  10  14
TORSDOF 3
ENDMDL
MODEL 7
REMARK VINA RESULT:      -6.0      2.357      5.450
REMARK  Name = 
REMARK  3 active torsions:
REMARK  status: ('A' for Active; 'I' for Inactive)
REMARK    1  A    between atoms: C_4  and  O_5
REMARK    2  A    between atoms: O_5  and  C_6
REMARK    3  A    between atoms: C_6  and  C_7
REMARK                            x       y       z     vdW  Elec       q    Type
REMARK                         _______ _______ _______ _____ _____    ______ ____
ROOT
ATOM      1  N   UNL     1       8.900  -0.394  27.140  0.00  0.00    -0.327 N 
ATOM      2  H   UNL     1       8.483   0.521  27.234  0.00  0.00    +0.145 HD
ATOM      3  H   UNL     1       8.459  -1.161  27.627  0.00  0.00    +0.145 HD
ATOM      4  C   UNL     1       9.055  -0.707  25.800  0.00  0.00    +0.218 A 
ATOM      5  N   UNL     1       9.128   0.329  24.951  0.00  0.00    -0.195 NA
ATOM      6  C   UNL     1       9.282  -0.075  23.685  0.00  0.00    +0.166 A 
ATOM      7  C   UNL     1       9.343  -1.373  23.214  0.00  0.00    +0.169 A 
ATOM      8  N   UNL     1       9.505  -1.378  21.843  0.00  0.00    -0.229 NA
ATOM      9  C   UNL     1       9.541  -0.105  21.500  0.00  0.00    +0.199 A 
ATOM     10  C   UNL     1       9.218  -2.369  24.183  0.00  0.00    +0.248 A 
ATOM     11  N   UNL     1       9.402   0.718  22.581  0.00  0.00    -0.329 N 
ATOM     12  H   UNL     1       9.387   1.727  22.583  0.00  0.00    +0.168 HD
ATOM     13  N   UNL     1       9.069  -2.014  25.488  0.00  0.00    -0.178 NA
ENDROOT
BRANCH  10  14
ATOM     14  O   UNL     1       9.257  -3.698  23.812  0.00  0.00    -0.475 OA
BRANCH  14  15
ATOM     15  C   UNL     1       8.021  -4.386  24.007  0.00  0.00    +0.234 C 
BRANCH  15  16
ATOM     16  C   UNL     1       7.276  -4.467  22.659  0.00  0.00    +0.027 C 
ATOM     17  C   UNL     1       6.175  -3.400  22.494  0.00  0.00    +0.007 C 
ATOM     18  C   UNL     1       4.854  -3.726  23.195  0.00  0.00    +0.000 C 
ATOM     19  C   UNL     1       4.381  -5.153  22.942  0.00  0.00    +0.000 C 
ATOM     20  C   UNL     1       5.476  -6.165  23.253  0.00  0.00    +0.000 C 
ATOM     21  C   UNL     1       6.719  -5.877  22.416  0.00  0.00    +0.007 C 
ENDBRANCH  15  16
ENDBRANCH  14  15
ENDBRANCH  10  14
TORSDOF 3
ENDMDL
MODEL 8
REMARK VINA RESULT:      -6.0      1.944      2.840
REMARK  Name = 
REMARK  3 active torsions:
REMARK  status: ('A' for Active; 'I' for Inactive)
REMARK    1  A    between atoms: C_4  and  O_5
REMARK    2  A    between atoms: O_5  and  C_6
REMARK    3  A    between atoms: C_6  and  C_7
REMARK                            x       y       z     vdW  Elec       q    Type
REMARK                         _______ _______ _______ _____ _____    ______ ____
ROOT
ATOM      1  N   UNL     1       8.931  -0.446  27.288  0.00  0.00    -0.327 N 
ATOM      2  H   UNL     1       9.322  -1.035  28.009  0.00  0.00    +0.145 HD
ATOM      3  H   UNL     1       9.438   0.394  27.046  0.00  0.00    +0.145 HD
ATOM      4  C   UNL     1       8.679  -1.193  26.151  0.00  0.00    +0.218 A 
ATOM      5  N   UNL     1       8.500  -2.510  26.331  0.00  0.00    -0.195 NA
ATOM      6  C   UNL     1       8.258  -3.143  25.178  0.00  0.00    +0.166 A 
ATOM      7  C   UNL     1       8.205  -2.596  23.909  0.00  0.00    +0.169 A 
ATOM      8  N   UNL     1       7.932  -3.576  22.976  0.00  0.00    -0.229 NA
ATOM      9  C   UNL     1       7.823  -4.689  23.674  0.00  0.00    +0.199 A 
ATOM     10  C   UNL     1       8.444  -1.223  23.837  0.00  0.00    +0.248 A 
ATOM     11  N   UNL     1       8.021  -4.476  25.009  0.00  0.00    -0.329 N 
ATOM     12  H   UNL     1       8.001  -5.163  25.747  0.00  0.00    +0.168 HD
ATOM     13  N   UNL     1       8.685  -0.528  24.982  0.00  0.00    -0.178 NA
ENDROOT
BRANCH  10  14
ATOM     14  O   UNL     1       8.421  -0.584  22.614  0.00  0.00    -0.475 OA
BRANCH  14  15
ATOM     15  C   UNL     1       7.628   0.603  22.602  0.00  0.00    +0.234 C 
BRANCH  15  16
ATOM     16  C   UNL     1       8.399   1.711  21.854  0.00  0.00    +0.027 C 
ATOM     17  C   UNL     1       9.926   1.651  22.061  0.00  0.00    +0.007 C 
ATOM     18  C   UNL     1      10.420   2.256  23.377  0.00  0.00    +0.000 C 
ATOM     19  C   UNL     1       9.803   3.618  23.677  0.00  0.00    +0.000 C 
ATOM     20  C   UNL     1       8.284   3.573  23.584  0.00  0.00    +0.000 C 
ATOM     21  C   UNL     1       7.848   3.102  22.200  0.00  0.00    +0.007 C 
ENDBRANCH  15  16
ENDBRANCH  14  15
ENDBRANCH  10  14
TORSDOF 3
ENDMDL
MODEL 9
REMARK VINA RESULT:      -5.9      2.287      3.215
REMARK  Name = 
REMARK  3 active torsions:
REMARK  status: ('A' for Active; 'I' for Inactive)
REMARK    1  A    between atoms: C_4  and  O_5
REMARK    2  A    between atoms: O_5  and  C_6
REMARK    3  A    between atoms: C_6  and  C_7
REMARK                            x       y       z     vdW  Elec       q    Type
REMARK                         _______ _______ _______ _____ _____    ______ ____
ROOT
ATOM      1  N   UNL     1       4.954  -2.722  27.659  0.00  0.00    -0.327 N 
ATOM      2  H   UNL     1       4.777  -3.389  28.397  0.00  0.00    +0.145 HD
ATOM      3  H   UNL     1       4.940  -1.741  27.903  0.00  0.00    +0.145 HD
ATOM      4  C   UNL     1       6.137  -3.034  27.013  0.00  0.00    +0.218 A 
ATOM      5  N   UNL     1       6.537  -4.313  27.087  0.00  0.00    -0.195 NA
ATOM      6  C   UNL     1       7.684  -4.515  26.428  0.00  0.00    +0.166 A 
ATOM      7  C   UNL     1       8.445  -3.582  25.750  0.00  0.00    +0.169 A 
ATOM      8  N   UNL     1       9.561  -4.180  25.203  0.00  0.00    -0.229 NA
ATOM      9  C   UNL     1       9.470  -5.450  25.548  0.00  0.00    +0.199 A 
ATOM     10  C   UNL     1       7.952  -2.276  25.771  0.00  0.00    +0.248 A 
ATOM     11  N   UNL     1       8.355  -5.696  26.297  0.00  0.00    -0.329 N 
ATOM     12  H   UNL     1       8.064  -6.579  26.689  0.00  0.00    +0.168 HD
ATOM     13  N   UNL     1       6.783  -2.016  26.418  0.00  0.00    -0.178 NA
ENDROOT
BRANCH  10  14
ATOM     14  O   UNL     1       8.643  -1.269  25.129  0.00  0.00    -0.475 OA
BRANCH  14  15
ATOM     15  C   UNL     1       8.454  -1.255  23.714  0.00  0.00    +0.234 C 
BRANCH  15  16
ATOM     16  C   UNL     1       9.801  -0.935  23.033  0.00  0.00    +0.027 C 
ATOM     17  C   UNL     1      10.666   0.073  23.817  0.00  0.00    +0.007 C 
ATOM     18  C   UNL     1      10.272   1.540  23.631  0.00  0.00    +0.000 C 
ATOM     19  C   UNL     1      10.044   1.917  22.171  0.00  0.00    +0.000 C 
ATOM     20  C   UNL     1       9.075   0.958  21.494  0.00  0.00    +0.000 C 
ATOM     21  C   UNL     1       9.594  -0.474  21.583  0.00  0.00    +0.007 C 
ENDBRANCH  15  16
ENDBRANCH  14  15
ENDBRANCH  10  14
TORSDOF 3
ENDMDL
