MODEL 1
REMARK VINA RESULT:      -5.4      0.000      0.000
REMARK  Name = 
REMARK  8 active torsions:
REMARK  status: ('A' for Active; 'I' for Inactive)
REMARK    1  A    between atoms: C_1  and  C_2
REMARK    2  A    between atoms: C_2  and  N_3
REMARK    3  A    between atoms: C_2  and  C_8
REMARK    4  A    between atoms: N_3  and  C_4
REMARK    5  A    between atoms: C_4  and  C_5
REMARK    6  A    between atoms: C_4  and  C_6
REMARK    7  A    between atoms: C_4  and  C_7
REMARK    8  A    between atoms: C_8  and  C_10
REMARK                            x       y       z     vdW  Elec       q    Type
REMARK                         _______ _______ _______ _____ _____    ______ ____
ROOT
ATOM      1  C   UNL     1       8.706  -2.923  24.884  0.00  0.00    +0.180 C 
ATOM      2  O   UNL     1       8.624  -2.649  26.085  0.00  0.00    -0.290 OA
ENDROOT
BRANCH   1   3
ATOM      3  C   UNL     1       9.097  -1.813  23.951  0.00  0.00    +0.020 A 
ATOM      4  C   UNL     1       8.909  -2.030  22.573  0.00  0.00    +0.011 A 
ATOM      5  C   UNL     1       9.293  -1.072  21.634  0.00  0.00    +0.002 A 
ATOM      6  C   UNL     1       9.882   0.113  22.062  0.00  0.00    +0.020 A 
ATOM      7  C   UNL     1      10.053   0.344  23.427  0.00  0.00    +0.042 A 
ATOM      8 CL   UNL     1      10.797   1.804  23.953  0.00  0.00    -0.084 Cl
ATOM      9  C   UNL     1       9.652  -0.598  24.379  0.00  0.00    +0.031 A 
ENDBRANCH   1   3
BRANCH   1  11
ATOM     10  C   UNL     1       9.312  -5.319  25.187  0.00  0.00    +0.032 C 
ATOM     11  C   UNL     1       8.464  -4.358  24.346  0.00  0.00    +0.123 C 
BRANCH  11  12
ATOM     12  N   UNL     1       7.019  -4.682  24.410  0.00  0.00    -0.302 NA
ATOM     13  H   UNL     1       6.536  -3.994  24.985  0.00  0.00    +0.123 HD
BRANCH  12  14
ATOM     14  C   UNL     1       6.266  -4.856  23.146  0.00  0.00    +0.011 C 
ATOM     15  C   UNL     1       5.515  -3.590  22.703  0.00  0.00    +0.027 C 
ATOM     16  C   UNL     1       5.213  -5.960  23.407  0.00  0.00    +0.027 C 
ATOM     17  C   UNL     1       7.165  -5.369  22.009  0.00  0.00    +0.027 C 
ENDBRANCH  12  14
ENDBRANCH  11  12
ENDBRANCH   1  11
TORSDOF 4
ENDMDL
MODEL 2
REMARK VINA RESULT:      -5.3      4.780      7.176
REMARK  Name = 
REMARK  8 active torsions:
REMARK  status: ('A' for Active; 'I' for Inactive)
REMARK    1  A    between atoms: C_1  and  C_2
REMARK    2  A    between atoms: C_2  and  N_3
REMARK    3  A    between atoms: C_2  and  C_8
REMARK    4  A    between atoms: N_3  and  C_4
REMARK    5  A    between atoms: C_4  and  C_5
REMARK    6  A    between atoms: C_4  and  C_6
REMARK    7  A    between atoms: C_4  and  C_7
REMARK    8  A    between atoms: C_8  and  C_10
REMARK                            x       y       z     vdW  Elec       q    Type
REMARK                         _______ _______ _______ _____ _____    ______ ____
ROOT
ATOM      1  C   UNL     1      10.571   3.631  23.489  0.00  0.00    +0.180 C 
ATOM      2  O   UNL     1      11.769   3.910  23.384  0.00  0.00    -0.290 OA
ENDROOT
BRANCH   1   3
ATOM      3  C   UNL     1      10.184   2.190  23.321  0.00  0.00    +0.020 A 
ATOM      4  C   UNL     1      10.068   1.700  22.006  0.00  0.00    +0.011 A 
ATOM      5  C   UNL     1       9.662   0.388  21.759  0.00  0.00    +0.002 A 
ATOM      6  C   UNL     1       9.357  -0.450  22.827  0.00  0.00    +0.020 A 
ATOM      7  C   UNL     1       9.489   0.022  24.133  0.00  0.00    +0.042 A 
ATOM      8 CL   UNL     1       9.095  -1.011  25.452  0.00  0.00    -0.084 Cl
ATOM      9  C   UNL     1       9.916   1.327  24.394  0.00  0.00    +0.031 A 
ENDBRANCH   1   3
BRANCH   1  11
ATOM     10  C   UNL     1      10.225   6.041  24.012  0.00  0.00    +0.032 C 
ATOM     11  C   UNL     1       9.499   4.703  23.823  0.00  0.00    +0.123 C 
BRANCH  11  12
ATOM     12  N   UNL     1       8.490   4.760  22.740  0.00  0.00    -0.302 NA
ATOM     13  H   UNL     1       8.853   4.302  21.905  0.00  0.00    +0.123 HD
BRANCH  12  14
ATOM     14  C   UNL     1       7.125   4.250  23.004  0.00  0.00    +0.011 C 
ATOM     15  C   UNL     1       6.700   3.120  22.052  0.00  0.00    +0.027 C 
ATOM     16  C   UNL     1       6.158   5.438  22.783  0.00  0.00    +0.027 C 
ATOM     17  C   UNL     1       6.949   3.810  24.467  0.00  0.00    +0.027 C 
ENDBRANCH  12  14
ENDBRANCH  11  12
ENDBRANCH   1  11
TORSDOF 4
ENDMDL
MODEL 3
REMARK VINA RESULT:      -5.2      1.638      2.176
REMARK  Name = 
REMARK  8 active torsions:
REMARK  status: ('A' for Active; 'I' for Inactive)
REMARK    1  A    between atoms: C_1  and  C_2
REMARK    2  A    between atoms: C_2  and  N_3
REMARK    3  A    between atoms: C_2  and  C_8
REMARK    4  A    between atoms: N_3  and  C_4
REMARK    5  A    between atoms: C_4  and  C_5
REMARK    6  A    between atoms: C_4  and  C_6
REMARK    7  A    between atoms: C_4  and  C_7
REMARK    8  A    between atoms: C_8  and  C_10
REMARK                            x       y       z     vdW  Elec       q    Type
REMARK                         _______ _______ _______ _____ _____    ______ ____
ROOT
ATOM      1  C   UNL     1       9.244  -3.183  24.035  0.00  0.00    +0.180 C 
ATOM      2  O   UNL     1      10.261  -3.815  24.332  0.00  0.00    -0.290 OA
ENDROOT
BRANCH   1   3
ATOM      3  C   UNL     1       9.434  -1.846  23.377  0.00  0.00    +0.020 A 
ATOM      4  C   UNL     1       9.080  -1.738  22.019  0.00  0.00    +0.011 A 
ATOM      5  C   UNL     1       9.272  -0.547  21.317  0.00  0.00    +0.002 A 
ATOM      6  C   UNL     1       9.832   0.550  21.964  0.00  0.00    +0.020 A 
ATOM      7  C   UNL     1      10.166   0.456  23.315  0.00  0.00    +0.042 A 
ATOM      8 CL   UNL     1      10.874   1.810  24.108  0.00  0.00    -0.084 Cl
ATOM      9  C   UNL     1       9.957  -0.724  24.035  0.00  0.00    +0.031 A 
ENDBRANCH   1   3
BRANCH   1  11
ATOM     10  C   UNL     1       7.972  -5.131  24.921  0.00  0.00    +0.032 C 
ATOM     11  C   UNL     1       7.819  -3.746  24.283  0.00  0.00    +0.123 C 
BRANCH  11  12
ATOM     12  N   UNL     1       7.052  -2.814  25.142  0.00  0.00    -0.302 NA
ATOM     13  H   UNL     1       7.674  -2.102  25.520  0.00  0.00    +0.123 HD
BRANCH  12  14
ATOM     14  C   UNL     1       5.852  -2.147  24.585  0.00  0.00    +0.011 C 
ATOM     15  C   UNL     1       4.574  -2.407  25.400  0.00  0.00    +0.027 C 
ATOM     16  C   UNL     1       5.635  -2.736  23.170  0.00  0.00    +0.027 C 
ATOM     17  C   UNL     1       6.069  -0.636  24.400  0.00  0.00    +0.027 C 
ENDBRANCH  12  14
ENDBRANCH  11  12
ENDBRANCH   1  11
TORSDOF 4
ENDMDL
MODEL 4
REMARK VINA RESULT:      -5.2      1.474      2.322
REMARK  Name = 
REMARK  8 active torsions:
REMARK  status: ('A' for Active; 'I' for Inactive)
REMARK    1  A    between atoms: C_1  and  C_2
REMARK    2  A    between atoms: C_2  and  N_3
REMARK    3  A    between atoms: C_2  and  C_8
REMARK    4  A    between atoms: N_3  and  C_4
REMARK    5  A    between atoms: C_4  and  C_5
REMARK    6  A    between atoms: C_4  and  C_6
REMARK    7  A    between atoms: C_4  and  C_7
REMARK    8  A    between atoms: C_8  and  C_10
REMARK                            x       y       z     vdW  Elec       q    Type
REMARK                         _______ _______ _______ _____ _____    ______ ____
ROOT
ATOM      1  C   UNL     1       9.095  -4.253  24.730  0.00  0.00    +0.180 C 
ATOM      2  O   UNL     1      10.173  -4.829  24.902  0.00  0.00    -0.290 OA
ENDROOT
BRANCH   1   3
ATOM      3  C   UNL     1       9.138  -2.772  24.487  0.00  0.00    +0.020 A 
ATOM      4  C   UNL     1       8.810  -1.929  25.566  0.00  0.00    +0.011 A 
ATOM      5  C   UNL     1       8.775  -0.542  25.412  0.00  0.00    +0.002 A 
ATOM      6  C   UNL     1       9.059   0.020  24.172  0.00  0.00    +0.020 A 
ATOM      7  C   UNL     1       9.405  -0.808  23.104  0.00  0.00    +0.042 A 
ATOM      8 CL   UNL     1       9.739  -0.111  21.566  0.00  0.00    -0.084 Cl
ATOM      9  C   UNL     1       9.466  -2.197  23.250  0.00  0.00    +0.031 A 
ENDBRANCH   1   3
BRANCH   1  11
ATOM     10  C   UNL     1       7.381  -5.340  26.173  0.00  0.00    +0.032 C 
ATOM     11  C   UNL     1       7.743  -5.016  24.719  0.00  0.00    +0.123 C 
BRANCH  11  12
ATOM     12  N   UNL     1       6.707  -4.193  24.053  0.00  0.00    -0.302 NA
ATOM     13  H   UNL     1       7.039  -3.236  23.951  0.00  0.00    +0.123 HD
BRANCH  12  14
ATOM     14  C   UNL     1       6.157  -4.645  22.754  0.00  0.00    +0.011 C 
ATOM     15  C   UNL     1       7.110  -5.565  21.974  0.00  0.00    +0.027 C 
ATOM     16  C   UNL     1       5.930  -3.372  21.903  0.00  0.00    +0.027 C 
ATOM     17  C   UNL     1       4.781  -5.314  22.915  0.00  0.00    +0.027 C 
ENDBRANCH  12  14
ENDBRANCH  11  12
ENDBRANCH   1  11
TORSDOF 4
ENDMDL
MODEL 5
REMARK VINA RESULT:      -5.2      2.924      5.599
REMARK  Name = 
REMARK  8 active torsions:
REMARK  status: ('A' for Active; 'I' for Inactive)
REMARK    1  A    between atoms: C_1  and  C_2
REMARK    2  A    between atoms: C_2  and  N_3
REMARK    3  A    between atoms: C_2  and  C_8
REMARK    4  A    between atoms: N_3  and  C_4
REMARK    5  A    between atoms: C_4  and  C_5
REMARK    6  A    between atoms: C_4  and  C_6
REMARK    7  A    between atoms: C_4  and  C_7
REMARK    8  A    between atoms: C_8  and  C_10
REMARK                            x       y       z     vdW  Elec       q    Type
REMARK                         _______ _______ _______ _____ _____    ______ ____
ROOT
ATOM      1  C   UNL     1       8.844  -3.542  24.446  0.00  0.00    +0.180 C 
ATOM      2  O   UNL     1       9.923  -4.128  24.565  0.00  0.00    -0.290 OA
ENDROOT
BRANCH   1   3
ATOM      3  C   UNL     1       7.674  -4.349  23.961  0.00  0.00    +0.020 A 
ATOM      4  C   UNL     1       6.791  -4.857  24.934  0.00  0.00    +0.011 A 
ATOM      5  C   UNL     1       5.708  -5.660  24.574  0.00  0.00    +0.002 A 
ATOM      6  C   UNL     1       5.499  -5.974  23.236  0.00  0.00    +0.020 A 
ATOM      7  C   UNL     1       6.358  -5.458  22.265  0.00  0.00    +0.042 A 
ATOM      8 CL   UNL     1       6.107  -5.863  20.610  0.00  0.00    -0.084 Cl
ATOM      9  C   UNL     1       7.433  -4.634  22.609  0.00  0.00    +0.031 A 
ENDBRANCH   1   3
BRANCH   1  11
ATOM     10  C   UNL     1       8.566  -1.955  26.345  0.00  0.00    +0.032 C 
ATOM     11  C   UNL     1       8.671  -2.045  24.818  0.00  0.00    +0.123 C 
BRANCH  11  12
ATOM     12  N   UNL     1       9.809  -1.260  24.286  0.00  0.00    -0.302 NA
ATOM     13  H   UNL     1      10.463  -1.879  23.811  0.00  0.00    +0.123 HD
BRANCH  12  14
ATOM     14  C   UNL     1       9.533  -0.099  23.409  0.00  0.00    +0.011 C 
ATOM     15  C   UNL     1       8.054   0.323  23.401  0.00  0.00    +0.027 C 
ATOM     16  C   UNL     1       9.905  -0.532  21.971  0.00  0.00    +0.027 C 
ATOM     17  C   UNL     1      10.429   1.104  23.749  0.00  0.00    +0.027 C 
ENDBRANCH  12  14
ENDBRANCH  11  12
ENDBRANCH   1  11
TORSDOF 4
ENDMDL
MODEL 6
REMARK VINA RESULT:      -5.1      2.192      3.415
REMARK  Name = 
REMARK  8 active torsions:
REMARK  status: ('A' for Active; 'I' for Inactive)
REMARK    1  A    between atoms: C_1  and  C_2
REMARK    2  A    between atoms: C_2  and  N_3
REMARK    3  A    between atoms: C_2  and  C_8
REMARK    4  A    between atoms: N_3  and  C_4
REMARK    5  A    between atoms: C_4  and  C_5
REMARK    6  A    between atoms: C_4  and  C_6
REMARK    7  A    between atoms: C_4  and  C_7
REMARK    8  A    between atoms: C_8  and  C_10
REMARK                            x       y       z     vdW  Elec       q    Type
REMARK                         _______ _______ _______ _____ _____    ______ ____
ROOT
ATOM      1  C   UNL     1       6.553  -3.585  22.223  0.00  0.00    +0.180 C 
ATOM      2  O   UNL     1       5.739  -3.653  21.298  0.00  0.00    -0.290 OA
ENDROOT
BRANCH   1   3
ATOM      3  C   UNL     1       7.020  -2.216  22.630  0.00  0.00    +0.020 A 
ATOM      4  C   UNL     1       6.244  -1.524  23.579  0.00  0.00    +0.011 A 
ATOM      5  C   UNL     1       6.576  -0.227  23.973  0.00  0.00    +0.002 A 
ATOM      6  C   UNL     1       7.685   0.398  23.415  0.00  0.00    +0.020 A 
ATOM      7  C   UNL     1       8.470  -0.289  22.488  0.00  0.00    +0.042 A 
ATOM      8 CL   UNL     1       9.832   0.494  21.785  0.00  0.00    -0.084 Cl
ATOM      9  C   UNL     1       8.161  -1.596  22.102  0.00  0.00    +0.031 A 
ENDBRANCH   1   3
BRANCH   1  11
ATOM     10  C   UNL     1       7.161  -5.985  21.958  0.00  0.00    +0.032 C 
ATOM     11  C   UNL     1       7.052  -4.846  22.978  0.00  0.00    +0.123 C 
BRANCH  11  12
ATOM     12  N   UNL     1       8.347  -4.557  23.638  0.00  0.00    -0.302 NA
ATOM     13  H   UNL     1       8.724  -3.678  23.288  0.00  0.00    +0.123 HD
BRANCH  12  14
ATOM     14  C   UNL     1       8.412  -4.545  25.118  0.00  0.00    +0.011 C 
ATOM     15  C   UNL     1       8.646  -3.144  25.708  0.00  0.00    +0.027 C 
ATOM     16  C   UNL     1       9.617  -5.430  25.516  0.00  0.00    +0.027 C 
ATOM     17  C   UNL     1       7.168  -5.190  25.752  0.00  0.00    +0.027 C 
ENDBRANCH  12  14
ENDBRANCH  11  12
ENDBRANCH   1  11
TORSDOF 4
ENDMDL
MODEL 7
REMARK VINA RESULT:      -5.1      3.313      6.122
REMARK  Name = 
REMARK  8 active torsions:
REMARK  status: ('A' for Active; 'I' for Inactive)
REMARK    1  A    between atoms: C_1  and  C_2
REMARK    2  A    between atoms: C_2  and  N_3
REMARK    3  A    between atoms: C_2  and  C_8
REMARK    4  A    between atoms: N_3  and  C_4
REMARK    5  A    between atoms: C_4  and  C_5
REMARK    6  A    between atoms: C_4  and  C_6
REMARK    7  A    between atoms: C_4  and  C_7
REMARK    8  A    between atoms: C_8  and  C_10
REMARK                            x       y       z     vdW  Elec       q    Type
REMARK                         _______ _______ _______ _____ _____    ______ ____
ROOT
ATOM      1  C   UNL     1       7.765  -0.985  23.011  0.00  0.00    +0.180 C 
ATOM      2  O   UNL     1       6.725  -0.339  23.167  0.00  0.00    -0.290 OA
ENDROOT
BRANCH   1   3
ATOM      3  C   UNL     1       7.656  -2.482  23.050  0.00  0.00    +0.020 A 
ATOM      4  C   UNL     1       8.324  -3.152  24.093  0.00  0.00    +0.011 A 
ATOM      5  C   UNL     1       8.318  -4.545  24.175  0.00  0.00    +0.002 A 
ATOM      6  C   UNL     1       7.650  -5.288  23.208  0.00  0.00    +0.020 A 
ATOM      7  C   UNL     1       6.969  -4.631  22.183  0.00  0.00    +0.042 A 
ATOM      8 CL   UNL     1       6.158  -5.553  20.977  0.00  0.00    -0.084 Cl
ATOM      9  C   UNL     1       6.948  -3.235  22.102  0.00  0.00    +0.031 A 
ENDBRANCH   1   3
BRANCH   1  11
ATOM     10  C   UNL     1       9.619  -0.769  21.364  0.00  0.00    +0.032 C 
ATOM     11  C   UNL     1       9.130  -0.299  22.738  0.00  0.00    +0.123 C 
BRANCH  11  12
ATOM     12  N   UNL     1       8.977   1.173  22.807  0.00  0.00    -0.302 NA
ATOM     13  H   UNL     1       7.988   1.417  22.808  0.00  0.00    +0.123 HD
BRANCH  12  14
ATOM     14  C   UNL     1       9.649   1.914  23.898  0.00  0.00    +0.011 C 
ATOM     15  C   UNL     1      10.590   3.022  23.395  0.00  0.00    +0.027 C 
ATOM     16  C   UNL     1      10.507   0.884  24.671  0.00  0.00    +0.027 C 
ATOM     17  C   UNL     1       8.642   2.488  24.908  0.00  0.00    +0.027 C 
ENDBRANCH  12  14
ENDBRANCH  11  12
ENDBRANCH   1  11
TORSDOF 4
ENDMDL
MODEL 8
REMARK VINA RESULT:      -5.0      3.224      5.772
REMARK  Name = 
REMARK  8 active torsions:
REMARK  status: ('A' for Active; 'I' for Inactive)
REMARK    1  A    between atoms: C_1  and  C_2
REMARK    2  A    between atoms: C_2  and  N_3
REMARK    3  A    between atoms: C_2  and  C_8
REMARK    4  A    between atoms: N_3  and  C_4
REMARK    5  A    between atoms: C_4  and  C_5
REMARK    6  A    between atoms: C_4  and  C_6
REMARK    7  A    between atoms: C_4  and  C_7
REMARK    8  A    between atoms: C_8  and  C_10
REMARK                            x       y       z     vdW  Elec       q    Type
REMARK                         _______ _______ _______ _____ _____    ______ ____
ROOT
ATOM      1  C   UNL     1       6.498  -1.117  23.809  0.00  0.00    +0.180 C 
ATOM      2  O   UNL     1       5.523  -0.866  24.523  0.00  0.00    -0.290 OA
ENDROOT
BRANCH   1   3
ATOM      3  C   UNL     1       6.815  -2.564  23.564  0.00  0.00    +0.020 A 
ATOM      4  C   UNL     1       7.651  -3.210  24.496  0.00  0.00    +0.011 A 
ATOM      5  C   UNL     1       8.038  -4.539  24.316  0.00  0.00    +0.002 A 
ATOM      6  C   UNL     1       7.601  -5.237  23.195  0.00  0.00    +0.020 A 
ATOM      7  C   UNL     1       6.756  -4.610  22.279  0.00  0.00    +0.042 A 
ATOM      8 CL   UNL     1       6.231  -5.471  20.884  0.00  0.00    -0.084 Cl
ATOM      9  C   UNL     1       6.343  -3.287  22.459  0.00  0.00    +0.031 A 
ENDBRANCH   1   3
BRANCH   1  11
ATOM     10  C   UNL     1       6.480   1.264  23.081  0.00  0.00    +0.032 C 
ATOM     11  C   UNL     1       7.346   0.001  23.147  0.00  0.00    +0.123 C 
BRANCH  11  12
ATOM     12  N   UNL     1       8.591   0.214  23.922  0.00  0.00    -0.302 NA
ATOM     13  H   UNL     1       8.623  -0.433  24.708  0.00  0.00    +0.123 HD
BRANCH  12  14
ATOM     14  C   UNL     1       9.893   0.166  23.216  0.00  0.00    +0.011 C 
ATOM     15  C   UNL     1      10.274  -1.243  22.732  0.00  0.00    +0.027 C 
ATOM     16  C   UNL     1      10.966   0.619  24.235  0.00  0.00    +0.027 C 
ATOM     17  C   UNL     1       9.950   1.165  22.049  0.00  0.00    +0.027 C 
ENDBRANCH  12  14
ENDBRANCH  11  12
ENDBRANCH   1  11
TORSDOF 4
ENDMDL
MODEL 9
REMARK VINA RESULT:      -5.0      3.221      5.778
REMARK  Name = 
REMARK  8 active torsions:
REMARK  status: ('A' for Active; 'I' for Inactive)
REMARK    1  A    between atoms: C_1  and  C_2
REMARK    2  A    between atoms: C_2  and  N_3
REMARK    3  A    between atoms: C_2  and  C_8
REMARK    4  A    between atoms: N_3  and  C_4
REMARK    5  A    between atoms: C_4  and  C_5
REMARK    6  A    between atoms: C_4  and  C_6
REMARK    7  A    between atoms: C_4  and  C_7
REMARK    8  A    between atoms: C_8  and  C_10
REMARK                            x       y       z     vdW  Elec       q    Type
REMARK                         _______ _______ _______ _____ _____    ______ ____
ROOT
ATOM      1  C   UNL     1       8.172  -2.591  22.919  0.00  0.00    +0.180 C 
ATOM      2  O   UNL     1       7.494  -2.868  21.926  0.00  0.00    -0.290 OA
ENDROOT
BRANCH   1   3
ATOM      3  C   UNL     1       8.131  -3.556  24.070  0.00  0.00    +0.020 A 
ATOM      4  C   UNL     1       9.337  -3.796  24.755  0.00  0.00    +0.011 A 
ATOM      5  C   UNL     1       9.399  -4.716  25.803  0.00  0.00    +0.002 A 
ATOM      6  C   UNL     1       8.255  -5.416  26.172  0.00  0.00    +0.020 A 
ATOM      7  C   UNL     1       7.052  -5.168  25.510  0.00  0.00    +0.042 A 
ATOM      8 CL   UNL     1       5.642  -6.048  25.957  0.00  0.00    -0.084 Cl
ATOM      9  C   UNL     1       6.972  -4.233  24.475  0.00  0.00    +0.031 A 
ENDBRANCH   1   3
BRANCH   1  11
ATOM     10  C   UNL     1       9.424  -0.939  21.539  0.00  0.00    +0.032 C 
ATOM     11  C   UNL     1       9.071  -1.327  22.980  0.00  0.00    +0.123 C 
BRANCH  11  12
ATOM     12  N   UNL     1       8.363  -0.241  23.697  0.00  0.00    -0.302 NA
ATOM     13  H   UNL     1       7.437  -0.558  23.976  0.00  0.00    +0.123 HD
BRANCH  12  14
ATOM     14  C   UNL     1       9.018   0.394  24.864  0.00  0.00    +0.011 C 
ATOM     15  C   UNL     1      10.552   0.284  24.839  0.00  0.00    +0.027 C 
ATOM     16  C   UNL     1       8.514  -0.359  26.118  0.00  0.00    +0.027 C 
ATOM     17  C   UNL     1       8.591   1.861  25.034  0.00  0.00    +0.027 C 
ENDBRANCH  12  14
ENDBRANCH  11  12
ENDBRANCH   1  11
TORSDOF 4
ENDMDL
