MODEL 1
REMARK VINA RESULT:      -8.0      0.000      0.000
REMARK  Name = 
REMARK  2 active torsions:
REMARK  status: ('A' for Active; 'I' for Inactive)
REMARK    1  A    between atoms: O_1  and  C_2
REMARK    2  A    between atoms: C_9  and  C_18
REMARK                            x       y       z     vdW  Elec       q    Type
REMARK                         _______ _______ _______ _____ _____    ______ ____
ROOT
ATOM      1  C   UNL     1       9.440   5.211  24.094  0.00  0.00    +0.118 A 
ATOM      2  C   UNL     1       8.654   5.629  25.158  0.00  0.00    +0.047 A 
ATOM      3  C   UNL     1       7.943   4.702  25.917  0.00  0.00    +0.030 A 
ATOM      4  C   UNL     1       8.065   3.347  25.577  0.00  0.00    +0.048 A 
ATOM      5  N   UNL     1       7.513   2.243  26.208  0.00  0.00    -0.354 N 
ATOM      6  H   UNL     1       6.923   2.294  27.025  0.00  0.00    +0.166 HD
ATOM      7  C   UNL     1       7.942   1.080  25.619  0.00  0.00    +0.049 A 
ATOM      8  C   UNL     1       8.670   1.512  24.547  0.00  0.00    +0.021 A 
ATOM      9  C   UNL     1       9.214   0.559  23.659  0.00  0.00    +0.062 A 
ATOM     10  C   UNL     1       9.109  -0.806  24.057  0.00  0.00    +0.060 A 
ATOM     11  C   UNL     1       9.895  -1.556  23.103  0.00  0.00    +0.260 A 
ATOM     12  N   UNL     1      10.078  -0.677  22.075  0.00  0.00    -0.289 N 
ATOM     13  H   UNL     1      10.640  -0.930  21.282  0.00  0.00    +0.172 HD
ATOM     14  O   UNL     1      10.461  -2.642  23.125  0.00  0.00    -0.267 OA
ATOM     15  C   UNL     1       8.351  -1.264  25.152  0.00  0.00    -0.003 A 
ATOM     16  C   UNL     1       9.863   0.637  22.389  0.00  0.00    +0.260 A 
ATOM     17  O   UNL     1      10.193   1.553  21.655  0.00  0.00    -0.267 OA
ATOM     18  C   UNL     1       7.738  -0.264  25.940  0.00  0.00    +0.035 A 
ATOM     19  C   UNL     1       8.829   2.895  24.487  0.00  0.00    +0.012 A 
ATOM     20  C   UNL     1       9.530   3.860  23.726  0.00  0.00    +0.056 A 
ENDROOT
BRANCH  15  21
ATOM     21  C   UNL     1       8.060  -2.693  25.381  0.00  0.00    -0.017 A 
ATOM     22  C   UNL     1       8.693  -3.472  26.360  0.00  0.00    +0.008 A 
ATOM     23  C   UNL     1       8.387  -4.829  26.529  0.00  0.00    +0.001 A 
ATOM     24  C   UNL     1       7.394  -5.426  25.760  0.00  0.00    +0.000 A 
ATOM     25  C   UNL     1       6.725  -4.674  24.803  0.00  0.00    +0.001 A 
ATOM     26  C   UNL     1       7.067  -3.331  24.607  0.00  0.00    +0.008 A 
ENDBRANCH  15  21
BRANCH   1  27
ATOM     27  O   UNL     1      10.141   6.179  23.427  0.00  0.00    -0.507 OA
ATOM     28  H   UNL     1       9.961   7.034  23.851  0.00  0.00    +0.292 HD
ENDBRANCH   1  27
TORSDOF 2
ENDMDL
MODEL 2
REMARK VINA RESULT:      -7.9      4.349      8.722
REMARK  Name = 
REMARK  2 active torsions:
REMARK  status: ('A' for Active; 'I' for Inactive)
REMARK    1  A    between atoms: O_1  and  C_2
REMARK    2  A    between atoms: C_9  and  C_18
REMARK                            x       y       z     vdW  Elec       q    Type
REMARK                         _______ _______ _______ _____ _____    ______ ____
ROOT
ATOM      1  C   UNL     1       2.694  -7.958  24.689  0.00  0.00    +0.118 A 
ATOM      2  C   UNL     1       1.938  -7.444  23.645  0.00  0.00    +0.047 A 
ATOM      3  C   UNL     1       2.328  -6.269  23.004  0.00  0.00    +0.030 A 
ATOM      4  C   UNL     1       3.506  -5.647  23.439  0.00  0.00    +0.048 A 
ATOM      5  N   UNL     1       4.127  -4.517  22.929  0.00  0.00    -0.354 N 
ATOM      6  H   UNL     1       3.778  -3.982  22.148  0.00  0.00    +0.166 HD
ATOM      7  C   UNL     1       5.312  -4.277  23.579  0.00  0.00    +0.049 A 
ATOM      8  C   UNL     1       5.332  -5.218  24.569  0.00  0.00    +0.021 A 
ATOM      9  C   UNL     1       6.399  -5.219  25.494  0.00  0.00    +0.062 A 
ATOM     10  C   UNL     1       7.480  -4.334  25.209  0.00  0.00    +0.060 A 
ATOM     11  C   UNL     1       8.513  -4.653  26.168  0.00  0.00    +0.260 A 
ATOM     12  N   UNL     1       7.860  -5.390  27.113  0.00  0.00    -0.289 N 
ATOM     13  H   UNL     1       8.360  -5.787  27.888  0.00  0.00    +0.172 HD
ATOM     14  O   UNL     1       9.730  -4.513  26.196  0.00  0.00    -0.267 OA
ATOM     15  C   UNL     1       7.466  -3.351  24.200  0.00  0.00    -0.003 A 
ATOM     16  C   UNL     1       6.661  -5.916  26.712  0.00  0.00    +0.260 A 
ATOM     17  O   UNL     1       6.068  -6.767  27.352  0.00  0.00    -0.267 OA
ATOM     18  C   UNL     1       6.318  -3.329  23.376  0.00  0.00    +0.035 A 
ATOM     19  C   UNL     1       4.277  -6.126  24.513  0.00  0.00    +0.012 A 
ATOM     20  C   UNL     1       3.850  -7.314  25.153  0.00  0.00    +0.056 A 
ENDROOT
BRANCH  15  21
ATOM     21  C   UNL     1       8.490  -2.294  24.100  0.00  0.00    -0.017 A 
ATOM     22  C   UNL     1       8.693  -1.309  25.077  0.00  0.00    +0.008 A 
ATOM     23  C   UNL     1       9.675  -0.319  24.930  0.00  0.00    +0.001 A 
ATOM     24  C   UNL     1      10.519  -0.328  23.824  0.00  0.00    +0.000 A 
ATOM     25  C   UNL     1      10.366  -1.310  22.854  0.00  0.00    +0.001 A 
ATOM     26  C   UNL     1       9.354  -2.267  22.985  0.00  0.00    +0.008 A 
ENDBRANCH  15  21
BRANCH   1  27
ATOM     27  O   UNL     1       2.268  -9.139  25.235  0.00  0.00    -0.507 OA
ATOM     28  H   UNL     1       2.365  -9.082  26.200  0.00  0.00    +0.292 HD
ENDBRANCH   1  27
TORSDOF 2
ENDMDL
MODEL 3
REMARK VINA RESULT:      -7.9      2.615      3.658
REMARK  Name = 
REMARK  2 active torsions:
REMARK  status: ('A' for Active; 'I' for Inactive)
REMARK    1  A    between atoms: O_1  and  C_2
REMARK    2  A    between atoms: C_9  and  C_18
REMARK                            x       y       z     vdW  Elec       q    Type
REMARK                         _______ _______ _______ _____ _____    ______ ____
ROOT
ATOM      1  C   UNL     1       9.341   1.740  21.970  0.00  0.00    +0.118 A 
ATOM      2  C   UNL     1       8.165   2.469  21.860  0.00  0.00    +0.047 A 
ATOM      3  C   UNL     1       6.971   1.963  22.370  0.00  0.00    +0.030 A 
ATOM      4  C   UNL     1       7.007   0.714  23.004  0.00  0.00    +0.048 A 
ATOM      5  N   UNL     1       5.978   0.033  23.635  0.00  0.00    -0.354 N 
ATOM      6  H   UNL     1       5.032   0.378  23.709  0.00  0.00    +0.166 HD
ATOM      7  C   UNL     1       6.439  -1.125  24.209  0.00  0.00    +0.049 A 
ATOM      8  C   UNL     1       7.744  -1.185  23.808  0.00  0.00    +0.021 A 
ATOM      9  C   UNL     1       8.521  -2.308  24.167  0.00  0.00    +0.062 A 
ATOM     10  C   UNL     1       7.923  -3.221  25.085  0.00  0.00    +0.060 A 
ATOM     11  C   UNL     1       8.964  -4.158  25.441  0.00  0.00    +0.260 A 
ATOM     12  N   UNL     1       9.917  -3.961  24.485  0.00  0.00    -0.289 N 
ATOM     13  H   UNL     1      10.786  -4.462  24.520  0.00  0.00    +0.172 HD
ATOM     14  O   UNL     1       9.164  -4.892  26.402  0.00  0.00    -0.267 OA
ATOM     15  C   UNL     1       6.576  -3.176  25.496  0.00  0.00    -0.003 A 
ATOM     16  C   UNL     1       9.818  -2.780  23.802  0.00  0.00    +0.260 A 
ATOM     17  O   UNL     1      10.706  -2.359  23.081  0.00  0.00    -0.267 OA
ATOM     18  C   UNL     1       5.819  -2.086  25.012  0.00  0.00    +0.035 A 
ATOM     19  C   UNL     1       8.175  -0.063  23.104  0.00  0.00    +0.012 A 
ATOM     20  C   UNL     1       9.371   0.470  22.567  0.00  0.00    +0.056 A 
ENDROOT
BRANCH  15  21
ATOM     21  C   UNL     1       5.931  -4.276  26.240  0.00  0.00    -0.017 A 
ATOM     22  C   UNL     1       5.538  -5.488  25.656  0.00  0.00    +0.008 A 
ATOM     23  C   UNL     1       4.919  -6.498  26.406  0.00  0.00    +0.001 A 
ATOM     24  C   UNL     1       4.734  -6.340  27.776  0.00  0.00    +0.000 A 
ATOM     25  C   UNL     1       5.142  -5.164  28.391  0.00  0.00    +0.001 A 
ATOM     26  C   UNL     1       5.717  -4.142  27.628  0.00  0.00    +0.008 A 
ENDBRANCH  15  21
BRANCH   1  27
ATOM     27  O   UNL     1      10.478   2.326  21.485  0.00  0.00    -0.507 OA
ATOM     28  H   UNL     1      11.184   1.659  21.471  0.00  0.00    +0.292 HD
ENDBRANCH   1  27
TORSDOF 2
ENDMDL
MODEL 4
REMARK VINA RESULT:      -7.6      4.047      8.038
REMARK  Name = 
REMARK  2 active torsions:
REMARK  status: ('A' for Active; 'I' for Inactive)
REMARK    1  A    between atoms: O_1  and  C_2
REMARK    2  A    between atoms: C_9  and  C_18
REMARK                            x       y       z     vdW  Elec       q    Type
REMARK                         _______ _______ _______ _____ _____    ______ ____
ROOT
ATOM      1  C   UNL     1       3.017  -6.453  27.643  0.00  0.00    +0.118 A 
ATOM      2  C   UNL     1       1.905  -5.752  27.197  0.00  0.00    +0.047 A 
ATOM      3  C   UNL     1       2.058  -4.625  26.392  0.00  0.00    +0.030 A 
ATOM      4  C   UNL     1       3.360  -4.242  26.044  0.00  0.00    +0.048 A 
ATOM      5  N   UNL     1       3.766  -3.206  25.217  0.00  0.00    -0.354 N 
ATOM      6  H   UNL     1       3.134  -2.572  24.752  0.00  0.00    +0.166 HD
ATOM      7  C   UNL     1       5.129  -3.214  25.059  0.00  0.00    +0.049 A 
ATOM      8  C   UNL     1       5.545  -4.204  25.902  0.00  0.00    +0.021 A 
ATOM      9  C   UNL     1       6.929  -4.445  26.048  0.00  0.00    +0.062 A 
ATOM     10  C   UNL     1       7.789  -3.742  25.153  0.00  0.00    +0.060 A 
ATOM     11  C   UNL     1       9.108  -4.293  25.362  0.00  0.00    +0.260 A 
ATOM     12  N   UNL     1       8.995  -4.964  26.544  0.00  0.00    -0.289 N 
ATOM     13  H   UNL     1       9.769  -5.488  26.911  0.00  0.00    +0.172 HD
ATOM     14  O   UNL     1      10.125  -4.365  24.681  0.00  0.00    -0.267 OA
ATOM     15  C   UNL     1       7.373  -2.711  24.288  0.00  0.00    -0.003 A 
ATOM     16  C   UNL     1       7.713  -5.251  26.928  0.00  0.00    +0.260 A 
ATOM     17  O   UNL     1       7.453  -6.025  27.832  0.00  0.00    -0.267 OA
ATOM     18  C   UNL     1       5.986  -2.441  24.270  0.00  0.00    +0.035 A 
ATOM     19  C   UNL     1       4.508  -4.912  26.504  0.00  0.00    +0.012 A 
ATOM     20  C   UNL     1       4.323  -6.046  27.330  0.00  0.00    +0.056 A 
ENDROOT
BRANCH  15  21
ATOM     21  C   UNL     1       8.324  -1.840  23.569  0.00  0.00    -0.017 A 
ATOM     22  C   UNL     1       8.589  -1.941  22.195  0.00  0.00    +0.008 A 
ATOM     23  C   UNL     1       9.510  -1.095  21.562  0.00  0.00    +0.001 A 
ATOM     24  C   UNL     1      10.143  -0.085  22.279  0.00  0.00    +0.000 A 
ATOM     25  C   UNL     1       9.878   0.062  23.634  0.00  0.00    +0.001 A 
ATOM     26  C   UNL     1       8.993  -0.815  24.270  0.00  0.00    +0.008 A 
ENDBRANCH  15  21
BRANCH   1  27
ATOM     27  O   UNL     1       2.780  -7.574  28.391  0.00  0.00    -0.507 OA
ATOM     28  H   UNL     1       1.988  -8.014  28.041  0.00  0.00    +0.292 HD
ENDBRANCH   1  27
TORSDOF 2
ENDMDL
MODEL 5
REMARK VINA RESULT:      -7.4      3.050      7.370
REMARK  Name = 
REMARK  2 active torsions:
REMARK  status: ('A' for Active; 'I' for Inactive)
REMARK    1  A    between atoms: O_1  and  C_2
REMARK    2  A    between atoms: C_9  and  C_18
REMARK                            x       y       z     vdW  Elec       q    Type
REMARK                         _______ _______ _______ _____ _____    ______ ____
ROOT
ATOM      1  C   UNL     1       4.146  -6.147  26.466  0.00  0.00    +0.118 A 
ATOM      2  C   UNL     1       2.996  -5.386  26.621  0.00  0.00    +0.047 A 
ATOM      3  C   UNL     1       3.016  -4.017  26.361  0.00  0.00    +0.030 A 
ATOM      4  C   UNL     1       4.223  -3.451  25.927  0.00  0.00    +0.048 A 
ATOM      5  N   UNL     1       4.479  -2.141  25.552  0.00  0.00    -0.354 N 
ATOM      6  H   UNL     1       3.789  -1.406  25.556  0.00  0.00    +0.166 HD
ATOM      7  C   UNL     1       5.770  -2.006  25.106  0.00  0.00    +0.049 A 
ATOM      8  C   UNL     1       6.319  -3.236  25.332  0.00  0.00    +0.021 A 
ATOM      9  C   UNL     1       7.687  -3.440  25.048  0.00  0.00    +0.062 A 
ATOM     10  C   UNL     1       8.355  -2.378  24.370  0.00  0.00    +0.060 A 
ATOM     11  C   UNL     1       9.661  -2.891  24.024  0.00  0.00    +0.260 A 
ATOM     12  N   UNL     1       9.785  -4.006  24.801  0.00  0.00    -0.289 N 
ATOM     13  H   UNL     1      10.597  -4.593  24.727  0.00  0.00    +0.172 HD
ATOM     14  O   UNL     1      10.493  -2.612  23.169  0.00  0.00    -0.267 OA
ATOM     15  C   UNL     1       7.803  -1.102  24.143  0.00  0.00    -0.003 A 
ATOM     16  C   UNL     1       8.611  -4.499  25.302  0.00  0.00    +0.260 A 
ATOM     17  O   UNL     1       8.526  -5.597  25.824  0.00  0.00    -0.267 OA
ATOM     18  C   UNL     1       6.462  -0.927  24.551  0.00  0.00    +0.035 A 
ATOM     19  C   UNL     1       5.412  -4.189  25.790  0.00  0.00    +0.012 A 
ATOM     20  C   UNL     1       5.365  -5.575  26.073  0.00  0.00    +0.056 A 
ENDROOT
BRANCH  15  21
ATOM     21  C   UNL     1       8.607   0.043  23.670  0.00  0.00    -0.017 A 
ATOM     22  C   UNL     1       9.383   0.853  24.511  0.00  0.00    +0.008 A 
ATOM     23  C   UNL     1      10.121   1.935  24.012  0.00  0.00    +0.001 A 
ATOM     24  C   UNL     1      10.147   2.196  22.647  0.00  0.00    +0.000 A 
ATOM     25  C   UNL     1       9.414   1.393  21.782  0.00  0.00    +0.001 A 
ATOM     26  C   UNL     1       8.644   0.342  22.292  0.00  0.00    +0.008 A 
ENDBRANCH  15  21
BRANCH   1  27
ATOM     27  O   UNL     1       4.032  -7.491  26.698  0.00  0.00    -0.507 OA
ATOM     28  H   UNL     1       3.103  -7.689  26.901  0.00  0.00    +0.292 HD
ENDBRANCH   1  27
TORSDOF 2
ENDMDL
MODEL 6
REMARK VINA RESULT:      -7.4      2.053      2.073
REMARK  Name = 
REMARK  2 active torsions:
REMARK  status: ('A' for Active; 'I' for Inactive)
REMARK    1  A    between atoms: O_1  and  C_2
REMARK    2  A    between atoms: C_9  and  C_18
REMARK                            x       y       z     vdW  Elec       q    Type
REMARK                         _______ _______ _______ _____ _____    ______ ____
ROOT
ATOM      1  C   UNL     1       6.953   4.609  22.230  0.00  0.00    +0.118 A 
ATOM      2  C   UNL     1       5.775   4.957  22.877  0.00  0.00    +0.047 A 
ATOM      3  C   UNL     1       5.083   4.017  23.637  0.00  0.00    +0.030 A 
ATOM      4  C   UNL     1       5.624   2.727  23.733  0.00  0.00    +0.048 A 
ATOM      5  N   UNL     1       5.160   1.647  24.467  0.00  0.00    -0.354 N 
ATOM      6  H   UNL     1       4.331   1.666  25.042  0.00  0.00    +0.166 HD
ATOM      7  C   UNL     1       6.021   0.583  24.366  0.00  0.00    +0.049 A 
ATOM      8  C   UNL     1       6.951   1.008  23.460  0.00  0.00    +0.021 A 
ATOM      9  C   UNL     1       7.972   0.119  23.057  0.00  0.00    +0.062 A 
ATOM     10  C   UNL     1       8.056  -1.112  23.773  0.00  0.00    +0.060 A 
ATOM     11  C   UNL     1       9.271  -1.749  23.320  0.00  0.00    +0.260 A 
ATOM     12  N   UNL     1       9.587  -1.067  22.180  0.00  0.00    -0.289 N 
ATOM     13  H   UNL     1      10.429  -1.279  21.676  0.00  0.00    +0.172 HD
ATOM     14  O   UNL     1      10.030  -2.583  23.797  0.00  0.00    -0.267 OA
ATOM     15  C   UNL     1       7.096  -1.565  24.699  0.00  0.00    -0.003 A 
ATOM     16  C   UNL     1       8.979   0.152  22.046  0.00  0.00    +0.260 A 
ATOM     17  O   UNL     1       9.320   0.969  21.208  0.00  0.00    -0.267 OA
ATOM     18  C   UNL     1       6.036  -0.673  24.977  0.00  0.00    +0.035 A 
ATOM     19  C   UNL     1       6.797   2.334  23.066  0.00  0.00    +0.012 A 
ATOM     20  C   UNL     1       7.473   3.307  22.291  0.00  0.00    +0.056 A 
ENDROOT
BRANCH  15  21
ATOM     21  C   UNL     1       7.083  -2.944  25.225  0.00  0.00    -0.017 A 
ATOM     22  C   UNL     1       7.771  -3.346  26.379  0.00  0.00    +0.008 A 
ATOM     23  C   UNL     1       7.734  -4.673  26.831  0.00  0.00    +0.001 A 
ATOM     24  C   UNL     1       6.957  -5.618  26.170  0.00  0.00    +0.000 A 
ATOM     25  C   UNL     1       6.238  -5.245  25.042  0.00  0.00    +0.001 A 
ATOM     26  C   UNL     1       6.315  -3.930  24.570  0.00  0.00    +0.008 A 
ENDBRANCH  15  21
BRANCH   1  27
ATOM     27  O   UNL     1       7.596   5.602  21.542  0.00  0.00    -0.507 OA
ATOM     28  H   UNL     1       6.935   6.100  21.034  0.00  0.00    +0.292 HD
ENDBRANCH   1  27
TORSDOF 2
ENDMDL
MODEL 7
REMARK VINA RESULT:      -7.2      2.084      6.774
REMARK  Name = 
REMARK  2 active torsions:
REMARK  status: ('A' for Active; 'I' for Inactive)
REMARK    1  A    between atoms: O_1  and  C_2
REMARK    2  A    between atoms: C_9  and  C_18
REMARK                            x       y       z     vdW  Elec       q    Type
REMARK                         _______ _______ _______ _____ _____    ______ ____
ROOT
ATOM      1  C   UNL     1       9.160  -4.916  25.251  0.00  0.00    +0.118 A 
ATOM      2  C   UNL     1       8.402  -5.025  26.408  0.00  0.00    +0.047 A 
ATOM      3  C   UNL     1       7.658  -3.940  26.868  0.00  0.00    +0.030 A 
ATOM      4  C   UNL     1       7.692  -2.757  26.117  0.00  0.00    +0.048 A 
ATOM      5  N   UNL     1       7.001  -1.575  26.331  0.00  0.00    -0.354 N 
ATOM      6  H   UNL     1       6.364  -1.423  27.099  0.00  0.00    +0.166 HD
ATOM      7  C   UNL     1       7.241  -0.680  25.319  0.00  0.00    +0.049 A 
ATOM      8  C   UNL     1       8.184  -1.305  24.554  0.00  0.00    +0.021 A 
ATOM      9  C   UNL     1       8.724  -0.625  23.441  0.00  0.00    +0.062 A 
ATOM     10  C   UNL     1       8.103   0.611  23.094  0.00  0.00    +0.060 A 
ATOM     11  C   UNL     1       8.691   1.007  21.835  0.00  0.00    +0.260 A 
ATOM     12  N   UNL     1       9.802   0.221  21.735  0.00  0.00    -0.289 N 
ATOM     13  H   UNL     1      10.383   0.259  20.917  0.00  0.00    +0.172 HD
ATOM     14  O   UNL     1       8.332   1.727  20.910  0.00  0.00    -0.267 OA
ATOM     15  C   UNL     1       7.140   1.271  23.882  0.00  0.00    -0.003 A 
ATOM     16  C   UNL     1       9.805  -0.883  22.544  0.00  0.00    +0.260 A 
ATOM     17  O   UNL     1      10.609  -1.791  22.417  0.00  0.00    -0.267 OA
ATOM     18  C   UNL     1       6.720   0.588  25.045  0.00  0.00    +0.035 A 
ATOM     19  C   UNL     1       8.473  -2.606  24.958  0.00  0.00    +0.012 A 
ATOM     20  C   UNL     1       9.229  -3.720  24.520  0.00  0.00    +0.056 A 
ENDROOT
BRANCH  15  21
ATOM     21  C   UNL     1       6.710   2.659  23.622  0.00  0.00    -0.017 A 
ATOM     22  C   UNL     1       5.487   3.000  23.027  0.00  0.00    +0.008 A 
ATOM     23  C   UNL     1       5.131   4.335  22.793  0.00  0.00    +0.001 A 
ATOM     24  C   UNL     1       5.968   5.367  23.206  0.00  0.00    +0.000 A 
ATOM     25  C   UNL     1       7.172   5.064  23.828  0.00  0.00    +0.001 A 
ATOM     26  C   UNL     1       7.542   3.728  24.017  0.00  0.00    +0.008 A 
ENDBRANCH  15  21
BRANCH   1  27
ATOM     27  O   UNL     1       9.825  -6.040  24.841  0.00  0.00    -0.507 OA
ATOM     28  H   UNL     1      10.719  -5.782  24.561  0.00  0.00    +0.292 HD
ENDBRANCH   1  27
TORSDOF 2
ENDMDL
MODEL 8
REMARK VINA RESULT:      -7.2      2.634      3.833
REMARK  Name = 
REMARK  2 active torsions:
REMARK  status: ('A' for Active; 'I' for Inactive)
REMARK    1  A    between atoms: O_1  and  C_2
REMARK    2  A    between atoms: C_9  and  C_18
REMARK                            x       y       z     vdW  Elec       q    Type
REMARK                         _______ _______ _______ _____ _____    ______ ____
ROOT
ATOM      1  C   UNL     1       9.095   4.018  24.626  0.00  0.00    +0.118 A 
ATOM      2  C   UNL     1      10.191   4.087  23.778  0.00  0.00    +0.047 A 
ATOM      3  C   UNL     1      10.578   2.973  23.034  0.00  0.00    +0.030 A 
ATOM      4  C   UNL     1       9.817   1.804  23.164  0.00  0.00    +0.048 A 
ATOM      5  N   UNL     1       9.962   0.598  22.494  0.00  0.00    -0.354 N 
ATOM      6  H   UNL     1      10.676   0.416  21.805  0.00  0.00    +0.166 HD
ATOM      7  C   UNL     1       8.961  -0.274  22.840  0.00  0.00    +0.049 A 
ATOM      8  C   UNL     1       8.279   0.390  23.820  0.00  0.00    +0.021 A 
ATOM      9  C   UNL     1       7.203  -0.257  24.466  0.00  0.00    +0.062 A 
ATOM     10  C   UNL     1       6.794  -1.506  23.912  0.00  0.00    +0.060 A 
ATOM     11  C   UNL     1       5.580  -1.866  24.608  0.00  0.00    +0.260 A 
ATOM     12  N   UNL     1       5.577  -1.045  25.698  0.00  0.00    -0.289 N 
ATOM     13  H   UNL     1       4.806  -1.053  26.342  0.00  0.00    +0.172 HD
ATOM     14  O   UNL     1       4.621  -2.581  24.344  0.00  0.00    -0.267 OA
ATOM     15  C   UNL     1       7.496  -2.206  22.911  0.00  0.00    -0.003 A 
ATOM     16  C   UNL     1       6.397   0.047  25.605  0.00  0.00    +0.260 A 
ATOM     17  O   UNL     1       6.344   0.980  26.387  0.00  0.00    -0.267 OA
ATOM     18  C   UNL     1       8.631  -1.553  22.382  0.00  0.00    +0.035 A 
ATOM     19  C   UNL     1       8.721   1.693  24.036  0.00  0.00    +0.012 A 
ATOM     20  C   UNL     1       8.358   2.835  24.789  0.00  0.00    +0.056 A 
ENDROOT
BRANCH  15  21
ATOM     21  C   UNL     1       7.186  -3.602  22.547  0.00  0.00    -0.017 A 
ATOM     22  C   UNL     1       6.347  -3.964  21.483  0.00  0.00    +0.008 A 
ATOM     23  C   UNL     1       6.077  -5.306  21.185  0.00  0.00    +0.001 A 
ATOM     24  C   UNL     1       6.691  -6.323  21.909  0.00  0.00    +0.000 A 
ATOM     25  C   UNL     1       7.554  -5.998  22.948  0.00  0.00    +0.001 A 
ATOM     26  C   UNL     1       7.783  -4.657  23.270  0.00  0.00    +0.008 A 
ENDBRANCH  15  21
BRANCH   1  27
ATOM     27  O   UNL     1       8.753   5.167  25.286  0.00  0.00    -0.507 OA
ATOM     28  H   UNL     1       8.929   5.041  26.233  0.00  0.00    +0.292 HD
ENDBRANCH   1  27
TORSDOF 2
ENDMDL
MODEL 9
REMARK VINA RESULT:      -7.2      3.504      5.767
REMARK  Name = 
REMARK  2 active torsions:
REMARK  status: ('A' for Active; 'I' for Inactive)
REMARK    1  A    between atoms: O_1  and  C_2
REMARK    2  A    between atoms: C_9  and  C_18
REMARK                            x       y       z     vdW  Elec       q    Type
REMARK                         _______ _______ _______ _____ _____    ______ ____
ROOT
ATOM      1  C   UNL     1       9.730  -0.215  24.414  0.00  0.00    +0.118 A 
ATOM      2  C   UNL     1       9.059   0.571  23.489  0.00  0.00    +0.047 A 
ATOM      3  C   UNL     1       7.820   0.172  22.989  0.00  0.00    +0.030 A 
ATOM      4  C   UNL     1       7.280  -1.030  23.465  0.00  0.00    +0.048 A 
ATOM      5  N   UNL     1       6.053  -1.605  23.170  0.00  0.00    -0.354 N 
ATOM      6  H   UNL     1       5.376  -1.202  22.540  0.00  0.00    +0.166 HD
ATOM      7  C   UNL     1       5.859  -2.745  23.908  0.00  0.00    +0.049 A 
ATOM      8  C   UNL     1       7.045  -2.909  24.566  0.00  0.00    +0.021 A 
ATOM      9  C   UNL     1       7.227  -4.047  25.381  0.00  0.00    +0.062 A 
ATOM     10  C   UNL     1       6.074  -4.858  25.597  0.00  0.00    +0.060 A 
ATOM     11  C   UNL     1       6.457  -5.828  26.598  0.00  0.00    +0.260 A 
ATOM     12  N   UNL     1       7.819  -5.753  26.615  0.00  0.00    -0.289 N 
ATOM     13  H   UNL     1       8.352  -6.300  27.267  0.00  0.00    +0.172 HD
ATOM     14  O   UNL     1       5.843  -6.504  27.415  0.00  0.00    -0.267 OA
ATOM     15  C   UNL     1       4.850  -4.707  24.915  0.00  0.00    -0.003 A 
ATOM     16  C   UNL     1       8.345  -4.618  26.061  0.00  0.00    +0.260 A 
ATOM     17  O   UNL     1       9.514  -4.300  26.194  0.00  0.00    -0.267 OA
ATOM     18  C   UNL     1       4.769  -3.611  24.028  0.00  0.00    +0.035 A 
ATOM     19  C   UNL     1       7.948  -1.865  24.378  0.00  0.00    +0.012 A 
ATOM     20  C   UNL     1       9.210  -1.441  24.859  0.00  0.00    +0.056 A 
ENDROOT
BRANCH  15  21
ATOM     21  C   UNL     1       3.772  -5.713  24.978  0.00  0.00    -0.017 A 
ATOM     22  C   UNL     1       3.764  -6.897  24.225  0.00  0.00    +0.008 A 
ATOM     23  C   UNL     1       2.710  -7.816  24.314  0.00  0.00    +0.001 A 
ATOM     24  C   UNL     1       1.664  -7.600  25.206  0.00  0.00    +0.000 A 
ATOM     25  C   UNL     1       1.658  -6.453  25.989  0.00  0.00    +0.001 A 
ATOM     26  C   UNL     1       2.691  -5.518  25.862  0.00  0.00    +0.008 A 
ENDBRANCH  15  21
BRANCH   1  27
ATOM     27  O   UNL     1      10.918   0.269  24.889  0.00  0.00    -0.507 OA
ATOM     28  H   UNL     1      11.371   0.732  24.166  0.00  0.00    +0.292 HD
ENDBRANCH   1  27
TORSDOF 2
ENDMDL
