MODEL 1
REMARK VINA RESULT:      -7.1      0.000      0.000
REMARK  Name = 
REMARK  2 active torsions:
REMARK  status: ('A' for Active; 'I' for Inactive)
REMARK    1  A    between atoms: O_1  and  C_2
REMARK    2  A    between atoms: C_4  and  C_5
REMARK                            x       y       z     vdW  Elec       q    Type
REMARK                         _______ _______ _______ _____ _____    ______ ____
ROOT
ATOM      1  C   UNL     1       8.756  -4.903  26.048  0.00  0.00    +0.320 C 
ATOM      2  C   UNL     1       7.371  -4.925  26.750  0.00  0.00    +0.269 C 
ATOM      3  O   UNL     1       7.203  -4.883  27.967  0.00  0.00    -0.270 OA
ATOM      4  N   UNL     1       6.277  -5.104  25.931  0.00  0.00    -0.281 N 
ATOM      5  H   UNL     1       5.447  -5.363  26.452  0.00  0.00    +0.155 HD
ATOM      6  C   UNL     1       6.278  -5.181  24.526  0.00  0.00    +0.043 A 
ATOM      7  C   UNL     1       5.273  -5.979  23.957  0.00  0.00    +0.025 A 
ATOM      8  C   UNL     1       5.222  -6.179  22.578  0.00  0.00    +0.022 A 
ATOM      9  C   UNL     1       6.165  -5.569  21.758  0.00  0.00    +0.042 A 
ATOM     10  C   UNL     1       7.151  -4.747  22.303  0.00  0.00    +0.032 A 
ATOM     11 CL   UNL     1       6.092  -5.799  20.057  0.00  0.00    -0.084 Cl
ATOM     12  C   UNL     1       7.197  -4.520  23.687  0.00  0.00    +0.023 A 
ATOM     13  C   UNL     1       8.173  -3.506  24.211  0.00  0.00    +0.079 C 
ATOM     14  N   UNL     1       8.842  -3.661  25.301  0.00  0.00    -0.243 NA
ENDROOT
BRANCH  13  15
ATOM     15  C   UNL     1       8.384  -2.214  23.453  0.00  0.00    +0.019 A 
ATOM     16  C   UNL     1       7.422  -1.184  23.425  0.00  0.00    +0.050 A 
ATOM     17 CL   UNL     1       5.925  -1.222  24.296  0.00  0.00    -0.083 Cl
ATOM     18  C   UNL     1       7.670  -0.007  22.704  0.00  0.00    +0.020 A 
ATOM     19  C   UNL     1       8.873   0.170  22.025  0.00  0.00    +0.001 A 
ATOM     20  C   UNL     1       9.828  -0.841  22.039  0.00  0.00    +0.001 A 
ATOM     21  C   UNL     1       9.578  -2.032  22.728  0.00  0.00    +0.011 A 
ENDBRANCH  13  15
BRANCH   1  22
ATOM     22  O   UNL     1       9.849  -5.024  26.930  0.00  0.00    -0.364 OA
ATOM     23  H   UNL     1       9.639  -4.360  27.609  0.00  0.00    +0.212 HD
ENDBRANCH   1  22
TORSDOF 2
ENDMDL
MODEL 2
REMARK VINA RESULT:      -6.2      2.902      4.484
REMARK  Name = 
REMARK  2 active torsions:
REMARK  status: ('A' for Active; 'I' for Inactive)
REMARK    1  A    between atoms: O_1  and  C_2
REMARK    2  A    between atoms: C_4  and  C_5
REMARK                            x       y       z     vdW  Elec       q    Type
REMARK                         _______ _______ _______ _____ _____    ______ ____
ROOT
ATOM      1  C   UNL     1       6.265  -3.847  22.023  0.00  0.00    +0.320 C 
ATOM      2  C   UNL     1       7.193  -4.922  22.653  0.00  0.00    +0.269 C 
ATOM      3  O   UNL     1       7.552  -5.952  22.088  0.00  0.00    -0.270 OA
ATOM      4  N   UNL     1       7.540  -4.727  23.972  0.00  0.00    -0.281 N 
ATOM      5  H   UNL     1       7.922  -5.565  24.395  0.00  0.00    +0.155 HD
ATOM      6  C   UNL     1       7.216  -3.618  24.775  0.00  0.00    +0.043 A 
ATOM      7  C   UNL     1       7.071  -3.879  26.147  0.00  0.00    +0.025 A 
ATOM      8  C   UNL     1       6.685  -2.867  27.025  0.00  0.00    +0.022 A 
ATOM      9  C   UNL     1       6.458  -1.584  26.538  0.00  0.00    +0.042 A 
ATOM     10  C   UNL     1       6.628  -1.299  25.185  0.00  0.00    +0.032 A 
ATOM     11 CL   UNL     1       6.001  -0.331  27.622  0.00  0.00    -0.084 Cl
ATOM     12  C   UNL     1       7.039  -2.304  24.296  0.00  0.00    +0.023 A 
ATOM     13  C   UNL     1       7.363  -1.918  22.882  0.00  0.00    +0.079 C 
ATOM     14  N   UNL     1       7.052  -2.638  21.860  0.00  0.00    -0.243 NA
ENDROOT
BRANCH  13  15
ATOM     15  C   UNL     1       8.114  -0.633  22.614  0.00  0.00    +0.019 A 
ATOM     16  C   UNL     1       9.519  -0.548  22.674  0.00  0.00    +0.050 A 
ATOM     17 CL   UNL     1      10.567  -1.892  22.986  0.00  0.00    -0.083 Cl
ATOM     18  C   UNL     1      10.164   0.671  22.418  0.00  0.00    +0.020 A 
ATOM     19  C   UNL     1       9.429   1.806  22.082  0.00  0.00    +0.001 A 
ATOM     20  C   UNL     1       8.042   1.737  22.024  0.00  0.00    +0.001 A 
ATOM     21  C   UNL     1       7.387   0.535  22.310  0.00  0.00    +0.011 A 
ENDBRANCH  13  15
BRANCH   1  22
ATOM     22  O   UNL     1       5.693  -4.232  20.793  0.00  0.00    -0.364 OA
ATOM     23  H   UNL     1       4.801  -3.848  20.852  0.00  0.00    +0.212 HD
ENDBRANCH   1  22
TORSDOF 2
ENDMDL
MODEL 3
REMARK VINA RESULT:      -6.2      2.458      5.538
REMARK  Name = 
REMARK  2 active torsions:
REMARK  status: ('A' for Active; 'I' for Inactive)
REMARK    1  A    between atoms: O_1  and  C_2
REMARK    2  A    between atoms: C_4  and  C_5
REMARK                            x       y       z     vdW  Elec       q    Type
REMARK                         _______ _______ _______ _____ _____    ______ ____
ROOT
ATOM      1  C   UNL     1       9.223  -4.340  25.236  0.00  0.00    +0.320 C 
ATOM      2  C   UNL     1       9.426  -3.059  24.382  0.00  0.00    +0.269 C 
ATOM      3  O   UNL     1      10.340  -2.893  23.578  0.00  0.00    -0.270 OA
ATOM      4  N   UNL     1       8.563  -2.015  24.637  0.00  0.00    -0.281 N 
ATOM      5  H   UNL     1       8.894  -1.140  24.248  0.00  0.00    +0.155 HD
ATOM      6  C   UNL     1       7.470  -2.021  25.523  0.00  0.00    +0.043 A 
ATOM      7  C   UNL     1       7.158  -0.788  26.117  0.00  0.00    +0.025 A 
ATOM      8  C   UNL     1       6.136  -0.693  27.061  0.00  0.00    +0.022 A 
ATOM      9  C   UNL     1       5.410  -1.829  27.405  0.00  0.00    +0.042 A 
ATOM     10  C   UNL     1       5.684  -3.055  26.802  0.00  0.00    +0.032 A 
ATOM     11 CL   UNL     1       4.137  -1.710  28.554  0.00  0.00    -0.084 Cl
ATOM     12  C   UNL     1       6.695  -3.156  25.833  0.00  0.00    +0.023 A 
ATOM     13  C   UNL     1       6.850  -4.457  25.098  0.00  0.00    +0.079 C 
ATOM     14  N   UNL     1       7.992  -4.967  24.789  0.00  0.00    -0.243 NA
ENDROOT
BRANCH  13  15
ATOM     15  C   UNL     1       5.617  -5.217  24.662  0.00  0.00    +0.019 A 
ATOM     16  C   UNL     1       4.833  -4.824  23.559  0.00  0.00    +0.050 A 
ATOM     17 CL   UNL     1       5.203  -3.485  22.524  0.00  0.00    -0.083 Cl
ATOM     18  C   UNL     1       3.698  -5.567  23.201  0.00  0.00    +0.020 A 
ATOM     19  C   UNL     1       3.343  -6.709  23.913  0.00  0.00    +0.001 A 
ATOM     20  C   UNL     1       4.104  -7.105  25.007  0.00  0.00    +0.001 A 
ATOM     21  C   UNL     1       5.219  -6.353  25.394  0.00  0.00    +0.011 A 
ENDBRANCH  13  15
BRANCH   1  22
ATOM     22  O   UNL     1      10.294  -5.254  25.164  0.00  0.00    -0.364 OA
ATOM     23  H   UNL     1      10.435  -5.330  24.205  0.00  0.00    +0.212 HD
ENDBRANCH   1  22
TORSDOF 2
ENDMDL
MODEL 4
REMARK VINA RESULT:      -6.1      5.976      8.918
REMARK  Name = 
REMARK  2 active torsions:
REMARK  status: ('A' for Active; 'I' for Inactive)
REMARK    1  A    between atoms: O_1  and  C_2
REMARK    2  A    between atoms: C_4  and  C_5
REMARK                            x       y       z     vdW  Elec       q    Type
REMARK                         _______ _______ _______ _____ _____    ______ ____
ROOT
ATOM      1  C   UNL     1       6.331   4.067  22.744  0.00  0.00    +0.320 C 
ATOM      2  C   UNL     1       6.053   4.876  24.041  0.00  0.00    +0.269 C 
ATOM      3  O   UNL     1       4.934   5.163  24.459  0.00  0.00    -0.270 OA
ATOM      4  N   UNL     1       7.159   5.377  24.692  0.00  0.00    -0.281 N 
ATOM      5  H   UNL     1       6.915   6.094  25.366  0.00  0.00    +0.155 HD
ATOM      6  C   UNL     1       8.508   5.160  24.356  0.00  0.00    +0.043 A 
ATOM      7  C   UNL     1       9.393   6.202  24.673  0.00  0.00    +0.025 A 
ATOM      8  C   UNL     1      10.740   6.120  24.323  0.00  0.00    +0.022 A 
ATOM      9  C   UNL     1      11.214   4.988  23.669  0.00  0.00    +0.042 A 
ATOM     10  C   UNL     1      10.356   3.929  23.374  0.00  0.00    +0.032 A 
ATOM     11 CL   UNL     1      12.878   4.877  23.254  0.00  0.00    -0.084 Cl
ATOM     12  C   UNL     1       9.004   3.991  23.743  0.00  0.00    +0.023 A 
ATOM     13  C   UNL     1       8.155   2.768  23.549  0.00  0.00    +0.079 C 
ATOM     14  N   UNL     1       6.934   2.807  23.141  0.00  0.00    -0.243 NA
ENDROOT
BRANCH  13  15
ATOM     15  C   UNL     1       8.731   1.405  23.865  0.00  0.00    +0.019 A 
ATOM     16  C   UNL     1       9.147   0.506  22.863  0.00  0.00    +0.050 A 
ATOM     17 CL   UNL     1       9.125   0.854  21.166  0.00  0.00    -0.083 Cl
ATOM     18  C   UNL     1       9.673  -0.746  23.214  0.00  0.00    +0.020 A 
ATOM     19  C   UNL     1       9.811  -1.110  24.551  0.00  0.00    +0.001 A 
ATOM     20  C   UNL     1       9.399  -0.234  25.550  0.00  0.00    +0.001 A 
ATOM     21  C   UNL     1       8.842   1.004  25.211  0.00  0.00    +0.011 A 
ENDBRANCH  13  15
BRANCH   1  22
ATOM     22  O   UNL     1       5.185   3.837  21.955  0.00  0.00    -0.364 OA
ATOM     23  H   UNL     1       5.559   3.393  21.174  0.00  0.00    +0.212 HD
ENDBRANCH   1  22
TORSDOF 2
ENDMDL
MODEL 5
REMARK VINA RESULT:      -5.9      3.583      5.826
REMARK  Name = 
REMARK  2 active torsions:
REMARK  status: ('A' for Active; 'I' for Inactive)
REMARK    1  A    between atoms: O_1  and  C_2
REMARK    2  A    between atoms: C_4  and  C_5
REMARK                            x       y       z     vdW  Elec       q    Type
REMARK                         _______ _______ _______ _____ _____    ______ ____
ROOT
ATOM      1  C   UNL     1       8.912   0.145  22.881  0.00  0.00    +0.320 C 
ATOM      2  C   UNL     1       7.801   1.105  22.377  0.00  0.00    +0.269 C 
ATOM      3  O   UNL     1       7.949   1.938  21.485  0.00  0.00    -0.270 OA
ATOM      4  N   UNL     1       6.607   1.067  23.064  0.00  0.00    -0.281 N 
ATOM      5  H   UNL     1       6.025   1.873  22.865  0.00  0.00    +0.155 HD
ATOM      6  C   UNL     1       6.262   0.192  24.110  0.00  0.00    +0.043 A 
ATOM      7  C   UNL     1       5.362   0.700  25.060  0.00  0.00    +0.025 A 
ATOM      8  C   UNL     1       5.005  -0.058  26.175  0.00  0.00    +0.022 A 
ATOM      9  C   UNL     1       5.533  -1.334  26.337  0.00  0.00    +0.042 A 
ATOM     10  C   UNL     1       6.404  -1.867  25.388  0.00  0.00    +0.032 A 
ATOM     11 CL   UNL     1       5.079  -2.277  27.701  0.00  0.00    -0.084 Cl
ATOM     12  C   UNL     1       6.751  -1.122  24.250  0.00  0.00    +0.023 A 
ATOM     13  C   UNL     1       7.563  -1.793  23.179  0.00  0.00    +0.079 C 
ATOM     14  N   UNL     1       8.507  -1.205  22.530  0.00  0.00    -0.243 NA
ENDROOT
BRANCH  13  15
ATOM     15  C   UNL     1       7.259  -3.227  22.804  0.00  0.00    +0.019 A 
ATOM     16  C   UNL     1       7.943  -4.321  23.371  0.00  0.00    +0.050 A 
ATOM     17 CL   UNL     1       9.153  -4.185  24.604  0.00  0.00    -0.083 Cl
ATOM     18  C   UNL     1       7.621  -5.630  22.985  0.00  0.00    +0.020 A 
ATOM     19  C   UNL     1       6.612  -5.869  22.056  0.00  0.00    +0.001 A 
ATOM     20  C   UNL     1       5.933  -4.798  21.485  0.00  0.00    +0.001 A 
ATOM     21  C   UNL     1       6.268  -3.487  21.838  0.00  0.00    +0.011 A 
ENDBRANCH  13  15
BRANCH   1  22
ATOM     22  O   UNL     1      10.193   0.424  22.362  0.00  0.00    -0.364 OA
ATOM     23  H   UNL     1      10.769   0.231  23.121  0.00  0.00    +0.212 HD
ENDBRANCH   1  22
TORSDOF 2
ENDMDL
MODEL 6
REMARK VINA RESULT:      -5.8      2.929      5.844
REMARK  Name = 
REMARK  2 active torsions:
REMARK  status: ('A' for Active; 'I' for Inactive)
REMARK    1  A    between atoms: O_1  and  C_2
REMARK    2  A    between atoms: C_4  and  C_5
REMARK                            x       y       z     vdW  Elec       q    Type
REMARK                         _______ _______ _______ _____ _____    ______ ____
ROOT
ATOM      1  C   UNL     1       9.199  -2.114  23.443  0.00  0.00    +0.320 C 
ATOM      2  C   UNL     1       8.786  -1.100  22.341  0.00  0.00    +0.269 C 
ATOM      3  O   UNL     1       9.418  -0.896  21.307  0.00  0.00    -0.270 OA
ATOM      4  N   UNL     1       7.684  -0.319  22.616  0.00  0.00    -0.281 N 
ATOM      5  H   UNL     1       7.617   0.480  21.996  0.00  0.00    +0.155 HD
ATOM      6  C   UNL     1       6.849  -0.405  23.745  0.00  0.00    +0.043 A 
ATOM      7  C   UNL     1       6.255   0.797  24.158  0.00  0.00    +0.025 A 
ATOM      8  C   UNL     1       5.462   0.839  25.305  0.00  0.00    +0.022 A 
ATOM      9  C   UNL     1       5.246  -0.325  26.035  0.00  0.00    +0.042 A 
ATOM     10  C   UNL     1       5.802  -1.534  25.622  0.00  0.00    +0.032 A 
ATOM     11 CL   UNL     1       4.253  -0.278  27.438  0.00  0.00    -0.084 Cl
ATOM     12  C   UNL     1       6.582  -1.592  24.457  0.00  0.00    +0.023 A 
ATOM     13  C   UNL     1       7.028  -2.939  23.963  0.00  0.00    +0.079 C 
ATOM     14  N   UNL     1       8.194  -3.162  23.464  0.00  0.00    -0.243 NA
ENDROOT
BRANCH  13  15
ATOM     15  C   UNL     1       6.069  -4.107  24.020  0.00  0.00    +0.019 A 
ATOM     16  C   UNL     1       6.185  -5.139  24.973  0.00  0.00    +0.050 A 
ATOM     17 CL   UNL     1       7.376  -5.178  26.231  0.00  0.00    -0.083 Cl
ATOM     18  C   UNL     1       5.268  -6.200  24.979  0.00  0.00    +0.020 A 
ATOM     19  C   UNL     1       4.220  -6.238  24.062  0.00  0.00    +0.001 A 
ATOM     20  C   UNL     1       4.096  -5.229  23.114  0.00  0.00    +0.001 A 
ATOM     21  C   UNL     1       5.025  -4.184  23.077  0.00  0.00    +0.011 A 
ENDBRANCH  13  15
BRANCH   1  22
ATOM     22  O   UNL     1      10.483  -2.668  23.262  0.00  0.00    -0.364 OA
ATOM     23  H   UNL     1      10.716  -2.945  24.165  0.00  0.00    +0.212 HD
ENDBRANCH   1  22
TORSDOF 2
ENDMDL
MODEL 7
REMARK VINA RESULT:      -5.8      2.944      4.414
REMARK  Name = 
REMARK  2 active torsions:
REMARK  status: ('A' for Active; 'I' for Inactive)
REMARK    1  A    between atoms: O_1  and  C_2
REMARK    2  A    between atoms: C_4  and  C_5
REMARK                            x       y       z     vdW  Elec       q    Type
REMARK                         _______ _______ _______ _____ _____    ______ ____
ROOT
ATOM      1  C   UNL     1       4.511  -5.410  23.385  0.00  0.00    +0.320 C 
ATOM      2  C   UNL     1       4.615  -6.262  24.679  0.00  0.00    +0.269 C 
ATOM      3  O   UNL     1       4.535  -7.488  24.717  0.00  0.00    -0.270 OA
ATOM      4  N   UNL     1       4.704  -5.562  25.863  0.00  0.00    -0.281 N 
ATOM      5  H   UNL     1       4.513  -6.146  26.669  0.00  0.00    +0.155 HD
ATOM      6  C   UNL     1       4.798  -4.166  26.012  0.00  0.00    +0.043 A 
ATOM      7  C   UNL     1       4.236  -3.638  27.185  0.00  0.00    +0.025 A 
ATOM      8  C   UNL     1       4.215  -2.261  27.403  0.00  0.00    +0.022 A 
ATOM      9  C   UNL     1       4.769  -1.405  26.457  0.00  0.00    +0.042 A 
ATOM     10  C   UNL     1       5.360  -1.914  25.302  0.00  0.00    +0.032 A 
ATOM     11 CL   UNL     1       4.760   0.291  26.734  0.00  0.00    -0.084 Cl
ATOM     12  C   UNL     1       5.409  -3.299  25.084  0.00  0.00    +0.023 A 
ATOM     13  C   UNL     1       6.192  -3.809  23.908  0.00  0.00    +0.079 C 
ATOM     14  N   UNL     1       5.807  -4.792  23.170  0.00  0.00    -0.243 NA
ENDROOT
BRANCH  13  15
ATOM     15  C   UNL     1       7.519  -3.169  23.564  0.00  0.00    +0.019 A 
ATOM     16  C   UNL     1       8.662  -3.306  24.377  0.00  0.00    +0.050 A 
ATOM     17 CL   UNL     1       8.726  -4.265  25.819  0.00  0.00    -0.083 Cl
ATOM     18  C   UNL     1       9.866  -2.689  24.010  0.00  0.00    +0.020 A 
ATOM     19  C   UNL     1       9.958  -1.954  22.831  0.00  0.00    +0.001 A 
ATOM     20  C   UNL     1       8.836  -1.806  22.022  0.00  0.00    +0.001 A 
ATOM     21  C   UNL     1       7.621  -2.389  22.395  0.00  0.00    +0.011 A 
ENDBRANCH  13  15
BRANCH   1  22
ATOM     22  O   UNL     1       4.120  -6.143  22.245  0.00  0.00    -0.364 OA
ATOM     23  H   UNL     1       4.838  -5.946  21.619  0.00  0.00    +0.212 HD
ENDBRANCH   1  22
TORSDOF 2
ENDMDL
MODEL 8
REMARK VINA RESULT:      -5.8      2.871      4.361
REMARK  Name = 
REMARK  2 active torsions:
REMARK  status: ('A' for Active; 'I' for Inactive)
REMARK    1  A    between atoms: O_1  and  C_2
REMARK    2  A    between atoms: C_4  and  C_5
REMARK                            x       y       z     vdW  Elec       q    Type
REMARK                         _______ _______ _______ _____ _____    ______ ____
ROOT
ATOM      1  C   UNL     1       7.428  -3.667  23.169  0.00  0.00    +0.320 C 
ATOM      2  C   UNL     1       7.904  -4.250  24.528  0.00  0.00    +0.269 C 
ATOM      3  O   UNL     1       8.486  -5.324  24.662  0.00  0.00    -0.270 OA
ATOM      4  N   UNL     1       7.545  -3.540  25.653  0.00  0.00    -0.281 N 
ATOM      5  H   UNL     1       7.653  -4.085  26.501  0.00  0.00    +0.155 HD
ATOM      6  C   UNL     1       6.874  -2.304  25.693  0.00  0.00    +0.043 A 
ATOM      7  C   UNL     1       6.058  -2.087  26.814  0.00  0.00    +0.025 A 
ATOM      8  C   UNL     1       5.296  -0.925  26.923  0.00  0.00    +0.022 A 
ATOM      9  C   UNL     1       5.357   0.035  25.918  0.00  0.00    +0.042 A 
ATOM     10  C   UNL     1       6.187  -0.148  24.813  0.00  0.00    +0.032 A 
ATOM     11 CL   UNL     1       4.433   1.477  26.060  0.00  0.00    -0.084 Cl
ATOM     12  C   UNL     1       6.976  -1.303  24.705  0.00  0.00    +0.023 A 
ATOM     13  C   UNL     1       7.970  -1.386  23.582  0.00  0.00    +0.079 C 
ATOM     14  N   UNL     1       8.205  -2.466  22.920  0.00  0.00    -0.243 NA
ENDROOT
BRANCH  13  15
ATOM     15  C   UNL     1       8.768  -0.159  23.203  0.00  0.00    +0.019 A 
ATOM     16  C   UNL     1       9.651   0.479  24.097  0.00  0.00    +0.050 A 
ATOM     17 CL   UNL     1       9.993  -0.082  25.700  0.00  0.00    -0.083 Cl
ATOM     18  C   UNL     1      10.365   1.616  23.692  0.00  0.00    +0.020 A 
ATOM     19  C   UNL     1      10.230   2.117  22.399  0.00  0.00    +0.001 A 
ATOM     20  C   UNL     1       9.359   1.500  21.509  0.00  0.00    +0.001 A 
ATOM     21  C   UNL     1       8.616   0.386  21.912  0.00  0.00    +0.011 A 
ENDBRANCH  13  15
BRANCH   1  22
ATOM     22  O   UNL     1       7.546  -4.562  22.087  0.00  0.00    -0.364 OA
ATOM     23  H   UNL     1       6.662  -4.516  21.685  0.00  0.00    +0.212 HD
ENDBRANCH   1  22
TORSDOF 2
ENDMDL
MODEL 9
REMARK VINA RESULT:      -5.7      3.148      6.191
REMARK  Name = 
REMARK  2 active torsions:
REMARK  status: ('A' for Active; 'I' for Inactive)
REMARK    1  A    between atoms: O_1  and  C_2
REMARK    2  A    between atoms: C_4  and  C_5
REMARK                            x       y       z     vdW  Elec       q    Type
REMARK                         _______ _______ _______ _____ _____    ______ ____
ROOT
ATOM      1  C   UNL     1       9.955  -1.328  22.949  0.00  0.00    +0.320 C 
ATOM      2  C   UNL     1       8.990  -0.482  22.075  0.00  0.00    +0.269 C 
ATOM      3  O   UNL     1       9.053  -0.391  20.851  0.00  0.00    -0.270 OA
ATOM      4  N   UNL     1       8.071   0.289  22.755  0.00  0.00    -0.281 N 
ATOM      5  H   UNL     1       7.652   0.997  22.163  0.00  0.00    +0.155 HD
ATOM      6  C   UNL     1       7.860   0.320  24.146  0.00  0.00    +0.043 A 
ATOM      7  C   UNL     1       7.414   1.543  24.669  0.00  0.00    +0.025 A 
ATOM      8  C   UNL     1       7.238   1.705  26.043  0.00  0.00    +0.022 A 
ATOM      9  C   UNL     1       7.491   0.639  26.900  0.00  0.00    +0.042 A 
ATOM     10  C   UNL     1       7.905  -0.593  26.395  0.00  0.00    +0.032 A 
ATOM     11 CL   UNL     1       7.256   0.832  28.591  0.00  0.00    -0.084 Cl
ATOM     12  C   UNL     1       8.062  -0.773  25.013  0.00  0.00    +0.023 A 
ATOM     13  C   UNL     1       8.354  -2.156  24.503  0.00  0.00    +0.079 C 
ATOM     14  N   UNL     1       9.175  -2.400  23.541  0.00  0.00    -0.243 NA
ENDROOT
BRANCH  13  15
ATOM     15  C   UNL     1       7.642  -3.341  25.117  0.00  0.00    +0.019 A 
ATOM     16  C   UNL     1       6.321  -3.693  24.776  0.00  0.00    +0.050 A 
ATOM     17 CL   UNL     1       5.370  -2.878  23.579  0.00  0.00    -0.083 Cl
ATOM     18  C   UNL     1       5.709  -4.802  25.378  0.00  0.00    +0.020 A 
ATOM     19  C   UNL     1       6.402  -5.581  26.302  0.00  0.00    +0.001 A 
ATOM     20  C   UNL     1       7.704  -5.242  26.651  0.00  0.00    +0.001 A 
ATOM     21  C   UNL     1       8.313  -4.118  26.081  0.00  0.00    +0.011 A 
ENDBRANCH  13  15
BRANCH   1  22
ATOM     22  O   UNL     1      11.057  -1.853  22.243  0.00  0.00    -0.364 OA
ATOM     23  H   UNL     1      11.340  -1.092  21.708  0.00  0.00    +0.212 HD
ENDBRANCH   1  22
TORSDOF 2
ENDMDL
