MODEL 1
REMARK VINA RESULT:      -7.2      0.000      0.000
REMARK  Name = 
REMARK  5 active torsions:
REMARK  status: ('A' for Active; 'I' for Inactive)
REMARK    1  A    between atoms: O_1  and  C_2
REMARK    2  A    between atoms: C_5  and  C_8
REMARK    3  A    between atoms: C_8  and  C_25
REMARK    4  A    between atoms: C_17  and  N_22
REMARK    5  A    between atoms: C_28  and  O_29
REMARK                            x       y       z     vdW  Elec       q    Type
REMARK                         _______ _______ _______ _____ _____    ______ ____
ROOT
ATOM      1  C   UNL     1       8.108   3.837  24.182  0.00  0.00    +0.189 C 
ATOM      2  C   UNL     1       8.457   2.418  23.674  0.00  0.00    +0.014 A 
ATOM      3  C   UNL     1       8.317   1.296  24.519  0.00  0.00    +0.010 A 
ATOM      4  C   UNL     1       8.652  -0.012  24.057  0.00  0.00    +0.060 A 
ATOM      5  C   UNL     1       9.163  -0.130  22.741  0.00  0.00    +0.281 A 
ATOM      6  C   UNL     1       9.275   0.965  21.887  0.00  0.00    +0.085 A 
ATOM      7  C   UNL     1       8.434  -1.114  24.920  0.00  0.00    +0.015 A 
ATOM      8  C   UNL     1       7.904  -0.946  26.196  0.00  0.00    +0.002 A 
ATOM      9  C   UNL     1       7.593   0.328  26.640  0.00  0.00    +0.015 A 
ATOM     10  C   UNL     1       7.805   1.442  25.813  0.00  0.00    +0.067 A 
ATOM     11  C   UNL     1       7.430   2.762  26.345  0.00  0.00    +0.341 C 
ATOM     12  O   UNL     1       7.001   2.884  27.485  0.00  0.00    -0.245 OA
ATOM     13  C   UNL     1       8.885   2.217  22.345  0.00  0.00    +0.015 A 
ATOM     14  O   UNL     1       7.560   3.821  25.535  0.00  0.00    -0.440 OA
ENDROOT
BRANCH   1  18
ATOM     15  C   UNL     1      11.738   6.295  24.584  0.00  0.00    +0.117 A 
ATOM     16  C   UNL     1      11.744   5.195  23.746  0.00  0.00    +0.046 A 
ATOM     17  C   UNL     1      10.576   4.443  23.574  0.00  0.00    +0.012 A 
ATOM     18  C   UNL     1       9.384   4.743  24.269  0.00  0.00    +0.005 A 
ATOM     19  C   UNL     1       9.409   5.905  25.072  0.00  0.00    +0.012 A 
ATOM     20  C   UNL     1      10.571   6.674  25.230  0.00  0.00    +0.046 A 
BRANCH  15  21
ATOM     21  O   UNL     1      12.904   6.980  24.744  0.00  0.00    -0.507 OA
ATOM     22  H   UNL     1      13.369   7.004  23.892  0.00  0.00    +0.292 HD
ENDBRANCH  15  21
ENDBRANCH   1  18
BRANCH   1  23
ATOM     23  C   UNL     1       6.908   4.436  23.407  0.00  0.00    +0.005 A 
ATOM     24  C   UNL     1       5.688   3.715  23.367  0.00  0.00    +0.012 A 
ATOM     25  C   UNL     1       4.534   4.259  22.800  0.00  0.00    +0.046 A 
ATOM     26  C   UNL     1       4.573   5.534  22.262  0.00  0.00    +0.117 A 
ATOM     27  C   UNL     1       5.755   6.262  22.258  0.00  0.00    +0.046 A 
ATOM     28  C   UNL     1       6.914   5.719  22.832  0.00  0.00    +0.012 A 
BRANCH  26  29
ATOM     29  O   UNL     1       3.415   6.049  21.764  0.00  0.00    -0.507 OA
ATOM     30  H   UNL     1       2.668   5.620  22.211  0.00  0.00    +0.292 HD
ENDBRANCH  26  29
ENDBRANCH   1  23
BRANCH   5  31
ATOM     31  N   UNL     1       9.555  -1.419  22.193  0.00  0.00    +0.080 N 
ATOM     32  O   UNL     1       8.680  -2.064  21.600  0.00  0.00    +0.041 OA
ATOM     33  O   UNL     1      10.735  -1.765  22.331  0.00  0.00    -0.576 OA
ENDBRANCH   5  31
TORSDOF 5
ENDMDL
MODEL 2
REMARK VINA RESULT:      -6.9      3.552      4.896
REMARK  Name = 
REMARK  5 active torsions:
REMARK  status: ('A' for Active; 'I' for Inactive)
REMARK    1  A    between atoms: O_1  and  C_2
REMARK    2  A    between atoms: C_5  and  C_8
REMARK    3  A    between atoms: C_8  and  C_25
REMARK    4  A    between atoms: C_17  and  N_22
REMARK    5  A    between atoms: C_28  and  O_29
REMARK                            x       y       z     vdW  Elec       q    Type
REMARK                         _______ _______ _______ _____ _____    ______ ____
ROOT
ATOM      1  C   UNL     1       7.272  -0.295  24.716  0.00  0.00    +0.189 C 
ATOM      2  C   UNL     1       6.967  -1.649  24.032  0.00  0.00    +0.014 A 
ATOM      3  C   UNL     1       7.442  -2.858  24.584  0.00  0.00    +0.010 A 
ATOM      4  C   UNL     1       7.174  -4.107  23.947  0.00  0.00    +0.060 A 
ATOM      5  C   UNL     1       6.453  -4.077  22.728  0.00  0.00    +0.281 A 
ATOM      6  C   UNL     1       5.952  -2.894  22.190  0.00  0.00    +0.085 A 
ATOM      7  C   UNL     1       7.617  -5.298  24.573  0.00  0.00    +0.015 A 
ATOM      8  C   UNL     1       8.299  -5.273  25.785  0.00  0.00    +0.002 A 
ATOM      9  C   UNL     1       8.565  -4.056  26.391  0.00  0.00    +0.015 A 
ATOM     10  C   UNL     1       8.148  -2.856  25.792  0.00  0.00    +0.067 A 
ATOM     11  C   UNL     1       8.447  -1.604  26.505  0.00  0.00    +0.341 C 
ATOM     12  O   UNL     1       9.081  -1.610  27.551  0.00  0.00    -0.245 OA
ATOM     13  C   UNL     1       6.177  -1.701  22.864  0.00  0.00    +0.015 A 
ATOM     14  O   UNL     1       7.987  -0.462  25.977  0.00  0.00    -0.440 OA
ENDROOT
BRANCH   1  18
ATOM     15  C   UNL     1      10.031   2.072  22.234  0.00  0.00    +0.117 A 
ATOM     16  C   UNL     1       9.021   1.344  21.633  0.00  0.00    +0.046 A 
ATOM     17  C   UNL     1       8.109   0.634  22.421  0.00  0.00    +0.012 A 
ATOM     18  C   UNL     1       8.208   0.595  23.829  0.00  0.00    +0.005 A 
ATOM     19  C   UNL     1       9.222   1.396  24.403  0.00  0.00    +0.012 A 
ATOM     20  C   UNL     1      10.125   2.127  23.616  0.00  0.00    +0.046 A 
BRANCH  15  21
ATOM     21  O   UNL     1      10.913   2.724  21.428  0.00  0.00    -0.507 OA
ATOM     22  H   UNL     1      10.865   3.675  21.619  0.00  0.00    +0.292 HD
ENDBRANCH  15  21
ENDBRANCH   1  18
BRANCH   1  23
ATOM     23  C   UNL     1       5.976   0.386  25.223  0.00  0.00    +0.005 A 
ATOM     24  C   UNL     1       5.227  -0.241  26.250  0.00  0.00    +0.012 A 
ATOM     25  C   UNL     1       4.128   0.383  26.842  0.00  0.00    +0.046 A 
ATOM     26  C   UNL     1       3.752   1.647  26.419  0.00  0.00    +0.117 A 
ATOM     27  C   UNL     1       4.443   2.285  25.397  0.00  0.00    +0.046 A 
ATOM     28  C   UNL     1       5.552   1.660  24.807  0.00  0.00    +0.012 A 
BRANCH  26  29
ATOM     29  O   UNL     1       2.705   2.244  27.055  0.00  0.00    -0.507 OA
ATOM     30  H   UNL     1       1.886   1.795  26.790  0.00  0.00    +0.292 HD
ENDBRANCH  26  29
ENDBRANCH   1  23
BRANCH   5  31
ATOM     31  N   UNL     1       6.155  -5.298  21.994  0.00  0.00    +0.080 N 
ATOM     32  O   UNL     1       5.011  -5.756  22.112  0.00  0.00    +0.041 OA
ATOM     33  O   UNL     1       7.052  -5.773  21.285  0.00  0.00    -0.576 OA
ENDBRANCH   5  31
TORSDOF 5
ENDMDL
MODEL 3
REMARK VINA RESULT:      -6.9      5.461      8.960
REMARK  Name = 
REMARK  5 active torsions:
REMARK  status: ('A' for Active; 'I' for Inactive)
REMARK    1  A    between atoms: O_1  and  C_2
REMARK    2  A    between atoms: C_5  and  C_8
REMARK    3  A    between atoms: C_8  and  C_25
REMARK    4  A    between atoms: C_17  and  N_22
REMARK    5  A    between atoms: C_28  and  O_29
REMARK                            x       y       z     vdW  Elec       q    Type
REMARK                         _______ _______ _______ _____ _____    ______ ____
ROOT
ATOM      1  C   UNL     1       6.946  -3.452  25.411  0.00  0.00    +0.189 C 
ATOM      2  C   UNL     1       5.669  -2.977  26.145  0.00  0.00    +0.014 A 
ATOM      3  C   UNL     1       5.227  -3.629  27.316  0.00  0.00    +0.010 A 
ATOM      4  C   UNL     1       4.042  -3.201  27.986  0.00  0.00    +0.060 A 
ATOM      5  C   UNL     1       3.313  -2.132  27.410  0.00  0.00    +0.281 A 
ATOM      6  C   UNL     1       3.757  -1.460  26.273  0.00  0.00    +0.085 A 
ATOM      7  C   UNL     1       3.674  -3.846  29.193  0.00  0.00    +0.015 A 
ATOM      8  C   UNL     1       4.439  -4.876  29.732  0.00  0.00    +0.002 A 
ATOM      9  C   UNL     1       5.582  -5.292  29.069  0.00  0.00    +0.015 A 
ATOM     10  C   UNL     1       5.969  -4.680  27.866  0.00  0.00    +0.067 A 
ATOM     11  C   UNL     1       7.206  -5.160  27.230  0.00  0.00    +0.341 C 
ATOM     12  O   UNL     1       7.840  -6.093  27.706  0.00  0.00    -0.245 OA
ATOM     13  C   UNL     1       4.945  -1.860  25.677  0.00  0.00    +0.015 A 
ATOM     14  O   UNL     1       7.623  -4.532  26.122  0.00  0.00    -0.440 OA
ENDROOT
BRANCH   1  18
ATOM     15  C   UNL     1       6.143  -5.018  21.376  0.00  0.00    +0.117 A 
ATOM     16  C   UNL     1       6.789  -5.814  22.305  0.00  0.00    +0.046 A 
ATOM     17  C   UNL     1       6.997  -5.339  23.605  0.00  0.00    +0.012 A 
ATOM     18  C   UNL     1       6.608  -4.040  23.999  0.00  0.00    +0.005 A 
ATOM     19  C   UNL     1       5.905  -3.283  23.035  0.00  0.00    +0.012 A 
ATOM     20  C   UNL     1       5.674  -3.764  21.737  0.00  0.00    +0.046 A 
BRANCH  15  21
ATOM     21  O   UNL     1       5.988  -5.508  20.115  0.00  0.00    -0.507 OA
ATOM     22  H   UNL     1       6.768  -5.267  19.590  0.00  0.00    +0.292 HD
ENDBRANCH  15  21
ENDBRANCH   1  18
BRANCH   1  23
ATOM     23  C   UNL     1       8.052  -2.368  25.443  0.00  0.00    +0.005 A 
ATOM     24  C   UNL     1       8.893  -2.211  24.312  0.00  0.00    +0.012 A 
ATOM     25  C   UNL     1       9.818  -1.169  24.225  0.00  0.00    +0.046 A 
ATOM     26  C   UNL     1       9.924  -0.262  25.266  0.00  0.00    +0.117 A 
ATOM     27  C   UNL     1       9.137  -0.397  26.403  0.00  0.00    +0.046 A 
ATOM     28  C   UNL     1       8.203  -1.440  26.487  0.00  0.00    +0.012 A 
BRANCH  26  29
ATOM     29  O   UNL     1      10.802   0.769  25.123  0.00  0.00    -0.507 OA
ATOM     30  H   UNL     1      10.363   1.484  24.634  0.00  0.00    +0.292 HD
ENDBRANCH  26  29
ENDBRANCH   1  23
BRANCH   5  31
ATOM     31  N   UNL     1       2.080  -1.645  28.009  0.00  0.00    +0.080 N 
ATOM     32  O   UNL     1       2.181  -0.717  28.821  0.00  0.00    +0.041 OA
ATOM     33  O   UNL     1       1.021  -2.170  27.643  0.00  0.00    -0.576 OA
ENDBRANCH   5  31
TORSDOF 5
ENDMDL
MODEL 4
REMARK VINA RESULT:      -6.5      5.680      8.354
REMARK  Name = 
REMARK  5 active torsions:
REMARK  status: ('A' for Active; 'I' for Inactive)
REMARK    1  A    between atoms: O_1  and  C_2
REMARK    2  A    between atoms: C_5  and  C_8
REMARK    3  A    between atoms: C_8  and  C_25
REMARK    4  A    between atoms: C_17  and  N_22
REMARK    5  A    between atoms: C_28  and  O_29
REMARK                            x       y       z     vdW  Elec       q    Type
REMARK                         _______ _______ _______ _____ _____    ______ ____
ROOT
ATOM      1  C   UNL     1       4.814  -3.552  25.900  0.00  0.00    +0.189 C 
ATOM      2  C   UNL     1       6.011  -2.988  25.098  0.00  0.00    +0.014 A 
ATOM      3  C   UNL     1       7.285  -3.589  25.186  0.00  0.00    +0.010 A 
ATOM      4  C   UNL     1       8.394  -3.062  24.458  0.00  0.00    +0.060 A 
ATOM      5  C   UNL     1       8.172  -1.897  23.684  0.00  0.00    +0.281 A 
ATOM      6  C   UNL     1       6.913  -1.313  23.564  0.00  0.00    +0.085 A 
ATOM      7  C   UNL     1       9.637  -3.738  24.529  0.00  0.00    +0.015 A 
ATOM      8  C   UNL     1       9.794  -4.896  25.285  0.00  0.00    +0.002 A 
ATOM      9  C   UNL     1       8.715  -5.395  25.997  0.00  0.00    +0.015 A 
ATOM     10  C   UNL     1       7.473  -4.743  25.956  0.00  0.00    +0.067 A 
ATOM     11  C   UNL     1       6.368  -5.343  26.720  0.00  0.00    +0.341 C 
ATOM     12  O   UNL     1       6.545  -6.341  27.407  0.00  0.00    -0.245 OA
ATOM     13  C   UNL     1       5.841  -1.884  24.236  0.00  0.00    +0.015 A 
ATOM     14  O   UNL     1       5.161  -4.770  26.627  0.00  0.00    -0.440 OA
ENDROOT
BRANCH   1  18
ATOM     15  C   UNL     1       3.644  -0.701  29.043  0.00  0.00    +0.117 A 
ATOM     16  C   UNL     1       3.811  -0.259  27.743  0.00  0.00    +0.046 A 
ATOM     17  C   UNL     1       4.130  -1.172  26.731  0.00  0.00    +0.012 A 
ATOM     18  C   UNL     1       4.336  -2.543  26.998  0.00  0.00    +0.005 A 
ATOM     19  C   UNL     1       4.103  -2.959  28.329  0.00  0.00    +0.012 A 
ATOM     20  C   UNL     1       3.761  -2.050  29.342  0.00  0.00    +0.046 A 
BRANCH  15  21
ATOM     21  O   UNL     1       3.363   0.226  30.000  0.00  0.00    -0.507 OA
ATOM     22  H   UNL     1       3.030  -0.233  30.788  0.00  0.00    +0.292 HD
ENDBRANCH  15  21
ENDBRANCH   1  18
BRANCH   1  23
ATOM     23  C   UNL     1       3.711  -4.099  24.959  0.00  0.00    +0.005 A 
ATOM     24  C   UNL     1       4.078  -4.980  23.911  0.00  0.00    +0.012 A 
ATOM     25  C   UNL     1       3.119  -5.610  23.115  0.00  0.00    +0.046 A 
ATOM     26  C   UNL     1       1.775  -5.372  23.348  0.00  0.00    +0.117 A 
ATOM     27  C   UNL     1       1.376  -4.495  24.347  0.00  0.00    +0.046 A 
ATOM     28  C   UNL     1       2.339  -3.867  25.152  0.00  0.00    +0.012 A 
BRANCH  26  29
ATOM     29  O   UNL     1       0.869  -6.044  22.583  0.00  0.00    -0.507 OA
ATOM     30  H   UNL     1       0.363  -5.397  22.064  0.00  0.00    +0.292 HD
ENDBRANCH  26  29
ENDBRANCH   1  23
BRANCH   5  31
ATOM     31  N   UNL     1       9.248  -1.273  22.929  0.00  0.00    +0.080 N 
ATOM     32  O   UNL     1       9.360  -1.600  21.740  0.00  0.00    +0.041 OA
ATOM     33  O   UNL     1       9.953  -0.443  23.517  0.00  0.00    -0.576 OA
ENDBRANCH   5  31
TORSDOF 5
ENDMDL
MODEL 5
REMARK VINA RESULT:      -6.3      2.156      5.997
REMARK  Name = 
REMARK  5 active torsions:
REMARK  status: ('A' for Active; 'I' for Inactive)
REMARK    1  A    between atoms: O_1  and  C_2
REMARK    2  A    between atoms: C_5  and  C_8
REMARK    3  A    between atoms: C_8  and  C_25
REMARK    4  A    between atoms: C_17  and  N_22
REMARK    5  A    between atoms: C_28  and  O_29
REMARK                            x       y       z     vdW  Elec       q    Type
REMARK                         _______ _______ _______ _____ _____    ______ ____
ROOT
ATOM      1  C   UNL     1       8.230   2.592  24.494  0.00  0.00    +0.189 C 
ATOM      2  C   UNL     1       6.888   3.020  23.854  0.00  0.00    +0.014 A 
ATOM      3  C   UNL     1       5.808   3.439  24.660  0.00  0.00    +0.010 A 
ATOM      4  C   UNL     1       4.564   3.820  24.072  0.00  0.00    +0.060 A 
ATOM      5  C   UNL     1       4.448   3.722  22.664  0.00  0.00    +0.281 A 
ATOM      6  C   UNL     1       5.517   3.340  21.856  0.00  0.00    +0.085 A 
ATOM      7  C   UNL     1       3.531   4.295  24.918  0.00  0.00    +0.015 A 
ATOM      8  C   UNL     1       3.705   4.397  26.294  0.00  0.00    +0.002 A 
ATOM      9  C   UNL     1       4.912   4.014  26.857  0.00  0.00    +0.015 A 
ATOM     10  C   UNL     1       5.953   3.531  26.048  0.00  0.00    +0.067 A 
ATOM     11  C   UNL     1       7.212   3.164  26.714  0.00  0.00    +0.341 C 
ATOM     12  O   UNL     1       7.325   3.228  27.931  0.00  0.00    -0.245 OA
ATOM     13  C   UNL     1       6.733   3.033  22.452  0.00  0.00    +0.015 A 
ATOM     14  O   UNL     1       8.235   2.773  25.942  0.00  0.00    -0.440 OA
ENDROOT
BRANCH   1  18
ATOM     15  C   UNL     1       9.174  -1.649  23.787  0.00  0.00    +0.117 A 
ATOM     16  C   UNL     1       9.408  -1.092  25.032  0.00  0.00    +0.046 A 
ATOM     17  C   UNL     1       9.060   0.241  25.276  0.00  0.00    +0.012 A 
ATOM     18  C   UNL     1       8.509   1.067  24.271  0.00  0.00    +0.005 A 
ATOM     19  C   UNL     1       8.237   0.441  23.033  0.00  0.00    +0.012 A 
ATOM     20  C   UNL     1       8.565  -0.901  22.792  0.00  0.00    +0.046 A 
BRANCH  15  21
ATOM     21  O   UNL     1       9.555  -2.941  23.586  0.00  0.00    -0.507 OA
ATOM     22  H   UNL     1      10.314  -3.133  24.160  0.00  0.00    +0.292 HD
ENDBRANCH  15  21
ENDBRANCH   1  18
BRANCH   1  23
ATOM     23  C   UNL     1       9.379   3.553  24.094  0.00  0.00    +0.005 A 
ATOM     24  C   UNL     1       9.268   4.928  24.420  0.00  0.00    +0.012 A 
ATOM     25  C   UNL     1      10.321   5.819  24.208  0.00  0.00    +0.046 A 
ATOM     26  C   UNL     1      11.508   5.355  23.664  0.00  0.00    +0.117 A 
ATOM     27  C   UNL     1      11.647   4.021  23.306  0.00  0.00    +0.046 A 
ATOM     28  C   UNL     1      10.590   3.124  23.525  0.00  0.00    +0.012 A 
BRANCH  26  29
ATOM     29  O   UNL     1      12.530   6.244  23.519  0.00  0.00    -0.507 OA
ATOM     30  H   UNL     1      13.144   5.902  22.849  0.00  0.00    +0.292 HD
ENDBRANCH  26  29
ENDBRANCH   1  23
BRANCH   5  31
ATOM     31  N   UNL     1       3.211   4.065  21.980  0.00  0.00    +0.080 N 
ATOM     32  O   UNL     1       3.040   5.258  21.697  0.00  0.00    +0.041 OA
ATOM     33  O   UNL     1       2.436   3.141  21.703  0.00  0.00    -0.576 OA
ENDBRANCH   5  31
TORSDOF 5
ENDMDL
MODEL 6
REMARK VINA RESULT:      -6.3      6.271      9.324
REMARK  Name = 
REMARK  5 active torsions:
REMARK  status: ('A' for Active; 'I' for Inactive)
REMARK    1  A    between atoms: O_1  and  C_2
REMARK    2  A    between atoms: C_5  and  C_8
REMARK    3  A    between atoms: C_8  and  C_25
REMARK    4  A    between atoms: C_17  and  N_22
REMARK    5  A    between atoms: C_28  and  O_29
REMARK                            x       y       z     vdW  Elec       q    Type
REMARK                         _______ _______ _______ _____ _____    ______ ____
ROOT
ATOM      1  C   UNL     1       4.545  -4.496  25.666  0.00  0.00    +0.189 C 
ATOM      2  C   UNL     1       5.635  -3.779  24.835  0.00  0.00    +0.014 A 
ATOM      3  C   UNL     1       7.004  -3.979  25.117  0.00  0.00    +0.010 A 
ATOM      4  C   UNL     1       8.011  -3.307  24.361  0.00  0.00    +0.060 A 
ATOM      5  C   UNL     1       7.582  -2.408  23.354  0.00  0.00    +0.281 A 
ATOM      6  C   UNL     1       6.236  -2.226  23.045  0.00  0.00    +0.085 A 
ATOM      7  C   UNL     1       9.371  -3.589  24.639  0.00  0.00    +0.015 A 
ATOM      8  C   UNL     1       9.739  -4.502  25.623  0.00  0.00    +0.002 A 
ATOM      9  C   UNL     1       8.755  -5.142  26.359  0.00  0.00    +0.015 A 
ATOM     10  C   UNL     1       7.398  -4.877  26.115  0.00  0.00    +0.067 A 
ATOM     11  C   UNL     1       6.410  -5.610  26.922  0.00  0.00    +0.341 C 
ATOM     12  O   UNL     1       6.763  -6.379  27.806  0.00  0.00    -0.245 OA
ATOM     13  C   UNL     1       5.281  -2.939  23.758  0.00  0.00    +0.015 A 
ATOM     14  O   UNL     1       5.113  -5.419  26.644  0.00  0.00    -0.440 OA
ENDROOT
BRANCH   1  18
ATOM     15  C   UNL     1       2.126  -1.771  28.136  0.00  0.00    +0.117 A 
ATOM     16  C   UNL     1       3.492  -1.853  28.340  0.00  0.00    +0.046 A 
ATOM     17  C   UNL     1       4.272  -2.677  27.521  0.00  0.00    +0.012 A 
ATOM     18  C   UNL     1       3.703  -3.477  26.506  0.00  0.00    +0.005 A 
ATOM     19  C   UNL     1       2.314  -3.321  26.298  0.00  0.00    +0.012 A 
ATOM     20  C   UNL     1       1.532  -2.479  27.102  0.00  0.00    +0.046 A 
BRANCH  15  21
ATOM     21  O   UNL     1       1.403  -0.979  28.974  0.00  0.00    -0.507 OA
ATOM     22  H   UNL     1       1.984  -0.282  29.320  0.00  0.00    +0.292 HD
ENDBRANCH  15  21
ENDBRANCH   1  18
BRANCH   1  23
ATOM     23  C   UNL     1       3.732  -5.487  24.795  0.00  0.00    +0.005 A 
ATOM     24  C   UNL     1       3.545  -6.814  25.257  0.00  0.00    +0.012 A 
ATOM     25  C   UNL     1       2.714  -7.713  24.587  0.00  0.00    +0.046 A 
ATOM     26  C   UNL     1       2.054  -7.307  23.440  0.00  0.00    +0.117 A 
ATOM     27  C   UNL     1       2.231  -6.024  22.939  0.00  0.00    +0.046 A 
ATOM     28  C   UNL     1       3.061  -5.118  23.616  0.00  0.00    +0.012 A 
BRANCH  26  29
ATOM     29  O   UNL     1       1.213  -8.197  22.842  0.00  0.00    -0.507 OA
ATOM     30  H   UNL     1       0.325  -7.807  22.805  0.00  0.00    +0.292 HD
ENDBRANCH  26  29
ENDBRANCH   1  23
BRANCH   5  31
ATOM     31  N   UNL     1       8.536  -1.659  22.550  0.00  0.00    +0.080 N 
ATOM     32  O   UNL     1       8.813  -0.515  22.932  0.00  0.00    +0.041 OA
ATOM     33  O   UNL     1       9.023  -2.228  21.564  0.00  0.00    -0.576 OA
ENDBRANCH   5  31
TORSDOF 5
ENDMDL
MODEL 7
REMARK VINA RESULT:      -6.2      1.113      1.711
REMARK  Name = 
REMARK  5 active torsions:
REMARK  status: ('A' for Active; 'I' for Inactive)
REMARK    1  A    between atoms: O_1  and  C_2
REMARK    2  A    between atoms: C_5  and  C_8
REMARK    3  A    between atoms: C_8  and  C_25
REMARK    4  A    between atoms: C_17  and  N_22
REMARK    5  A    between atoms: C_28  and  O_29
REMARK                            x       y       z     vdW  Elec       q    Type
REMARK                         _______ _______ _______ _____ _____    ______ ____
ROOT
ATOM      1  C   UNL     1       7.175   3.074  24.860  0.00  0.00    +0.189 C 
ATOM      2  C   UNL     1       7.716   1.797  24.176  0.00  0.00    +0.014 A 
ATOM      3  C   UNL     1       7.940   0.619  24.922  0.00  0.00    +0.010 A 
ATOM      4  C   UNL     1       8.452  -0.556  24.295  0.00  0.00    +0.060 A 
ATOM      5  C   UNL     1       8.762  -0.479  22.915  0.00  0.00    +0.281 A 
ATOM      6  C   UNL     1       8.517   0.667  22.161  0.00  0.00    +0.085 A 
ATOM      7  C   UNL     1       8.599  -1.731  25.072  0.00  0.00    +0.015 A 
ATOM      8  C   UNL     1       8.254  -1.761  26.420  0.00  0.00    +0.002 A 
ATOM      9  C   UNL     1       7.768  -0.612  27.023  0.00  0.00    +0.015 A 
ATOM     10  C   UNL     1       7.620   0.572  26.283  0.00  0.00    +0.067 A 
ATOM     11  C   UNL     1       7.077   1.745  26.985  0.00  0.00    +0.341 C 
ATOM     12  O   UNL     1       6.817   1.700  28.181  0.00  0.00    -0.245 OA
ATOM     13  C   UNL     1       7.961   1.775  22.786  0.00  0.00    +0.015 A 
ATOM     14  O   UNL     1       6.862   2.857  26.269  0.00  0.00    -0.440 OA
ENDROOT
BRANCH   1  18
ATOM     15  C   UNL     1      10.267   6.207  24.961  0.00  0.00    +0.117 A 
ATOM     16  C   UNL     1      10.280   5.262  23.951  0.00  0.00    +0.046 A 
ATOM     17  C   UNL     1       9.268   4.297  23.885  0.00  0.00    +0.012 A 
ATOM     18  C   UNL     1       8.241   4.222  24.851  0.00  0.00    +0.005 A 
ATOM     19  C   UNL     1       8.237   5.239  25.833  0.00  0.00    +0.012 A 
ATOM     20  C   UNL     1       9.237   6.221  25.890  0.00  0.00    +0.046 A 
BRANCH  15  21
ATOM     21  O   UNL     1      11.287   7.107  25.004  0.00  0.00    -0.507 OA
ATOM     22  H   UNL     1      11.337   7.560  24.147  0.00  0.00    +0.292 HD
ENDBRANCH  15  21
ENDBRANCH   1  18
BRANCH   1  23
ATOM     23  C   UNL     1       5.772   3.452  24.322  0.00  0.00    +0.005 A 
ATOM     24  C   UNL     1       5.665   4.465  23.336  0.00  0.00    +0.012 A 
ATOM     25  C   UNL     1       4.448   4.758  22.717  0.00  0.00    +0.046 A 
ATOM     26  C   UNL     1       3.313   4.048  23.071  0.00  0.00    +0.117 A 
ATOM     27  C   UNL     1       3.372   3.067  24.052  0.00  0.00    +0.046 A 
ATOM     28  C   UNL     1       4.595   2.768  24.670  0.00  0.00    +0.012 A 
BRANCH  26  29
ATOM     29  O   UNL     1       2.156   4.329  22.409  0.00  0.00    -0.507 OA
ATOM     30  H   UNL     1       1.447   4.446  23.062  0.00  0.00    +0.292 HD
ENDBRANCH  26  29
ENDBRANCH   1  23
BRANCH   5  31
ATOM     31  N   UNL     1       9.313  -1.619  22.197  0.00  0.00    +0.080 N 
ATOM     32  O   UNL     1      10.546  -1.697  22.133  0.00  0.00    +0.041 OA
ATOM     33  O   UNL     1       8.513  -2.441  21.731  0.00  0.00    -0.576 OA
ENDBRANCH   5  31
TORSDOF 5
ENDMDL
MODEL 8
REMARK VINA RESULT:      -6.1      2.411      6.075
REMARK  Name = 
REMARK  5 active torsions:
REMARK  status: ('A' for Active; 'I' for Inactive)
REMARK    1  A    between atoms: O_1  and  C_2
REMARK    2  A    between atoms: C_5  and  C_8
REMARK    3  A    between atoms: C_8  and  C_25
REMARK    4  A    between atoms: C_17  and  N_22
REMARK    5  A    between atoms: C_28  and  O_29
REMARK                            x       y       z     vdW  Elec       q    Type
REMARK                         _______ _______ _______ _____ _____    ______ ____
ROOT
ATOM      1  C   UNL     1       7.858   1.972  24.728  0.00  0.00    +0.189 C 
ATOM      2  C   UNL     1       6.472   2.437  24.222  0.00  0.00    +0.014 A 
ATOM      3  C   UNL     1       5.427   2.709  25.131  0.00  0.00    +0.010 A 
ATOM      4  C   UNL     1       4.144   3.124  24.665  0.00  0.00    +0.060 A 
ATOM      5  C   UNL     1       3.954   3.212  23.264  0.00  0.00    +0.281 A 
ATOM      6  C   UNL     1       4.986   2.978  22.358  0.00  0.00    +0.085 A 
ATOM      7  C   UNL     1       3.147   3.447  25.619  0.00  0.00    +0.015 A 
ATOM      8  C   UNL     1       3.394   3.369  26.986  0.00  0.00    +0.002 A 
ATOM      9  C   UNL     1       4.639   2.954  27.429  0.00  0.00    +0.015 A 
ATOM     10  C   UNL     1       5.646   2.618  26.510  0.00  0.00    +0.067 A 
ATOM     11  C   UNL     1       6.950   2.206  27.055  0.00  0.00    +0.341 C 
ATOM     12  O   UNL     1       7.127   2.111  28.262  0.00  0.00    -0.245 OA
ATOM     13  C   UNL     1       6.240   2.633  22.844  0.00  0.00    +0.015 A 
ATOM     14  O   UNL     1       7.938   1.956  26.186  0.00  0.00    -0.440 OA
ENDROOT
BRANCH   1  18
ATOM     15  C   UNL     1       8.570  -2.220  23.586  0.00  0.00    +0.117 A 
ATOM     16  C   UNL     1       7.911  -1.373  22.713  0.00  0.00    +0.046 A 
ATOM     17  C   UNL     1       7.730  -0.027  23.050  0.00  0.00    +0.012 A 
ATOM     18  C   UNL     1       8.163   0.500  24.286  0.00  0.00    +0.005 A 
ATOM     19  C   UNL     1       8.879  -0.387  25.123  0.00  0.00    +0.012 A 
ATOM     20  C   UNL     1       9.081  -1.732  24.779  0.00  0.00    +0.046 A 
BRANCH  15  21
ATOM     21  O   UNL     1       8.697  -3.528  23.231  0.00  0.00    -0.507 OA
ATOM     22  H   UNL     1       9.204  -3.988  23.920  0.00  0.00    +0.292 HD
ENDBRANCH  15  21
ENDBRANCH   1  18
BRANCH   1  23
ATOM     23  C   UNL     1       8.958   3.015  24.405  0.00  0.00    +0.005 A 
ATOM     24  C   UNL     1      10.132   2.589  23.735  0.00  0.00    +0.012 A 
ATOM     25  C   UNL     1      11.097   3.499  23.298  0.00  0.00    +0.046 A 
ATOM     26  C   UNL     1      10.910   4.852  23.522  0.00  0.00    +0.117 A 
ATOM     27  C   UNL     1       9.785   5.307  24.198  0.00  0.00    +0.046 A 
ATOM     28  C   UNL     1       8.813   4.394  24.632  0.00  0.00    +0.012 A 
BRANCH  26  29
ATOM     29  O   UNL     1      11.848   5.712  23.036  0.00  0.00    -0.507 OA
ATOM     30  H   UNL     1      11.922   5.580  22.077  0.00  0.00    +0.292 HD
ENDBRANCH  26  29
ENDBRANCH   1  23
BRANCH   5  31
ATOM     31  N   UNL     1       2.672   3.603  22.697  0.00  0.00    +0.080 N 
ATOM     32  O   UNL     1       2.539   4.792  22.381  0.00  0.00    +0.041 OA
ATOM     33  O   UNL     1       1.821   2.717  22.542  0.00  0.00    -0.576 OA
ENDBRANCH   5  31
TORSDOF 5
ENDMDL
MODEL 9
REMARK VINA RESULT:      -6.0      6.394      9.365
REMARK  Name = 
REMARK  5 active torsions:
REMARK  status: ('A' for Active; 'I' for Inactive)
REMARK    1  A    between atoms: O_1  and  C_2
REMARK    2  A    between atoms: C_5  and  C_8
REMARK    3  A    between atoms: C_8  and  C_25
REMARK    4  A    between atoms: C_17  and  N_22
REMARK    5  A    between atoms: C_28  and  O_29
REMARK                            x       y       z     vdW  Elec       q    Type
REMARK                         _______ _______ _______ _____ _____    ______ ____
ROOT
ATOM      1  C   UNL     1       5.001  -4.148  26.224  0.00  0.00    +0.189 C 
ATOM      2  C   UNL     1       3.992  -4.881  25.310  0.00  0.00    +0.014 A 
ATOM      3  C   UNL     1       3.099  -5.837  25.841  0.00  0.00    +0.010 A 
ATOM      4  C   UNL     1       2.177  -6.525  24.997  0.00  0.00    +0.060 A 
ATOM      5  C   UNL     1       2.223  -6.240  23.610  0.00  0.00    +0.281 A 
ATOM      6  C   UNL     1       3.077  -5.276  23.077  0.00  0.00    +0.085 A 
ATOM      7  C   UNL     1       1.259  -7.428  25.587  0.00  0.00    +0.015 A 
ATOM      8  C   UNL     1       1.238  -7.652  26.960  0.00  0.00    +0.002 A 
ATOM      9  C   UNL     1       2.144  -6.988  27.771  0.00  0.00    +0.015 A 
ATOM     10  C   UNL     1       3.074  -6.094  27.217  0.00  0.00    +0.067 A 
ATOM     11  C   UNL     1       3.990  -5.410  28.142  0.00  0.00    +0.341 C 
ATOM     12  O   UNL     1       3.974  -5.655  29.342  0.00  0.00    -0.245 OA
ATOM     13  C   UNL     1       3.921  -4.580  23.933  0.00  0.00    +0.015 A 
ATOM     14  O   UNL     1       4.829  -4.500  27.631  0.00  0.00    -0.440 OA
ENDROOT
BRANCH   1  18
ATOM     15  C   UNL     1       9.181  -5.088  25.213  0.00  0.00    +0.117 A 
ATOM     16  C   UNL     1       8.822  -4.893  26.535  0.00  0.00    +0.046 A 
ATOM     17  C   UNL     1       7.484  -4.647  26.865  0.00  0.00    +0.012 A 
ATOM     18  C   UNL     1       6.477  -4.545  25.881  0.00  0.00    +0.005 A 
ATOM     19  C   UNL     1       6.879  -4.804  24.551  0.00  0.00    +0.012 A 
ATOM     20  C   UNL     1       8.216  -5.072  24.218  0.00  0.00    +0.046 A 
BRANCH  15  21
ATOM     21  O   UNL     1      10.498  -5.295  24.935  0.00  0.00    -0.507 OA
ATOM     22  H   UNL     1      10.898  -4.446  24.684  0.00  0.00    +0.292 HD
ENDBRANCH  15  21
ENDBRANCH   1  18
BRANCH   1  23
ATOM     23  C   UNL     1       4.708  -2.627  26.285  0.00  0.00    +0.005 A 
ATOM     24  C   UNL     1       3.587  -2.173  27.023  0.00  0.00    +0.012 A 
ATOM     25  C   UNL     1       3.345  -0.814  27.227  0.00  0.00    +0.046 A 
ATOM     26  C   UNL     1       4.218   0.122  26.695  0.00  0.00    +0.117 A 
ATOM     27  C   UNL     1       5.313  -0.282  25.943  0.00  0.00    +0.046 A 
ATOM     28  C   UNL     1       5.559  -1.649  25.744  0.00  0.00    +0.012 A 
BRANCH  26  29
ATOM     29  O   UNL     1       3.977   1.437  26.958  0.00  0.00    -0.507 OA
ATOM     30  H   UNL     1       4.481   1.975  26.327  0.00  0.00    +0.292 HD
ENDBRANCH  26  29
ENDBRANCH   1  23
BRANCH   5  31
ATOM     31  N   UNL     1       1.339  -6.911  22.669  0.00  0.00    +0.080 N 
ATOM     32  O   UNL     1       0.445  -6.225  22.155  0.00  0.00    +0.041 OA
ATOM     33  O   UNL     1       1.560  -8.104  22.428  0.00  0.00    -0.576 OA
ENDBRANCH   5  31
TORSDOF 5
ENDMDL
