MODEL 1
REMARK VINA RESULT:      -6.0      0.000      0.000
REMARK  Name = 
REMARK  2 active torsions:
REMARK  status: ('A' for Active; 'I' for Inactive)
REMARK    1  A    between atoms: C_2  and  C_9
REMARK    2  A    between atoms: N_3  and  C_4
REMARK                            x       y       z     vdW  Elec       q    Type
REMARK                         _______ _______ _______ _____ _____    ______ ____
ROOT
ATOM      1  O   UNL     1      10.283  -2.652  22.573  0.00  0.00    -0.265 OA
ATOM      2  C   UNL     1       9.916  -2.314  23.690  0.00  0.00    +0.300 C 
ATOM      3  N   UNL     1       9.943  -1.043  24.216  0.00  0.00    -0.305 N 
ATOM      4  H   UNL     1       9.699  -0.965  25.201  0.00  0.00    +0.149 HD
ENDROOT
BRANCH   2   5
ATOM      5  C   UNL     1       9.372  -3.372  24.669  0.00  0.00    +0.305 C 
ATOM      6  N   UNL     1       8.300  -2.912  25.385  0.00  0.00    -0.257 N 
ATOM      7  H   UNL     1       7.942  -1.984  25.183  0.00  0.00    +0.157 HD
ATOM      8  C   UNL     1       7.630  -3.709  26.262  0.00  0.00    +0.165 A 
ATOM      9  S   UNL     1       6.143  -3.079  26.815  0.00  0.00    -0.061 S 
ATOM     10  C   UNL     1       5.866  -4.545  27.666  0.00  0.00    +0.068 A 
ATOM     11  C   UNL     1       6.960  -5.372  27.522  0.00  0.00    +0.120 A 
ATOM     12  N   UNL     1       7.965  -4.890  26.710  0.00  0.00    -0.233 NA
ATOM     13  O   UNL     1       9.904  -4.475  24.671  0.00  0.00    -0.265 OA
ENDBRANCH   2   5
BRANCH   3  14
ATOM     14  C   UNL     1      10.463   0.093  23.496  0.00  0.00    +0.073 C 
ATOM     15  C   UNL     1      10.692   1.316  24.388  0.00  0.00    +0.022 C 
ATOM     16  C   UNL     1      10.426   2.535  23.501  0.00  0.00    +0.002 C 
ATOM     17  C   UNL     1      10.031   1.989  22.133  0.00  0.00    +0.002 C 
ATOM     18  C   UNL     1       9.504   0.596  22.424  0.00  0.00    +0.022 C 
ENDBRANCH   3  14
TORSDOF 2
ENDMDL
MODEL 2
REMARK VINA RESULT:      -5.9      2.127      2.183
REMARK  Name = 
REMARK  2 active torsions:
REMARK  status: ('A' for Active; 'I' for Inactive)
REMARK    1  A    between atoms: C_2  and  C_9
REMARK    2  A    between atoms: N_3  and  C_4
REMARK                            x       y       z     vdW  Elec       q    Type
REMARK                         _______ _______ _______ _____ _____    ______ ____
ROOT
ATOM      1  O   UNL     1      10.199  -2.967  23.834  0.00  0.00    -0.265 OA
ATOM      2  C   UNL     1       9.138  -2.609  23.340  0.00  0.00    +0.300 C 
ATOM      3  N   UNL     1       8.853  -1.372  22.810  0.00  0.00    -0.305 N 
ATOM      4  H   UNL     1       7.884  -1.217  22.541  0.00  0.00    +0.149 HD
ENDROOT
BRANCH   2   5
ATOM      5  C   UNL     1       7.949  -3.587  23.292  0.00  0.00    +0.305 C 
ATOM      6  N   UNL     1       7.748  -4.217  24.491  0.00  0.00    -0.257 N 
ATOM      7  H   UNL     1       8.334  -3.961  25.279  0.00  0.00    +0.157 HD
ATOM      8  C   UNL     1       6.710  -5.076  24.682  0.00  0.00    +0.165 A 
ATOM      9  S   UNL     1       6.428  -5.512  26.308  0.00  0.00    -0.061 S 
ATOM     10  C   UNL     1       5.041  -6.392  25.807  0.00  0.00    +0.068 A 
ATOM     11  C   UNL     1       4.941  -6.347  24.432  0.00  0.00    +0.120 A 
ATOM     12  N   UNL     1       5.897  -5.584  23.794  0.00  0.00    -0.233 NA
ATOM     13  O   UNL     1       7.311  -3.659  22.248  0.00  0.00    -0.265 OA
ENDBRANCH   2   5
BRANCH   3  14
ATOM     14  C   UNL     1       9.801  -0.286  22.800  0.00  0.00    +0.073 C 
ATOM     15  C   UNL     1       9.823   0.505  24.111  0.00  0.00    +0.022 C 
ATOM     16  C   UNL     1      10.153   1.948  23.722  0.00  0.00    +0.002 C 
ATOM     17  C   UNL     1      10.291   1.961  22.204  0.00  0.00    +0.002 C 
ATOM     18  C   UNL     1       9.477   0.765  21.744  0.00  0.00    +0.022 C 
ENDBRANCH   3  14
TORSDOF 2
ENDMDL
MODEL 3
REMARK VINA RESULT:      -5.9      2.420      3.019
REMARK  Name = 
REMARK  2 active torsions:
REMARK  status: ('A' for Active; 'I' for Inactive)
REMARK    1  A    between atoms: C_2  and  C_9
REMARK    2  A    between atoms: N_3  and  C_4
REMARK                            x       y       z     vdW  Elec       q    Type
REMARK                         _______ _______ _______ _____ _____    ______ ____
ROOT
ATOM      1  O   UNL     1      10.236  -4.790  24.852  0.00  0.00    -0.265 OA
ATOM      2  C   UNL     1       9.087  -4.375  24.773  0.00  0.00    +0.300 C 
ATOM      3  N   UNL     1       8.665  -3.237  24.126  0.00  0.00    -0.305 N 
ATOM      4  H   UNL     1       7.686  -2.990  24.257  0.00  0.00    +0.149 HD
ENDROOT
BRANCH   2   5
ATOM      5  C   UNL     1       7.947  -5.148  25.464  0.00  0.00    +0.305 C 
ATOM      6  N   UNL     1       6.816  -5.197  24.694  0.00  0.00    -0.257 N 
ATOM      7  H   UNL     1       6.841  -4.789  23.765  0.00  0.00    +0.157 HD
ATOM      8  C   UNL     1       5.710  -5.884  25.090  0.00  0.00    +0.165 A 
ATOM      9  S   UNL     1       4.527  -6.104  23.879  0.00  0.00    -0.061 S 
ATOM     10  C   UNL     1       3.618  -7.066  24.975  0.00  0.00    +0.068 A 
ATOM     11  C   UNL     1       4.250  -7.084  26.201  0.00  0.00    +0.120 A 
ATOM     12  N   UNL     1       5.453  -6.412  26.258  0.00  0.00    -0.233 NA
ATOM     13  O   UNL     1       8.177  -5.651  26.556  0.00  0.00    -0.265 OA
ENDBRANCH   2   5
BRANCH   3  14
ATOM     14  C   UNL     1       9.569  -2.333  23.459  0.00  0.00    +0.073 C 
ATOM     15  C   UNL     1       9.874  -1.075  24.278  0.00  0.00    +0.022 C 
ATOM     16  C   UNL     1      10.085   0.046  23.257  0.00  0.00    +0.002 C 
ATOM     17  C   UNL     1       9.876  -0.583  21.883  0.00  0.00    +0.002 C 
ATOM     18  C   UNL     1       8.998  -1.791  22.154  0.00  0.00    +0.022 C 
ENDBRANCH   3  14
TORSDOF 2
ENDMDL
MODEL 4
REMARK VINA RESULT:      -5.8      2.866      6.466
REMARK  Name = 
REMARK  2 active torsions:
REMARK  status: ('A' for Active; 'I' for Inactive)
REMARK    1  A    between atoms: C_2  and  C_9
REMARK    2  A    between atoms: N_3  and  C_4
REMARK                            x       y       z     vdW  Elec       q    Type
REMARK                         _______ _______ _______ _____ _____    ______ ____
ROOT
ATOM      1  O   UNL     1       9.879  -3.767  24.404  0.00  0.00    -0.265 OA
ATOM      2  C   UNL     1       9.211  -3.097  23.628  0.00  0.00    +0.300 C 
ATOM      3  N   UNL     1       8.007  -3.449  23.062  0.00  0.00    -0.305 N 
ATOM      4  H   UNL     1       7.647  -2.812  22.355  0.00  0.00    +0.149 HD
ENDROOT
BRANCH   2   5
ATOM      5  C   UNL     1       9.719  -1.713  23.180  0.00  0.00    +0.305 C 
ATOM      6  N   UNL     1       9.062  -0.692  23.813  0.00  0.00    -0.257 N 
ATOM      7  H   UNL     1       8.373  -0.921  24.521  0.00  0.00    +0.157 HD
ATOM      8  C   UNL     1       9.400   0.611  23.607  0.00  0.00    +0.165 A 
ATOM      9  S   UNL     1       8.704   1.716  24.707  0.00  0.00    -0.061 S 
ATOM     10  C   UNL     1       9.609   2.978  23.974  0.00  0.00    +0.068 A 
ATOM     11  C   UNL     1      10.315   2.474  22.902  0.00  0.00    +0.120 A 
ATOM     12  N   UNL     1      10.197   1.114  22.702  0.00  0.00    -0.233 NA
ATOM     13  O   UNL     1      10.643  -1.676  22.377  0.00  0.00    -0.265 OA
ENDBRANCH   2   5
BRANCH   3  14
ATOM     14  C   UNL     1       7.372  -4.721  23.297  0.00  0.00    +0.073 C 
ATOM     15  C   UNL     1       7.194  -5.549  22.021  0.00  0.00    +0.022 C 
ATOM     16  C   UNL     1       5.905  -6.349  22.220  0.00  0.00    +0.002 C 
ATOM     17  C   UNL     1       5.361  -5.951  23.589  0.00  0.00    +0.002 C 
ATOM     18  C   UNL     1       5.956  -4.578  23.842  0.00  0.00    +0.022 C 
ENDBRANCH   3  14
TORSDOF 2
ENDMDL
MODEL 5
REMARK VINA RESULT:      -5.8      1.785      2.601
REMARK  Name = 
REMARK  2 active torsions:
REMARK  status: ('A' for Active; 'I' for Inactive)
REMARK    1  A    between atoms: C_2  and  C_9
REMARK    2  A    between atoms: N_3  and  C_4
REMARK                            x       y       z     vdW  Elec       q    Type
REMARK                         _______ _______ _______ _____ _____    ______ ____
ROOT
ATOM      1  O   UNL     1       9.322   0.035  21.529  0.00  0.00    -0.265 OA
ATOM      2  C   UNL     1       9.505  -0.168  22.722  0.00  0.00    +0.300 C 
ATOM      3  N   UNL     1       9.517   0.774  23.725  0.00  0.00    -0.305 N 
ATOM      4  H   UNL     1       9.793   0.438  24.645  0.00  0.00    +0.149 HD
ENDROOT
BRANCH   2   5
ATOM      5  C   UNL     1       9.777  -1.600  23.221  0.00  0.00    +0.305 C 
ATOM      6  N   UNL     1       8.984  -1.935  24.286  0.00  0.00    -0.257 N 
ATOM      7  H   UNL     1       8.288  -1.268  24.604  0.00  0.00    +0.157 HD
ATOM      8  C   UNL     1       9.020  -3.177  24.842  0.00  0.00    +0.165 A 
ATOM      9  S   UNL     1       7.752  -3.513  25.934  0.00  0.00    -0.061 S 
ATOM     10  C   UNL     1       8.338  -5.122  26.081  0.00  0.00    +0.068 A 
ATOM     11  C   UNL     1       9.496  -5.257  25.344  0.00  0.00    +0.120 A 
ATOM     12  N   UNL     1       9.877  -4.141  24.629  0.00  0.00    -0.233 NA
ATOM     13  O   UNL     1      10.602  -2.270  22.613  0.00  0.00    -0.265 OA
ENDBRANCH   2   5
BRANCH   3  14
ATOM     14  C   UNL     1       9.340   2.183  23.479  0.00  0.00    +0.073 C 
ATOM     15  C   UNL     1      10.661   2.924  23.249  0.00  0.00    +0.022 C 
ATOM     16  C   UNL     1      10.452   4.333  23.810  0.00  0.00    +0.002 C 
ATOM     17  C   UNL     1       9.032   4.365  24.367  0.00  0.00    +0.002 C 
ATOM     18  C   UNL     1       8.714   2.911  24.664  0.00  0.00    +0.022 C 
ENDBRANCH   3  14
TORSDOF 2
ENDMDL
MODEL 6
REMARK VINA RESULT:      -5.6      2.733      3.213
REMARK  Name = 
REMARK  2 active torsions:
REMARK  status: ('A' for Active; 'I' for Inactive)
REMARK    1  A    between atoms: C_2  and  C_9
REMARK    2  A    between atoms: N_3  and  C_4
REMARK                            x       y       z     vdW  Elec       q    Type
REMARK                         _______ _______ _______ _____ _____    ______ ____
ROOT
ATOM      1  O   UNL     1       9.045  -1.403  26.167  0.00  0.00    -0.265 OA
ATOM      2  C   UNL     1       9.199  -1.542  24.961  0.00  0.00    +0.300 C 
ATOM      3  N   UNL     1       9.573  -0.571  24.061  0.00  0.00    -0.305 N 
ATOM      4  H   UNL     1       9.547  -0.842  23.080  0.00  0.00    +0.149 HD
ENDROOT
BRANCH   2   5
ATOM      5  C   UNL     1       8.946  -2.916  24.311  0.00  0.00    +0.305 C 
ATOM      6  N   UNL     1       7.779  -2.943  23.596  0.00  0.00    -0.257 N 
ATOM      7  H   UNL     1       7.238  -2.089  23.515  0.00  0.00    +0.157 HD
ATOM      8  C   UNL     1       7.398  -4.044  22.891  0.00  0.00    +0.165 A 
ATOM      9  S   UNL     1       6.099  -3.792  21.813  0.00  0.00    -0.061 S 
ATOM     10  C   UNL     1       6.278  -5.408  21.258  0.00  0.00    +0.068 A 
ATOM     11  C   UNL     1       7.265  -6.037  21.988  0.00  0.00    +0.120 A 
ATOM     12  N   UNL     1       7.908  -5.247  22.918  0.00  0.00    -0.233 NA
ATOM     13  O   UNL     1       9.798  -3.784  24.460  0.00  0.00    -0.265 OA
ENDBRANCH   2   5
BRANCH   3  14
ATOM     14  C   UNL     1       9.808   0.800  24.439  0.00  0.00    +0.073 C 
ATOM     15  C   UNL     1       8.516   1.583  24.693  0.00  0.00    +0.022 C 
ATOM     16  C   UNL     1       8.812   3.024  24.269  0.00  0.00    +0.002 C 
ATOM     17  C   UNL     1      10.250   3.034  23.763  0.00  0.00    +0.002 C 
ATOM     18  C   UNL     1      10.510   1.598  23.346  0.00  0.00    +0.022 C 
ENDBRANCH   3  14
TORSDOF 2
ENDMDL
MODEL 7
REMARK VINA RESULT:      -5.4      2.623      6.812
REMARK  Name = 
REMARK  2 active torsions:
REMARK  status: ('A' for Active; 'I' for Inactive)
REMARK    1  A    between atoms: C_2  and  C_9
REMARK    2  A    between atoms: N_3  and  C_4
REMARK                            x       y       z     vdW  Elec       q    Type
REMARK                         _______ _______ _______ _____ _____    ______ ____
ROOT
ATOM      1  O   UNL     1       9.174  -4.700  24.262  0.00  0.00    -0.265 OA
ATOM      2  C   UNL     1       8.243  -3.980  23.929  0.00  0.00    +0.300 C 
ATOM      3  N   UNL     1       6.901  -4.257  24.056  0.00  0.00    -0.305 N 
ATOM      4  H   UNL     1       6.267  -3.586  23.625  0.00  0.00    +0.149 HD
ENDROOT
BRANCH   2   5
ATOM      5  C   UNL     1       8.529  -2.615  23.274  0.00  0.00    +0.305 C 
ATOM      6  N   UNL     1       9.096  -1.730  24.152  0.00  0.00    -0.257 N 
ATOM      7  H   UNL     1       9.316  -2.048  25.090  0.00  0.00    +0.157 HD
ATOM      8  C   UNL     1       9.486  -0.485  23.761  0.00  0.00    +0.165 A 
ATOM      9  S   UNL     1      10.455   0.352  24.889  0.00  0.00    -0.061 S 
ATOM     10  C   UNL     1      10.638   1.625  23.750  0.00  0.00    +0.068 A 
ATOM     11  C   UNL     1       9.887   1.347  22.627  0.00  0.00    +0.120 A 
ATOM     12  N   UNL     1       9.235   0.132  22.636  0.00  0.00    -0.233 NA
ATOM     13  O   UNL     1       8.272  -2.487  22.084  0.00  0.00    -0.265 OA
ENDBRANCH   2   5
BRANCH   3  14
ATOM     14  C   UNL     1       6.404  -5.500  24.591  0.00  0.00    +0.073 C 
ATOM     15  C   UNL     1       5.319  -6.138  23.718  0.00  0.00    +0.022 C 
ATOM     16  C   UNL     1       4.379  -6.862  24.685  0.00  0.00    +0.002 C 
ATOM     17  C   UNL     1       4.928  -6.608  26.086  0.00  0.00    +0.002 C 
ATOM     18  C   UNL     1       5.729  -5.326  25.946  0.00  0.00    +0.022 C 
ENDBRANCH   3  14
TORSDOF 2
ENDMDL
MODEL 8
REMARK VINA RESULT:      -5.2      2.571      7.087
REMARK  Name = 
REMARK  2 active torsions:
REMARK  status: ('A' for Active; 'I' for Inactive)
REMARK    1  A    between atoms: C_2  and  C_9
REMARK    2  A    between atoms: N_3  and  C_4
REMARK                            x       y       z     vdW  Elec       q    Type
REMARK                         _______ _______ _______ _____ _____    ______ ____
ROOT
ATOM      1  O   UNL     1       7.818  -5.762  27.075  0.00  0.00    -0.265 OA
ATOM      2  C   UNL     1       7.481  -5.392  25.958  0.00  0.00    +0.300 C 
ATOM      3  N   UNL     1       6.260  -5.595  25.358  0.00  0.00    -0.305 N 
ATOM      4  H   UNL     1       6.193  -5.311  24.382  0.00  0.00    +0.149 HD
ENDROOT
BRANCH   2   5
ATOM      5  C   UNL     1       8.483  -4.630  25.070  0.00  0.00    +0.305 C 
ATOM      6  N   UNL     1       8.084  -3.344  24.826  0.00  0.00    -0.257 N 
ATOM      7  H   UNL     1       7.237  -3.004  25.270  0.00  0.00    +0.157 HD
ATOM      8  C   UNL     1       8.856  -2.478  24.113  0.00  0.00    +0.165 A 
ATOM      9  S   UNL     1       8.360  -0.847  24.183  0.00  0.00    -0.061 S 
ATOM     10  C   UNL     1       9.745  -0.411  23.266  0.00  0.00    +0.068 A 
ATOM     11  C   UNL     1      10.440  -1.550  22.915  0.00  0.00    +0.120 A 
ATOM     12  N   UNL     1       9.929  -2.731  23.411  0.00  0.00    -0.233 NA
ATOM     13  O   UNL     1       9.504  -5.215  24.729  0.00  0.00    -0.265 OA
ENDBRANCH   2   5
BRANCH   3  14
ATOM     14  C   UNL     1       5.191  -6.331  25.984  0.00  0.00    +0.073 C 
ATOM     15  C   UNL     1       4.305  -7.075  24.980  0.00  0.00    +0.022 C 
ATOM     16  C   UNL     1       2.899  -7.078  25.586  0.00  0.00    +0.002 C 
ATOM     17  C   UNL     1       3.002  -6.321  26.906  0.00  0.00    +0.002 C 
ATOM     18  C   UNL     1       4.217  -5.428  26.732  0.00  0.00    +0.022 C 
ENDBRANCH   3  14
TORSDOF 2
ENDMDL
MODEL 9
REMARK VINA RESULT:      -5.2      2.754      6.292
REMARK  Name = 
REMARK  2 active torsions:
REMARK  status: ('A' for Active; 'I' for Inactive)
REMARK    1  A    between atoms: C_2  and  C_9
REMARK    2  A    between atoms: N_3  and  C_4
REMARK                            x       y       z     vdW  Elec       q    Type
REMARK                         _______ _______ _______ _____ _____    ______ ____
ROOT
ATOM      1  O   UNL     1       8.363  -5.374  23.595  0.00  0.00    -0.265 OA
ATOM      2  C   UNL     1       7.988  -4.273  23.977  0.00  0.00    +0.300 C 
ATOM      3  N   UNL     1       6.717  -3.928  24.372  0.00  0.00    -0.305 N 
ATOM      4  H   UNL     1       6.563  -2.938  24.555  0.00  0.00    +0.149 HD
ENDROOT
BRANCH   2   5
ATOM      5  C   UNL     1       8.987  -3.101  24.026  0.00  0.00    +0.305 C 
ATOM      6  N   UNL     1       8.356  -1.885  24.026  0.00  0.00    -0.257 N 
ATOM      7  H   UNL     1       7.342  -1.862  24.046  0.00  0.00    +0.157 HD
ATOM      8  C   UNL     1       9.052  -0.719  24.129  0.00  0.00    +0.165 A 
ATOM      9  S   UNL     1       8.098   0.663  24.435  0.00  0.00    -0.061 S 
ATOM     10  C   UNL     1       9.534   1.597  24.560  0.00  0.00    +0.068 A 
ATOM     11  C   UNL     1      10.625   0.799  24.286  0.00  0.00    +0.120 A 
ATOM     12  N   UNL     1      10.343  -0.529  24.048  0.00  0.00    -0.233 NA
ATOM     13  O   UNL     1      10.179  -3.368  24.102  0.00  0.00    -0.265 OA
ENDBRANCH   2   5
BRANCH   3  14
ATOM     14  C   UNL     1       5.611  -4.852  24.353  0.00  0.00    +0.073 C 
ATOM     15  C   UNL     1       4.863  -4.868  23.016  0.00  0.00    +0.022 C 
ATOM     16  C   UNL     1       3.402  -5.165  23.360  0.00  0.00    +0.002 C 
ATOM     17  C   UNL     1       3.337  -5.292  24.878  0.00  0.00    +0.002 C 
ATOM     18  C   UNL     1       4.533  -4.499  25.371  0.00  0.00    +0.022 C 
ENDBRANCH   3  14
TORSDOF 2
ENDMDL
