MODEL 1
REMARK VINA RESULT:      -6.0      0.000      0.000
REMARK  Name = 
REMARK  2 active torsions:
REMARK  status: ('A' for Active; 'I' for Inactive)
REMARK    1  A    between atoms: C_8  and  O_9
REMARK    2  A    between atoms: O_9  and  C_10
REMARK                            x       y       z     vdW  Elec       q    Type
REMARK                         _______ _______ _______ _____ _____    ______ ____
ROOT
ATOM      1  N   UNL     1       7.906  -5.952  27.115  0.00  0.00    -0.337 N 
ATOM      2  H   UNL     1       7.887  -6.855  26.660  0.00  0.00    +0.144 HD
ATOM      3  H   UNL     1       7.300  -5.836  27.918  0.00  0.00    +0.144 HD
ATOM      4  C   UNL     1       8.285  -4.855  26.446  0.00  0.00    +0.157 A 
ATOM      5  S   UNL     1       9.055  -4.968  24.919  0.00  0.00    -0.053 S 
ATOM      6  C   UNL     1       9.203  -3.255  24.864  0.00  0.00    +0.044 A 
ATOM      7  C   UNL     1       9.783  -2.441  23.878  0.00  0.00    +0.063 A 
ATOM      8  C   UNL     1       9.785  -1.052  24.059  0.00  0.00    +0.131 A 
ATOM      9  C   UNL     1       9.263  -0.500  25.226  0.00  0.00    +0.048 A 
ATOM     10  C   UNL     1       8.668  -1.319  26.197  0.00  0.00    +0.032 A 
ATOM     11  C   UNL     1       8.636  -2.718  26.018  0.00  0.00    +0.080 A 
ATOM     12  N   UNL     1       8.102  -3.641  26.902  0.00  0.00    -0.225 NA
ENDROOT
BRANCH   8  13
ATOM     13  O   UNL     1      10.399  -0.359  23.061  0.00  0.00    -0.406 OA
BRANCH  13  14
ATOM     14  C   UNL     1       9.619   0.263  22.048  0.00  0.00    +0.575 C 
ATOM     15  F   UNL     1       9.562  -0.566  20.981  0.00  0.00    -0.133 F 
ATOM     16  F   UNL     1      10.225   1.406  21.659  0.00  0.00    -0.133 F 
ATOM     17  F   UNL     1       8.352   0.548  22.416  0.00  0.00    -0.133 F 
ENDBRANCH  13  14
ENDBRANCH   8  13
TORSDOF 2
ENDMDL
MODEL 2
REMARK VINA RESULT:      -5.7      1.440      2.083
REMARK  Name = 
REMARK  2 active torsions:
REMARK  status: ('A' for Active; 'I' for Inactive)
REMARK    1  A    between atoms: C_8  and  O_9
REMARK    2  A    between atoms: O_9  and  C_10
REMARK                            x       y       z     vdW  Elec       q    Type
REMARK                         _______ _______ _______ _____ _____    ______ ____
ROOT
ATOM      1  N   UNL     1       7.588  -6.004  27.094  0.00  0.00    -0.337 N 
ATOM      2  H   UNL     1       8.242  -6.273  27.817  0.00  0.00    +0.144 HD
ATOM      3  H   UNL     1       6.815  -6.636  26.923  0.00  0.00    +0.144 HD
ATOM      4  C   UNL     1       7.960  -5.180  26.105  0.00  0.00    +0.157 A 
ATOM      5  S   UNL     1       9.426  -4.295  26.191  0.00  0.00    -0.053 S 
ATOM      6  C   UNL     1       9.070  -3.555  24.679  0.00  0.00    +0.044 A 
ATOM      7  C   UNL     1       9.805  -2.599  23.959  0.00  0.00    +0.063 A 
ATOM      8  C   UNL     1       9.304  -2.141  22.734  0.00  0.00    +0.131 A 
ATOM      9  C   UNL     1       8.072  -2.593  22.271  0.00  0.00    +0.048 A 
ATOM     10  C   UNL     1       7.354  -3.563  22.987  0.00  0.00    +0.032 A 
ATOM     11  C   UNL     1       7.856  -4.053  24.210  0.00  0.00    +0.080 A 
ATOM     12  N   UNL     1       7.245  -4.990  25.026  0.00  0.00    -0.225 NA
ENDROOT
BRANCH   8  13
ATOM     13  O   UNL     1      10.077  -1.193  22.135  0.00  0.00    -0.406 OA
BRANCH  13  14
ATOM     14  C   UNL     1       9.588   0.135  21.997  0.00  0.00    +0.575 C 
ATOM     15  F   UNL     1       8.632   0.339  22.931  0.00  0.00    -0.133 F 
ATOM     16  F   UNL     1       9.020   0.274  20.779  0.00  0.00    -0.133 F 
ATOM     17  F   UNL     1      10.525   1.094  22.149  0.00  0.00    -0.133 F 
ENDBRANCH  13  14
ENDBRANCH   8  13
TORSDOF 2
ENDMDL
MODEL 3
REMARK VINA RESULT:      -5.7      1.859      2.571
REMARK  Name = 
REMARK  2 active torsions:
REMARK  status: ('A' for Active; 'I' for Inactive)
REMARK    1  A    between atoms: C_8  and  O_9
REMARK    2  A    between atoms: O_9  and  C_10
REMARK                            x       y       z     vdW  Elec       q    Type
REMARK                         _______ _______ _______ _____ _____    ______ ____
ROOT
ATOM      1  N   UNL     1       8.971  -5.376  26.189  0.00  0.00    -0.337 N 
ATOM      2  H   UNL     1       8.607  -5.458  27.129  0.00  0.00    +0.144 HD
ATOM      3  H   UNL     1       9.576  -6.123  25.871  0.00  0.00    +0.144 HD
ATOM      4  C   UNL     1       9.081  -4.180  25.597  0.00  0.00    +0.157 A 
ATOM      5  S   UNL     1       8.323  -2.790  26.256  0.00  0.00    -0.053 S 
ATOM      6  C   UNL     1       8.905  -1.846  24.940  0.00  0.00    +0.044 A 
ATOM      7  C   UNL     1       8.712  -0.483  24.667  0.00  0.00    +0.063 A 
ATOM      8  C   UNL     1       9.293   0.067  23.518  0.00  0.00    +0.131 A 
ATOM      9  C   UNL     1      10.007  -0.744  22.640  0.00  0.00    +0.048 A 
ATOM     10  C   UNL     1      10.212  -2.100  22.931  0.00  0.00    +0.032 A 
ATOM     11  C   UNL     1       9.654  -2.665  24.097  0.00  0.00    +0.080 A 
ATOM     12  N   UNL     1       9.759  -3.988  24.494  0.00  0.00    -0.225 NA
ENDROOT
BRANCH   8  13
ATOM     13  O   UNL     1       9.017   1.388  23.330  0.00  0.00    -0.406 OA
BRANCH  13  14
ATOM     14  C   UNL     1      10.075   2.301  23.068  0.00  0.00    +0.575 C 
ATOM     15  F   UNL     1      11.080   2.054  23.939  0.00  0.00    -0.133 F 
ATOM     16  F   UNL     1       9.638   3.561  23.280  0.00  0.00    -0.133 F 
ATOM     17  F   UNL     1      10.584   2.223  21.820  0.00  0.00    -0.133 F 
ENDBRANCH  13  14
ENDBRANCH   8  13
TORSDOF 2
ENDMDL
MODEL 4
REMARK VINA RESULT:      -5.6      2.707      2.936
REMARK  Name = 
REMARK  2 active torsions:
REMARK  status: ('A' for Active; 'I' for Inactive)
REMARK    1  A    between atoms: C_8  and  O_9
REMARK    2  A    between atoms: O_9  and  C_10
REMARK                            x       y       z     vdW  Elec       q    Type
REMARK                         _______ _______ _______ _____ _____    ______ ____
ROOT
ATOM      1  N   UNL     1       6.045  -6.418  22.157  0.00  0.00    -0.337 N 
ATOM      2  H   UNL     1       5.156  -6.456  21.676  0.00  0.00    +0.144 HD
ATOM      3  H   UNL     1       6.287  -7.219  22.726  0.00  0.00    +0.144 HD
ATOM      4  C   UNL     1       6.618  -5.242  22.445  0.00  0.00    +0.157 A 
ATOM      5  S   UNL     1       6.057  -3.784  21.741  0.00  0.00    -0.053 S 
ATOM      6  C   UNL     1       7.291  -2.910  22.560  0.00  0.00    +0.044 A 
ATOM      7  C   UNL     1       7.585  -1.537  22.525  0.00  0.00    +0.063 A 
ATOM      8  C   UNL     1       8.656  -1.054  23.288  0.00  0.00    +0.131 A 
ATOM      9  C   UNL     1       9.440  -1.934  24.027  0.00  0.00    +0.048 A 
ATOM     10  C   UNL     1       9.127  -3.301  24.072  0.00  0.00    +0.032 A 
ATOM     11  C   UNL     1       8.038  -3.801  23.329  0.00  0.00    +0.080 A 
ATOM     12  N   UNL     1       7.631  -5.123  23.265  0.00  0.00    -0.225 NA
ENDROOT
BRANCH   8  13
ATOM     13  O   UNL     1       8.875   0.285  23.157  0.00  0.00    -0.406 OA
BRANCH  13  14
ATOM     14  C   UNL     1       9.472   0.790  21.971  0.00  0.00    +0.575 C 
ATOM     15  F   UNL     1      10.124  -0.221  21.354  0.00  0.00    -0.133 F 
ATOM     16  F   UNL     1      10.380   1.735  22.299  0.00  0.00    -0.133 F 
ATOM     17  F   UNL     1       8.599   1.317  21.087  0.00  0.00    -0.133 F 
ENDBRANCH  13  14
ENDBRANCH   8  13
TORSDOF 2
ENDMDL
MODEL 5
REMARK VINA RESULT:      -5.6      4.530      5.828
REMARK  Name = 
REMARK  2 active torsions:
REMARK  status: ('A' for Active; 'I' for Inactive)
REMARK    1  A    between atoms: C_8  and  O_9
REMARK    2  A    between atoms: O_9  and  C_10
REMARK                            x       y       z     vdW  Elec       q    Type
REMARK                         _______ _______ _______ _____ _____    ______ ____
ROOT
ATOM      1  N   UNL     1       8.651   4.193  22.940  0.00  0.00    -0.337 N 
ATOM      2  H   UNL     1       8.482   4.727  23.781  0.00  0.00    +0.144 HD
ATOM      3  H   UNL     1       8.272   4.569  22.080  0.00  0.00    +0.144 HD
ATOM      4  C   UNL     1       8.893   2.876  23.001  0.00  0.00    +0.157 A 
ATOM      5  S   UNL     1       9.249   2.107  24.491  0.00  0.00    -0.053 S 
ATOM      6  C   UNL     1       9.447   0.607  23.671  0.00  0.00    +0.044 A 
ATOM      7  C   UNL     1       9.793  -0.652  24.188  0.00  0.00    +0.063 A 
ATOM      8  C   UNL     1       9.896  -1.739  23.311  0.00  0.00    +0.131 A 
ATOM      9  C   UNL     1       9.706  -1.554  21.944  0.00  0.00    +0.048 A 
ATOM     10  C   UNL     1       9.343  -0.297  21.440  0.00  0.00    +0.032 A 
ATOM     11  C   UNL     1       9.211   0.803  22.312  0.00  0.00    +0.080 A 
ATOM     12  N   UNL     1       8.880   2.098  21.949  0.00  0.00    -0.225 NA
ENDROOT
BRANCH   8  13
ATOM     13  O   UNL     1      10.267  -2.906  23.909  0.00  0.00    -0.406 OA
BRANCH  13  14
ATOM     14  C   UNL     1       9.282  -3.736  24.511  0.00  0.00    +0.575 C 
ATOM     15  F   UNL     1       9.887  -4.854  24.971  0.00  0.00    -0.133 F 
ATOM     16  F   UNL     1       8.378  -4.102  23.577  0.00  0.00    -0.133 F 
ATOM     17  F   UNL     1       8.628  -3.166  25.545  0.00  0.00    -0.133 F 
ENDBRANCH  13  14
ENDBRANCH   8  13
TORSDOF 2
ENDMDL
MODEL 6
REMARK VINA RESULT:      -5.5      4.532      5.861
REMARK  Name = 
REMARK  2 active torsions:
REMARK  status: ('A' for Active; 'I' for Inactive)
REMARK    1  A    between atoms: C_8  and  O_9
REMARK    2  A    between atoms: O_9  and  C_10
REMARK                            x       y       z     vdW  Elec       q    Type
REMARK                         _______ _______ _______ _____ _____    ______ ____
ROOT
ATOM      1  N   UNL     1      10.134   2.188  21.670  0.00  0.00    -0.337 N 
ATOM      2  H   UNL     1      10.627   2.899  22.194  0.00  0.00    +0.144 HD
ATOM      3  H   UNL     1       9.570   2.508  20.892  0.00  0.00    +0.144 HD
ATOM      4  C   UNL     1       9.825   1.012  22.231  0.00  0.00    +0.157 A 
ATOM      5  S   UNL     1      10.521   0.530  23.722  0.00  0.00    -0.053 S 
ATOM      6  C   UNL     1       9.676  -0.966  23.636  0.00  0.00    +0.044 A 
ATOM      7  C   UNL     1       9.693  -2.052  24.525  0.00  0.00    +0.063 A 
ATOM      8  C   UNL     1       8.910  -3.177  24.236  0.00  0.00    +0.131 A 
ATOM      9  C   UNL     1       8.170  -3.229  23.058  0.00  0.00    +0.048 A 
ATOM     10  C   UNL     1       8.144  -2.131  22.185  0.00  0.00    +0.032 A 
ATOM     11  C   UNL     1       8.907  -0.981  22.473  0.00  0.00    +0.080 A 
ATOM     12  N   UNL     1       8.990   0.160  21.693  0.00  0.00    -0.225 NA
ENDROOT
BRANCH   8  13
ATOM     13  O   UNL     1       9.023  -4.185  25.146  0.00  0.00    -0.406 OA
BRANCH  13  14
ATOM     14  C   UNL     1       7.899  -4.555  25.934  0.00  0.00    +0.575 C 
ATOM     15  F   UNL     1       7.189  -3.440  26.219  0.00  0.00    -0.133 F 
ATOM     16  F   UNL     1       8.330  -5.086  27.099  0.00  0.00    -0.133 F 
ATOM     17  F   UNL     1       7.066  -5.434  25.340  0.00  0.00    -0.133 F 
ENDBRANCH  13  14
ENDBRANCH   8  13
TORSDOF 2
ENDMDL
MODEL 7
REMARK VINA RESULT:      -5.4      2.710      3.584
REMARK  Name = 
REMARK  2 active torsions:
REMARK  status: ('A' for Active; 'I' for Inactive)
REMARK    1  A    between atoms: C_8  and  O_9
REMARK    2  A    between atoms: O_9  and  C_10
REMARK                            x       y       z     vdW  Elec       q    Type
REMARK                         _______ _______ _______ _____ _____    ______ ____
ROOT
ATOM      1  N   UNL     1       3.761  -7.393  26.032  0.00  0.00    -0.337 N 
ATOM      2  H   UNL     1       3.013  -7.449  25.354  0.00  0.00    +0.144 HD
ATOM      3  H   UNL     1       3.514  -7.577  26.996  0.00  0.00    +0.144 HD
ATOM      4  C   UNL     1       4.852  -6.653  25.790  0.00  0.00    +0.157 A 
ATOM      5  S   UNL     1       5.181  -6.043  24.222  0.00  0.00    -0.053 S 
ATOM      6  C   UNL     1       6.645  -5.345  24.798  0.00  0.00    +0.044 A 
ATOM      7  C   UNL     1       7.619  -4.614  24.100  0.00  0.00    +0.063 A 
ATOM      8  C   UNL     1       8.740  -4.144  24.795  0.00  0.00    +0.131 A 
ATOM      9  C   UNL     1       8.902  -4.444  26.145  0.00  0.00    +0.048 A 
ATOM     10  C   UNL     1       7.914  -5.159  26.838  0.00  0.00    +0.032 A 
ATOM     11  C   UNL     1       6.767  -5.619  26.159  0.00  0.00    +0.080 A 
ATOM     12  N   UNL     1       5.729  -6.350  26.713  0.00  0.00    -0.225 NA
ENDROOT
BRANCH   8  13
ATOM     13  O   UNL     1       9.638  -3.475  24.019  0.00  0.00    -0.406 OA
BRANCH  13  14
ATOM     14  C   UNL     1       9.563  -2.059  23.911  0.00  0.00    +0.575 C 
ATOM     15  F   UNL     1       8.484  -1.743  23.160  0.00  0.00    -0.133 F 
ATOM     16  F   UNL     1      10.664  -1.603  23.276  0.00  0.00    -0.133 F 
ATOM     17  F   UNL     1       9.446  -1.415  25.091  0.00  0.00    -0.133 F 
ENDBRANCH  13  14
ENDBRANCH   8  13
TORSDOF 2
ENDMDL
MODEL 8
REMARK VINA RESULT:      -5.3      4.556      5.850
REMARK  Name = 
REMARK  2 active torsions:
REMARK  status: ('A' for Active; 'I' for Inactive)
REMARK    1  A    between atoms: C_8  and  O_9
REMARK    2  A    between atoms: O_9  and  C_10
REMARK                            x       y       z     vdW  Elec       q    Type
REMARK                         _______ _______ _______ _____ _____    ______ ____
ROOT
ATOM      1  N   UNL     1       7.552   4.631  22.055  0.00  0.00    -0.337 N 
ATOM      2  H   UNL     1       6.760   4.668  21.428  0.00  0.00    +0.144 HD
ATOM      3  H   UNL     1       8.232   5.376  21.971  0.00  0.00    +0.144 HD
ATOM      4  C   UNL     1       7.952   3.468  22.587  0.00  0.00    +0.157 A 
ATOM      5  S   UNL     1       6.969   2.067  22.499  0.00  0.00    -0.053 S 
ATOM      6  C   UNL     1       8.143   1.184  23.395  0.00  0.00    +0.044 A 
ATOM      7  C   UNL     1       8.119  -0.154  23.819  0.00  0.00    +0.063 A 
ATOM      8  C   UNL     1       9.207  -0.654  24.547  0.00  0.00    +0.131 A 
ATOM      9  C   UNL     1      10.266   0.185  24.884  0.00  0.00    +0.048 A 
ATOM     10  C   UNL     1      10.289   1.515  24.440  0.00  0.00    +0.032 A 
ATOM     11  C   UNL     1       9.214   2.027  23.685  0.00  0.00    +0.080 A 
ATOM     12  N   UNL     1       9.098   3.320  23.203  0.00  0.00    -0.225 NA
ENDROOT
BRANCH   8  13
ATOM     13  O   UNL     1       9.069  -1.952  24.936  0.00  0.00    -0.406 OA
BRANCH  13  14
ATOM     14  C   UNL     1       9.565  -2.995  24.106  0.00  0.00    +0.575 C 
ATOM     15  F   UNL     1       8.558  -3.426  23.312  0.00  0.00    -0.133 F 
ATOM     16  F   UNL     1       9.961  -4.028  24.880  0.00  0.00    -0.133 F 
ATOM     17  F   UNL     1      10.592  -2.633  23.309  0.00  0.00    -0.133 F 
ENDBRANCH  13  14
ENDBRANCH   8  13
TORSDOF 2
ENDMDL
MODEL 9
REMARK VINA RESULT:      -5.2      4.586      5.758
REMARK  Name = 
REMARK  2 active torsions:
REMARK  status: ('A' for Active; 'I' for Inactive)
REMARK    1  A    between atoms: C_8  and  O_9
REMARK    2  A    between atoms: O_9  and  C_10
REMARK                            x       y       z     vdW  Elec       q    Type
REMARK                         _______ _______ _______ _____ _____    ______ ____
ROOT
ATOM      1  N   UNL     1      10.224   2.307  21.796  0.00  0.00    -0.337 N 
ATOM      2  H   UNL     1       9.683   3.011  21.310  0.00  0.00    +0.144 HD
ATOM      3  H   UNL     1      11.225   2.323  21.649  0.00  0.00    +0.144 HD
ATOM      4  C   UNL     1       9.660   1.154  22.179  0.00  0.00    +0.157 A 
ATOM      5  S   UNL     1       7.957   0.950  22.166  0.00  0.00    -0.053 S 
ATOM      6  C   UNL     1       8.141  -0.639  22.799  0.00  0.00    +0.044 A 
ATOM      7  C   UNL     1       7.157  -1.583  23.135  0.00  0.00    +0.063 A 
ATOM      8  C   UNL     1       7.557  -2.827  23.641  0.00  0.00    +0.131 A 
ATOM      9  C   UNL     1       8.907  -3.093  23.852  0.00  0.00    +0.048 A 
ATOM     10  C   UNL     1       9.883  -2.151  23.496  0.00  0.00    +0.032 A 
ATOM     11  C   UNL     1       9.499  -0.904  22.962  0.00  0.00    +0.080 A 
ATOM     12  N   UNL     1      10.352   0.122  22.588  0.00  0.00    -0.225 NA
ENDROOT
BRANCH   8  13
ATOM     13  O   UNL     1       6.525  -3.655  23.964  0.00  0.00    -0.406 OA
BRANCH  13  14
ATOM     14  C   UNL     1       6.042  -4.589  23.007  0.00  0.00    +0.575 C 
ATOM     15  F   UNL     1       6.894  -4.606  21.957  0.00  0.00    -0.133 F 
ATOM     16  F   UNL     1       4.835  -4.181  22.559  0.00  0.00    -0.133 F 
ATOM     17  F   UNL     1       5.929  -5.852  23.466  0.00  0.00    -0.133 F 
ENDBRANCH  13  14
ENDBRANCH   8  13
TORSDOF 2
ENDMDL
