MODEL 1
REMARK VINA RESULT:      -3.8      0.000      0.000
REMARK  Name = 
REMARK  5 active torsions:
REMARK  status: ('A' for Active; 'I' for Inactive)
REMARK    1  A    between atoms: C_4  and  C_5
REMARK    2  A    between atoms: C_5  and  O_6
REMARK    3  A    between atoms: C_5  and  C_7
REMARK    4  A    between atoms: C_5  and  C_9
REMARK    5  A    between atoms: C_7  and  C_8
REMARK                            x       y       z     vdW  Elec       q    Type
REMARK                         _______ _______ _______ _____ _____    ______ ____
ROOT
ATOM      1  C   UNL     1       9.617  -0.696  22.374  0.00  0.00    +0.146 C 
ENDROOT
BRANCH   1   3
ATOM      2  C   UNL     1       8.242  -2.422  23.724  0.00  0.00    +0.079 C 
ATOM      3  C   UNL     1       8.374  -1.378  22.898  0.00  0.00    +0.032 C 
ATOM      4 CL   UNL     1       9.516  -3.347  24.396  0.00  0.00    -0.092 Cl
ENDBRANCH   1   3
BRANCH   1   5
ATOM      5  C   UNL     1      10.309   0.003  23.533  0.00  0.00    -0.067 C 
ATOM      6  C   UNL     1      10.903   0.602  24.528  0.00  0.00    +0.007 C 
ENDBRANCH   1   5
BRANCH   1   7
ATOM      7  C   UNL     1       9.300   0.400  21.328  0.00  0.00    +0.049 C 
ATOM      8  C   UNL     1       8.387   1.521  21.806  0.00  0.00    +0.008 C 
ENDBRANCH   1   7
BRANCH   1   9
ATOM      9  O   UNL     1      10.549  -1.613  21.827  0.00  0.00    -0.373 OA
ATOM     10  H   UNL     1      10.082  -2.137  21.155  0.00  0.00    +0.212 HD
ENDBRANCH   1   9
TORSDOF 4
ENDMDL
MODEL 2
REMARK VINA RESULT:      -3.8      1.809      2.100
REMARK  Name = 
REMARK  5 active torsions:
REMARK  status: ('A' for Active; 'I' for Inactive)
REMARK    1  A    between atoms: C_4  and  C_5
REMARK    2  A    between atoms: C_5  and  O_6
REMARK    3  A    between atoms: C_5  and  C_7
REMARK    4  A    between atoms: C_5  and  C_9
REMARK    5  A    between atoms: C_7  and  C_8
REMARK                            x       y       z     vdW  Elec       q    Type
REMARK                         _______ _______ _______ _____ _____    ______ ____
ROOT
ATOM      1  C   UNL     1       9.496   1.072  22.240  0.00  0.00    +0.146 C 
ENDROOT
BRANCH   1   3
ATOM      2  C   UNL     1       9.154  -1.452  21.789  0.00  0.00    +0.079 C 
ATOM      3  C   UNL     1       9.552  -0.219  21.456  0.00  0.00    +0.032 C 
ATOM      4 CL   UNL     1       8.491  -1.928  23.293  0.00  0.00    -0.092 Cl
ENDBRANCH   1   3
BRANCH   1   5
ATOM      5  C   UNL     1      10.301   0.896  23.517  0.00  0.00    -0.067 C 
ATOM      6  C   UNL     1      10.992   0.745  24.612  0.00  0.00    +0.007 C 
ENDBRANCH   1   5
BRANCH   1   7
ATOM      7  C   UNL     1       8.058   1.443  22.677  0.00  0.00    +0.049 C 
ATOM      8  C   UNL     1       7.401   2.569  21.891  0.00  0.00    +0.008 C 
ENDBRANCH   1   7
BRANCH   1   9
ATOM      9  O   UNL     1      10.069   2.160  21.535  0.00  0.00    -0.373 OA
ATOM     10  H   UNL     1      10.111   1.910  20.597  0.00  0.00    +0.212 HD
ENDBRANCH   1   9
TORSDOF 4
ENDMDL
MODEL 3
REMARK VINA RESULT:      -3.7      3.362      4.442
REMARK  Name = 
REMARK  5 active torsions:
REMARK  status: ('A' for Active; 'I' for Inactive)
REMARK    1  A    between atoms: C_4  and  C_5
REMARK    2  A    between atoms: C_5  and  O_6
REMARK    3  A    between atoms: C_5  and  C_7
REMARK    4  A    between atoms: C_5  and  C_9
REMARK    5  A    between atoms: C_7  and  C_8
REMARK                            x       y       z     vdW  Elec       q    Type
REMARK                         _______ _______ _______ _____ _____    ______ ____
ROOT
ATOM      1  C   UNL     1       9.250   1.659  22.268  0.00  0.00    +0.146 C 
ENDROOT
BRANCH   1   3
ATOM      2  C   UNL     1       7.232   3.258  22.019  0.00  0.00    +0.079 C 
ATOM      3  C   UNL     1       7.857   2.086  21.866  0.00  0.00    +0.032 C 
ATOM      4 CL   UNL     1       7.860   4.643  22.806  0.00  0.00    -0.092 Cl
ENDBRANCH   1   3
BRANCH   1   5
ATOM      5  C   UNL     1       9.443   0.205  21.867  0.00  0.00    -0.067 C 
ATOM      6  C   UNL     1       9.608  -1.042  21.523  0.00  0.00    +0.007 C 
ENDBRANCH   1   5
BRANCH   1   7
ATOM      7  C   UNL     1       9.475   1.724  23.798  0.00  0.00    +0.049 C 
ATOM      8  C   UNL     1      10.782   1.123  24.297  0.00  0.00    +0.008 C 
ENDBRANCH   1   7
BRANCH   1   9
ATOM      9  O   UNL     1      10.258   2.408  21.611  0.00  0.00    -0.373 OA
ATOM     10  H   UNL     1       9.815   3.014  20.994  0.00  0.00    +0.212 HD
ENDBRANCH   1   9
TORSDOF 4
ENDMDL
MODEL 4
REMARK VINA RESULT:      -3.6      2.876      3.580
REMARK  Name = 
REMARK  5 active torsions:
REMARK  status: ('A' for Active; 'I' for Inactive)
REMARK    1  A    between atoms: C_4  and  C_5
REMARK    2  A    between atoms: C_5  and  O_6
REMARK    3  A    between atoms: C_5  and  C_7
REMARK    4  A    between atoms: C_5  and  C_9
REMARK    5  A    between atoms: C_7  and  C_8
REMARK                            x       y       z     vdW  Elec       q    Type
REMARK                         _______ _______ _______ _____ _____    ______ ____
ROOT
ATOM      1  C   UNL     1      10.309   2.631  23.118  0.00  0.00    +0.146 C 
ENDROOT
BRANCH   1   3
ATOM      2  C   UNL     1      10.227   0.288  24.212  0.00  0.00    +0.079 C 
ATOM      3  C   UNL     1      10.736   1.513  24.041  0.00  0.00    +0.032 C 
ATOM      4 CL   UNL     1       8.847  -0.351  23.427  0.00  0.00    -0.092 Cl
ENDBRANCH   1   3
BRANCH   1   5
ATOM      5  C   UNL     1      11.306   3.771  23.249  0.00  0.00    -0.067 C 
ATOM      6  C   UNL     1      12.162   4.748  23.360  0.00  0.00    +0.007 C 
ENDBRANCH   1   5
BRANCH   1   7
ATOM      7  C   UNL     1       8.925   3.215  23.491  0.00  0.00    +0.049 C 
ATOM      8  C   UNL     1       7.843   3.073  22.429  0.00  0.00    +0.008 C 
ENDBRANCH   1   7
BRANCH   1   9
ATOM      9  O   UNL     1      10.303   2.238  21.756  0.00  0.00    -0.373 OA
ATOM     10  H   UNL     1      10.618   2.994  21.234  0.00  0.00    +0.212 HD
ENDBRANCH   1   9
TORSDOF 4
ENDMDL
MODEL 5
REMARK VINA RESULT:      -3.6      2.966      4.044
REMARK  Name = 
REMARK  5 active torsions:
REMARK  status: ('A' for Active; 'I' for Inactive)
REMARK    1  A    between atoms: C_4  and  C_5
REMARK    2  A    between atoms: C_5  and  O_6
REMARK    3  A    between atoms: C_5  and  C_7
REMARK    4  A    between atoms: C_5  and  C_9
REMARK    5  A    between atoms: C_7  and  C_8
REMARK                            x       y       z     vdW  Elec       q    Type
REMARK                         _______ _______ _______ _____ _____    ______ ____
ROOT
ATOM      1  C   UNL     1       9.376   1.338  22.107  0.00  0.00    +0.146 C 
ENDROOT
BRANCH   1   3
ATOM      2  C   UNL     1       9.539   1.959  24.613  0.00  0.00    +0.079 C 
ATOM      3  C   UNL     1       9.632   1.114  23.580  0.00  0.00    +0.032 C 
ATOM      4 CL   UNL     1       9.140   3.621  24.527  0.00  0.00    -0.092 Cl
ENDBRANCH   1   3
BRANCH   1   5
ATOM      5  C   UNL     1       7.987   1.935  21.945  0.00  0.00    -0.067 C 
ATOM      6  C   UNL     1       6.796   2.446  21.805  0.00  0.00    +0.007 C 
ENDBRANCH   1   5
BRANCH   1   7
ATOM      7  C   UNL     1       9.384   0.021  21.294  0.00  0.00    +0.049 C 
ATOM      8  C   UNL     1       9.869  -1.212  22.044  0.00  0.00    +0.008 C 
ENDBRANCH   1   7
BRANCH   1   9
ATOM      9  O   UNL     1      10.291   2.254  21.530  0.00  0.00    -0.373 OA
ATOM     10  H   UNL     1       9.796   2.802  20.899  0.00  0.00    +0.212 HD
ENDBRANCH   1   9
TORSDOF 4
ENDMDL
MODEL 6
REMARK VINA RESULT:      -3.5      2.684      3.670
REMARK  Name = 
REMARK  5 active torsions:
REMARK  status: ('A' for Active; 'I' for Inactive)
REMARK    1  A    between atoms: C_4  and  C_5
REMARK    2  A    between atoms: C_5  and  O_6
REMARK    3  A    between atoms: C_5  and  C_7
REMARK    4  A    between atoms: C_5  and  C_9
REMARK    5  A    between atoms: C_7  and  C_8
REMARK                            x       y       z     vdW  Elec       q    Type
REMARK                         _______ _______ _______ _____ _____    ______ ____
ROOT
ATOM      1  C   UNL     1      10.106   1.872  23.401  0.00  0.00    +0.146 C 
ENDROOT
BRANCH   1   3
ATOM      2  C   UNL     1       9.265   0.365  21.474  0.00  0.00    +0.079 C 
ATOM      3  C   UNL     1       9.991   1.367  21.981  0.00  0.00    +0.032 C 
ATOM      4 CL   UNL     1       8.263  -0.705  22.359  0.00  0.00    -0.092 Cl
ENDBRANCH   1   3
BRANCH   1   5
ATOM      5  C   UNL     1      10.903   3.167  23.388  0.00  0.00    -0.067 C 
ATOM      6  C   UNL     1      11.586   4.278  23.378  0.00  0.00    +0.007 C 
ENDBRANCH   1   5
BRANCH   1   7
ATOM      7  C   UNL     1      10.876   0.894  24.321  0.00  0.00    +0.049 C 
ATOM      8  C   UNL     1      10.014   0.035  25.235  0.00  0.00    +0.008 C 
ENDBRANCH   1   7
BRANCH   1   9
ATOM      9  O   UNL     1       8.845   2.167  23.976  0.00  0.00    -0.373 OA
ATOM     10  H   UNL     1       8.524   1.356  24.405  0.00  0.00    +0.212 HD
ENDBRANCH   1   9
TORSDOF 4
ENDMDL
MODEL 7
REMARK VINA RESULT:      -3.5      1.960      3.506
REMARK  Name = 
REMARK  5 active torsions:
REMARK  status: ('A' for Active; 'I' for Inactive)
REMARK    1  A    between atoms: C_4  and  C_5
REMARK    2  A    between atoms: C_5  and  O_6
REMARK    3  A    between atoms: C_5  and  C_7
REMARK    4  A    between atoms: C_5  and  C_9
REMARK    5  A    between atoms: C_7  and  C_8
REMARK                            x       y       z     vdW  Elec       q    Type
REMARK                         _______ _______ _______ _____ _____    ______ ____
ROOT
ATOM      1  C   UNL     1       9.680  -0.926  22.463  0.00  0.00    +0.146 C 
ENDROOT
BRANCH   1   3
ATOM      2  C   UNL     1       8.524   1.200  21.551  0.00  0.00    +0.079 C 
ATOM      3  C   UNL     1       9.472   0.257  21.545  0.00  0.00    +0.032 C 
ATOM      4 CL   UNL     1       7.193   1.290  22.623  0.00  0.00    -0.092 Cl
ENDBRANCH   1   3
BRANCH   1   5
ATOM      5  C   UNL     1       8.461  -1.829  22.369  0.00  0.00    -0.067 C 
ATOM      6  C   UNL     1       7.414  -2.603  22.290  0.00  0.00    +0.007 C 
ENDBRANCH   1   5
BRANCH   1   7
ATOM      7  C   UNL     1       9.806  -0.513  23.949  0.00  0.00    +0.049 C 
ATOM      8  C   UNL     1      10.877   0.525  24.255  0.00  0.00    +0.008 C 
ENDBRANCH   1   7
BRANCH   1   9
ATOM      9  O   UNL     1      10.804  -1.708  22.094  0.00  0.00    -0.373 OA
ATOM     10  H   UNL     1      10.604  -2.631  22.321  0.00  0.00    +0.212 HD
ENDBRANCH   1   9
TORSDOF 4
ENDMDL
MODEL 8
REMARK VINA RESULT:      -3.5      2.848      3.530
REMARK  Name = 
REMARK  5 active torsions:
REMARK  status: ('A' for Active; 'I' for Inactive)
REMARK    1  A    between atoms: C_4  and  C_5
REMARK    2  A    between atoms: C_5  and  O_6
REMARK    3  A    between atoms: C_5  and  C_7
REMARK    4  A    between atoms: C_5  and  C_9
REMARK    5  A    between atoms: C_7  and  C_8
REMARK                            x       y       z     vdW  Elec       q    Type
REMARK                         _______ _______ _______ _____ _____    ______ ____
ROOT
ATOM      1  C   UNL     1       9.771   2.516  23.054  0.00  0.00    +0.146 C 
ENDROOT
BRANCH   1   3
ATOM      2  C   UNL     1       7.482   1.314  22.954  0.00  0.00    +0.079 C 
ATOM      3  C   UNL     1       8.268   2.380  23.143  0.00  0.00    +0.032 C 
ATOM      4 CL   UNL     1       7.995  -0.248  22.479  0.00  0.00    -0.092 Cl
ENDBRANCH   1   3
BRANCH   1   5
ATOM      5  C   UNL     1      10.404   1.467  23.954  0.00  0.00    -0.067 C 
ATOM      6  C   UNL     1      10.948   0.568  24.726  0.00  0.00    +0.007 C 
ENDBRANCH   1   5
BRANCH   1   7
ATOM      7  C   UNL     1      10.276   3.889  23.558  0.00  0.00    +0.049 C 
ATOM      8  C   UNL     1      11.752   4.176  23.317  0.00  0.00    +0.008 C 
ENDBRANCH   1   7
BRANCH   1   9
ATOM      9  O   UNL     1      10.259   2.287  21.743  0.00  0.00    -0.373 OA
ATOM     10  H   UNL     1      11.226   2.213  21.801  0.00  0.00    +0.212 HD
ENDBRANCH   1   9
TORSDOF 4
ENDMDL
MODEL 9
REMARK VINA RESULT:      -3.4      2.568      3.675
REMARK  Name = 
REMARK  5 active torsions:
REMARK  status: ('A' for Active; 'I' for Inactive)
REMARK    1  A    between atoms: C_4  and  C_5
REMARK    2  A    between atoms: C_5  and  O_6
REMARK    3  A    between atoms: C_5  and  C_7
REMARK    4  A    between atoms: C_5  and  C_9
REMARK    5  A    between atoms: C_7  and  C_8
REMARK                            x       y       z     vdW  Elec       q    Type
REMARK                         _______ _______ _______ _____ _____    ______ ____
ROOT
ATOM      1  C   UNL     1       9.300   1.827  22.345  0.00  0.00    +0.146 C 
ENDROOT
BRANCH   1   3
ATOM      2  C   UNL     1       8.933   1.235  24.836  0.00  0.00    +0.079 C 
ATOM      3  C   UNL     1       9.650   1.706  23.810  0.00  0.00    +0.032 C 
ATOM      4 CL   UNL     1       7.320   0.666  24.765  0.00  0.00    -0.092 Cl
ENDBRANCH   1   3
BRANCH   1   5
ATOM      5  C   UNL     1       8.098   2.749  22.212  0.00  0.00    -0.067 C 
ATOM      6  C   UNL     1       7.068   3.540  22.098  0.00  0.00    +0.007 C 
ENDBRANCH   1   5
BRANCH   1   7
ATOM      7  C   UNL     1       8.884   0.474  21.717  0.00  0.00    +0.049 C 
ATOM      8  C   UNL     1       9.906  -0.649  21.838  0.00  0.00    +0.008 C 
ENDBRANCH   1   7
BRANCH   1   9
ATOM      9  O   UNL     1      10.348   2.398  21.582  0.00  0.00    -0.373 OA
ATOM     10  H   UNL     1      10.929   1.674  21.296  0.00  0.00    +0.212 HD
ENDBRANCH   1   9
TORSDOF 4
ENDMDL
