MODEL 1
REMARK VINA RESULT:      -6.6      0.000      0.000
REMARK  Name = 
REMARK  3 active torsions:
REMARK  status: ('A' for Active; 'I' for Inactive)
REMARK    1  A    between atoms: O_1  and  C_2
REMARK    2  A    between atoms: C_5  and  C_8
REMARK    3  A    between atoms: C_15  and  O_16
REMARK                            x       y       z     vdW  Elec       q    Type
REMARK                         _______ _______ _______ _____ _____    ______ ____
ROOT
ATOM      1  C   UNL     1       7.409  -2.492  22.660  0.00  0.00    +0.136 A 
ATOM      2  O   UNL     1       6.692  -1.349  22.885  0.00  0.00    -0.455 OA
ATOM      3  C   UNL     1       7.503  -0.297  22.588  0.00  0.00    +0.136 A 
ATOM      4  C   UNL     1       7.154   1.049  22.681  0.00  0.00    +0.050 A 
ATOM      5  C   UNL     1       8.147   1.979  22.350  0.00  0.00    +0.049 A 
ATOM      6  C   UNL     1       9.413   1.551  21.947  0.00  0.00    +0.118 A 
ATOM      7  C   UNL     1       9.737   0.195  21.851  0.00  0.00    +0.057 A 
ATOM      8  C   UNL     1       8.751  -0.751  22.179  0.00  0.00    +0.024 A 
ATOM      9  C   UNL     1       8.675  -2.167  22.212  0.00  0.00    +0.058 A 
ENDROOT
BRANCH   1  13
ATOM     10  C   UNL     1       5.375  -6.159  23.408  0.00  0.00    +0.117 A 
ATOM     11  C   UNL     1       5.319  -5.135  24.346  0.00  0.00    +0.046 A 
ATOM     12  C   UNL     1       5.986  -3.932  24.099  0.00  0.00    +0.015 A 
ATOM     13  C   UNL     1       6.718  -3.749  22.916  0.00  0.00    +0.018 A 
ATOM     14  C   UNL     1       6.753  -4.795  21.981  0.00  0.00    +0.015 A 
ATOM     15  C   UNL     1       6.081  -5.997  22.221  0.00  0.00    +0.046 A 
BRANCH  10  16
ATOM     16  O   UNL     1       4.719  -7.319  23.692  0.00  0.00    -0.507 OA
ATOM     17  H   UNL     1       4.474  -7.313  24.631  0.00  0.00    +0.292 HD
ENDBRANCH  10  16
ENDBRANCH   1  13
BRANCH   6  18
ATOM     18  O   UNL     1      10.393   2.448  21.634  0.00  0.00    -0.507 OA
ATOM     19  H   UNL     1      11.255   2.004  21.690  0.00  0.00    +0.292 HD
ENDBRANCH   6  18
TORSDOF 3
ENDMDL
MODEL 2
REMARK VINA RESULT:      -6.5      0.989      6.902
REMARK  Name = 
REMARK  3 active torsions:
REMARK  status: ('A' for Active; 'I' for Inactive)
REMARK    1  A    between atoms: O_1  and  C_2
REMARK    2  A    between atoms: C_5  and  C_8
REMARK    3  A    between atoms: C_15  and  O_16
REMARK                            x       y       z     vdW  Elec       q    Type
REMARK                         _______ _______ _______ _____ _____    ______ ____
ROOT
ATOM      1  C   UNL     1       7.143  -2.604  22.880  0.00  0.00    +0.136 A 
ATOM      2  O   UNL     1       7.192  -2.996  24.190  0.00  0.00    -0.455 OA
ATOM      3  C   UNL     1       6.480  -4.152  24.292  0.00  0.00    +0.136 A 
ATOM      4  C   UNL     1       6.284  -4.883  25.463  0.00  0.00    +0.050 A 
ATOM      5  C   UNL     1       5.497  -6.037  25.358  0.00  0.00    +0.049 A 
ATOM      6  C   UNL     1       4.952  -6.412  24.130  0.00  0.00    +0.118 A 
ATOM      7  C   UNL     1       5.170  -5.669  22.967  0.00  0.00    +0.057 A 
ATOM      8  C   UNL     1       5.959  -4.510  23.056  0.00  0.00    +0.024 A 
ATOM      9  C   UNL     1       6.406  -3.516  22.147  0.00  0.00    +0.058 A 
ENDROOT
BRANCH   1  13
ATOM     10  C   UNL     1       9.212   0.984  21.891  0.00  0.00    +0.117 A 
ATOM     11  C   UNL     1       9.773  -0.246  21.568  0.00  0.00    +0.046 A 
ATOM     12  C   UNL     1       9.092  -1.423  21.892  0.00  0.00    +0.015 A 
ATOM     13  C   UNL     1       7.852  -1.375  22.546  0.00  0.00    +0.018 A 
ATOM     14  C   UNL     1       7.305  -0.121  22.856  0.00  0.00    +0.015 A 
ATOM     15  C   UNL     1       7.978   1.059  22.526  0.00  0.00    +0.046 A 
BRANCH  10  16
ATOM     16  O   UNL     1       9.914   2.107  21.566  0.00  0.00    -0.507 OA
ATOM     17  H   UNL     1       9.286   2.795  21.293  0.00  0.00    +0.292 HD
ENDBRANCH  10  16
ENDBRANCH   1  13
BRANCH   6  18
ATOM     18  O   UNL     1       4.173  -7.528  24.018  0.00  0.00    -0.507 OA
ATOM     19  H   UNL     1       4.314  -8.090  24.799  0.00  0.00    +0.292 HD
ENDBRANCH   6  18
TORSDOF 3
ENDMDL
MODEL 3
REMARK VINA RESULT:      -6.3      2.156      2.711
REMARK  Name = 
REMARK  3 active torsions:
REMARK  status: ('A' for Active; 'I' for Inactive)
REMARK    1  A    between atoms: O_1  and  C_2
REMARK    2  A    between atoms: C_5  and  C_8
REMARK    3  A    between atoms: C_15  and  O_16
REMARK                            x       y       z     vdW  Elec       q    Type
REMARK                         _______ _______ _______ _____ _____    ______ ____
ROOT
ATOM      1  C   UNL     1       8.016  -2.294  24.468  0.00  0.00    +0.136 A 
ATOM      2  O   UNL     1       8.932  -1.586  25.197  0.00  0.00    -0.455 OA
ATOM      3  C   UNL     1       9.359  -0.555  24.417  0.00  0.00    +0.136 A 
ATOM      4  C   UNL     1      10.295   0.409  24.787  0.00  0.00    +0.050 A 
ATOM      5  C   UNL     1      10.615   1.376  23.826  0.00  0.00    +0.049 A 
ATOM      6  C   UNL     1      10.007   1.353  22.570  0.00  0.00    +0.118 A 
ATOM      7  C   UNL     1       9.062   0.383  22.225  0.00  0.00    +0.057 A 
ATOM      8  C   UNL     1       8.731  -0.593  23.179  0.00  0.00    +0.024 A 
ATOM      9  C   UNL     1       7.854  -1.708  23.226  0.00  0.00    +0.058 A 
ENDROOT
BRANCH   1  13
ATOM     10  C   UNL     1       6.298  -5.691  26.377  0.00  0.00    +0.117 A 
ATOM     11  C   UNL     1       5.901  -5.350  25.090  0.00  0.00    +0.046 A 
ATOM     12  C   UNL     1       6.466  -4.235  24.464  0.00  0.00    +0.015 A 
ATOM     13  C   UNL     1       7.426  -3.453  25.124  0.00  0.00    +0.018 A 
ATOM     14  C   UNL     1       7.815  -3.824  26.421  0.00  0.00    +0.015 A 
ATOM     15  C   UNL     1       7.258  -4.942  27.047  0.00  0.00    +0.046 A 
BRANCH  10  16
ATOM     16  O   UNL     1       5.714  -6.779  26.955  0.00  0.00    -0.507 OA
ATOM     17  H   UNL     1       5.763  -6.680  27.919  0.00  0.00    +0.292 HD
ENDBRANCH  10  16
ENDBRANCH   1  13
BRANCH   6  18
ATOM     18  O   UNL     1      10.319   2.284  21.621  0.00  0.00    -0.507 OA
ATOM     19  H   UNL     1      10.563   1.825  20.799  0.00  0.00    +0.292 HD
ENDBRANCH   6  18
TORSDOF 3
ENDMDL
MODEL 4
REMARK VINA RESULT:      -6.3      1.414      6.819
REMARK  Name = 
REMARK  3 active torsions:
REMARK  status: ('A' for Active; 'I' for Inactive)
REMARK    1  A    between atoms: O_1  and  C_2
REMARK    2  A    between atoms: C_5  and  C_8
REMARK    3  A    between atoms: C_15  and  O_16
REMARK                            x       y       z     vdW  Elec       q    Type
REMARK                         _______ _______ _______ _____ _____    ______ ____
ROOT
ATOM      1  C   UNL     1       7.628  -1.643  22.879  0.00  0.00    +0.136 A 
ATOM      2  O   UNL     1       8.227  -2.801  22.463  0.00  0.00    -0.455 OA
ATOM      3  C   UNL     1       7.265  -3.762  22.421  0.00  0.00    +0.136 A 
ATOM      4  C   UNL     1       7.459  -5.090  22.044  0.00  0.00    +0.050 A 
ATOM      5  C   UNL     1       6.338  -5.927  22.092  0.00  0.00    +0.049 A 
ATOM      6  C   UNL     1       5.099  -5.429  22.499  0.00  0.00    +0.118 A 
ATOM      7  C   UNL     1       4.925  -4.091  22.863  0.00  0.00    +0.057 A 
ATOM      8  C   UNL     1       6.041  -3.238  22.818  0.00  0.00    +0.024 A 
ATOM      9  C   UNL     1       6.281  -1.868  23.095  0.00  0.00    +0.058 A 
ENDROOT
BRANCH   1  13
ATOM     10  C   UNL     1      10.158   1.766  23.213  0.00  0.00    +0.117 A 
ATOM     11  C   UNL     1       9.597   1.209  24.356  0.00  0.00    +0.046 A 
ATOM     12  C   UNL     1       8.767   0.090  24.245  0.00  0.00    +0.015 A 
ATOM     13  C   UNL     1       8.490  -0.474  22.991  0.00  0.00    +0.018 A 
ATOM     14  C   UNL     1       9.074   0.103  21.853  0.00  0.00    +0.015 A 
ATOM     15  C   UNL     1       9.911   1.217  21.960  0.00  0.00    +0.046 A 
BRANCH  10  16
ATOM     16  O   UNL     1      10.953   2.863  23.365  0.00  0.00    -0.507 OA
ATOM     17  H   UNL     1      11.683   2.806  22.727  0.00  0.00    +0.292 HD
ENDBRANCH  10  16
ENDBRANCH   1  13
BRANCH   6  18
ATOM     18  O   UNL     1       4.002  -6.239  22.562  0.00  0.00    -0.507 OA
ATOM     19  H   UNL     1       3.393  -5.892  23.235  0.00  0.00    +0.292 HD
ENDBRANCH   6  18
TORSDOF 3
ENDMDL
MODEL 5
REMARK VINA RESULT:      -6.3      1.266      1.509
REMARK  Name = 
REMARK  3 active torsions:
REMARK  status: ('A' for Active; 'I' for Inactive)
REMARK    1  A    between atoms: O_1  and  C_2
REMARK    2  A    between atoms: C_5  and  C_8
REMARK    3  A    between atoms: C_15  and  O_16
REMARK                            x       y       z     vdW  Elec       q    Type
REMARK                         _______ _______ _______ _____ _____    ______ ____
ROOT
ATOM      1  C   UNL     1       7.913  -2.457  23.451  0.00  0.00    +0.136 A 
ATOM      2  O   UNL     1       8.085  -1.831  22.247  0.00  0.00    -0.455 OA
ATOM      3  C   UNL     1       8.824  -0.711  22.474  0.00  0.00    +0.136 A 
ATOM      4  C   UNL     1       9.224   0.209  21.506  0.00  0.00    +0.050 A 
ATOM      5  C   UNL     1       9.964   1.311  21.954  0.00  0.00    +0.049 A 
ATOM      6  C   UNL     1      10.272   1.453  23.307  0.00  0.00    +0.118 A 
ATOM      7  C   UNL     1       9.869   0.513  24.259  0.00  0.00    +0.057 A 
ATOM      8  C   UNL     1       9.128  -0.599  23.825  0.00  0.00    +0.024 A 
ATOM      9  C   UNL     1       8.551  -1.738  24.445  0.00  0.00    +0.058 A 
ENDROOT
BRANCH   1  13
ATOM     10  C   UNL     1       5.647  -6.061  23.395  0.00  0.00    +0.117 A 
ATOM     11  C   UNL     1       5.559  -5.209  24.490  0.00  0.00    +0.046 A 
ATOM     12  C   UNL     1       6.303  -4.026  24.506  0.00  0.00    +0.015 A 
ATOM     13  C   UNL     1       7.142  -3.693  23.433  0.00  0.00    +0.018 A 
ATOM     14  C   UNL     1       7.208  -4.567  22.336  0.00  0.00    +0.015 A 
ATOM     15  C   UNL     1       6.459  -5.747  22.312  0.00  0.00    +0.046 A 
BRANCH  10  16
ATOM     16  O   UNL     1       4.913  -7.210  23.423  0.00  0.00    -0.507 OA
ATOM     17  H   UNL     1       3.984  -6.987  23.253  0.00  0.00    +0.292 HD
ENDBRANCH  10  16
ENDBRANCH   1  13
BRANCH   6  18
ATOM     18  O   UNL     1      10.982   2.529  23.758  0.00  0.00    -0.507 OA
ATOM     19  H   UNL     1      10.661   3.328  23.306  0.00  0.00    +0.292 HD
ENDBRANCH   6  18
TORSDOF 3
ENDMDL
MODEL 6
REMARK VINA RESULT:      -6.2      1.366      6.829
REMARK  Name = 
REMARK  3 active torsions:
REMARK  status: ('A' for Active; 'I' for Inactive)
REMARK    1  A    between atoms: O_1  and  C_2
REMARK    2  A    between atoms: C_5  and  C_8
REMARK    3  A    between atoms: C_15  and  O_16
REMARK                            x       y       z     vdW  Elec       q    Type
REMARK                         _______ _______ _______ _____ _____    ______ ____
ROOT
ATOM      1  C   UNL     1       8.248  -1.314  22.814  0.00  0.00    +0.136 A 
ATOM      2  O   UNL     1       6.955  -1.353  23.258  0.00  0.00    -0.455 OA
ATOM      3  C   UNL     1       6.506  -2.626  23.081  0.00  0.00    +0.136 A 
ATOM      4  C   UNL     1       5.233  -3.091  23.409  0.00  0.00    +0.050 A 
ATOM      5  C   UNL     1       4.962  -4.435  23.125  0.00  0.00    +0.049 A 
ATOM      6  C   UNL     1       5.939  -5.246  22.545  0.00  0.00    +0.118 A 
ATOM      7  C   UNL     1       7.212  -4.761  22.234  0.00  0.00    +0.057 A 
ATOM      8  C   UNL     1       7.499  -3.414  22.515  0.00  0.00    +0.024 A 
ATOM      9  C   UNL     1       8.624  -2.564  22.361  0.00  0.00    +0.058 A 
ENDROOT
BRANCH   1  13
ATOM     10  C   UNL     1      10.219   2.450  23.105  0.00  0.00    +0.117 A 
ATOM     11  C   UNL     1      10.045   1.858  21.860  0.00  0.00    +0.046 A 
ATOM     12  C   UNL     1       9.398   0.623  21.766  0.00  0.00    +0.015 A 
ATOM     13  C   UNL     1       8.927  -0.028  22.916  0.00  0.00    +0.018 A 
ATOM     14  C   UNL     1       9.109   0.594  24.160  0.00  0.00    +0.015 A 
ATOM     15  C   UNL     1       9.749   1.833  24.258  0.00  0.00    +0.046 A 
BRANCH  10  16
ATOM     16  O   UNL     1      10.865   3.650  23.154  0.00  0.00    -0.507 OA
ATOM     17  H   UNL     1      11.701   3.571  22.666  0.00  0.00    +0.292 HD
ENDBRANCH  10  16
ENDBRANCH   1  13
BRANCH   6  18
ATOM     18  O   UNL     1       5.683  -6.554  22.251  0.00  0.00    -0.507 OA
ATOM     19  H   UNL     1       6.413  -7.100  22.587  0.00  0.00    +0.292 HD
ENDBRANCH   6  18
TORSDOF 3
ENDMDL
MODEL 7
REMARK VINA RESULT:      -6.2      2.328      2.866
REMARK  Name = 
REMARK  3 active torsions:
REMARK  status: ('A' for Active; 'I' for Inactive)
REMARK    1  A    between atoms: O_1  and  C_2
REMARK    2  A    between atoms: C_5  and  C_8
REMARK    3  A    between atoms: C_15  and  O_16
REMARK                            x       y       z     vdW  Elec       q    Type
REMARK                         _______ _______ _______ _____ _____    ______ ____
ROOT
ATOM      1  C   UNL     1       8.576  -1.630  24.787  0.00  0.00    +0.136 A 
ATOM      2  O   UNL     1       8.521  -1.427  23.435  0.00  0.00    -0.455 OA
ATOM      3  C   UNL     1       9.125  -0.235  23.179  0.00  0.00    +0.136 A 
ATOM      4  C   UNL     1       9.283   0.342  21.920  0.00  0.00    +0.050 A 
ATOM      5  C   UNL     1       9.915   1.591  21.876  0.00  0.00    +0.049 A 
ATOM      6  C   UNL     1      10.357   2.202  23.050  0.00  0.00    +0.118 A 
ATOM      7  C   UNL     1      10.197   1.600  24.301  0.00  0.00    +0.057 A 
ATOM      8  C   UNL     1       9.566   0.346  24.361  0.00  0.00    +0.024 A 
ATOM      9  C   UNL     1       9.223  -0.568  25.391  0.00  0.00    +0.058 A 
ENDROOT
BRANCH   1  13
ATOM     10  C   UNL     1       6.841  -5.247  26.214  0.00  0.00    +0.117 A 
ATOM     11  C   UNL     1       6.236  -4.558  25.171  0.00  0.00    +0.046 A 
ATOM     12  C   UNL     1       6.807  -3.371  24.703  0.00  0.00    +0.015 A 
ATOM     13  C   UNL     1       7.981  -2.865  25.280  0.00  0.00    +0.018 A 
ATOM     14  C   UNL     1       8.577  -3.584  26.328  0.00  0.00    +0.015 A 
ATOM     15  C   UNL     1       8.013  -4.776  26.793  0.00  0.00    +0.046 A 
BRANCH  10  16
ATOM     16  O   UNL     1       6.246  -6.395  26.648  0.00  0.00    -0.507 OA
ATOM     17  H   UNL     1       6.095  -6.972  25.882  0.00  0.00    +0.292 HD
ENDBRANCH  10  16
ENDBRANCH   1  13
BRANCH   6  18
ATOM     18  O   UNL     1      10.963   3.425  23.022  0.00  0.00    -0.507 OA
ATOM     19  H   UNL     1      11.402   3.539  22.162  0.00  0.00    +0.292 HD
ENDBRANCH   6  18
TORSDOF 3
ENDMDL
MODEL 8
REMARK VINA RESULT:      -6.2      2.161      6.972
REMARK  Name = 
REMARK  3 active torsions:
REMARK  status: ('A' for Active; 'I' for Inactive)
REMARK    1  A    between atoms: O_1  and  C_2
REMARK    2  A    between atoms: C_5  and  C_8
REMARK    3  A    between atoms: C_15  and  O_16
REMARK                            x       y       z     vdW  Elec       q    Type
REMARK                         _______ _______ _______ _____ _____    ______ ____
ROOT
ATOM      1  C   UNL     1       8.416  -1.907  24.455  0.00  0.00    +0.136 A 
ATOM      2  O   UNL     1       7.537  -2.715  23.786  0.00  0.00    -0.455 OA
ATOM      3  C   UNL     1       7.152  -3.695  24.648  0.00  0.00    +0.136 A 
ATOM      4  C   UNL     1       6.258  -4.725  24.360  0.00  0.00    +0.050 A 
ATOM      5  C   UNL     1       6.012  -5.649  25.383  0.00  0.00    +0.049 A 
ATOM      6  C   UNL     1       6.644  -5.518  26.621  0.00  0.00    +0.118 A 
ATOM      7  C   UNL     1       7.529  -4.471  26.891  0.00  0.00    +0.057 A 
ATOM      8  C   UNL     1       7.784  -3.536  25.874  0.00  0.00    +0.024 A 
ATOM      9  C   UNL     1       8.584  -2.371  25.746  0.00  0.00    +0.058 A 
ENDROOT
BRANCH   1  13
ATOM     10  C   UNL     1      10.005   1.384  22.269  0.00  0.00    +0.117 A 
ATOM     11  C   UNL     1      10.148   1.341  23.651  0.00  0.00    +0.046 A 
ATOM     12  C   UNL     1       9.626   0.260  24.367  0.00  0.00    +0.015 A 
ATOM     13  C   UNL     1       8.955  -0.779  23.706  0.00  0.00    +0.018 A 
ATOM     14  C   UNL     1       8.830  -0.716  22.309  0.00  0.00    +0.015 A 
ATOM     15  C   UNL     1       9.357   0.360  21.589  0.00  0.00    +0.046 A 
BRANCH  10  16
ATOM     16  O   UNL     1      10.519   2.461  21.610  0.00  0.00    -0.507 OA
ATOM     17  H   UNL     1       9.817   3.124  21.507  0.00  0.00    +0.292 HD
ENDBRANCH  10  16
ENDBRANCH   1  13
BRANCH   6  18
ATOM     18  O   UNL     1       6.423  -6.420  27.622  0.00  0.00    -0.507 OA
ATOM     19  H   UNL     1       6.900  -6.130  28.417  0.00  0.00    +0.292 HD
ENDBRANCH   6  18
TORSDOF 3
ENDMDL
MODEL 9
REMARK VINA RESULT:      -6.1      3.359      7.579
REMARK  Name = 
REMARK  3 active torsions:
REMARK  status: ('A' for Active; 'I' for Inactive)
REMARK    1  A    between atoms: O_1  and  C_2
REMARK    2  A    between atoms: C_5  and  C_8
REMARK    3  A    between atoms: C_15  and  O_16
REMARK                            x       y       z     vdW  Elec       q    Type
REMARK                         _______ _______ _______ _____ _____    ______ ____
ROOT
ATOM      1  C   UNL     1       8.972  -0.585  25.155  0.00  0.00    +0.136 A 
ATOM      2  O   UNL     1       9.594  -1.583  24.457  0.00  0.00    -0.455 OA
ATOM      3  C   UNL     1       9.218  -2.765  25.019  0.00  0.00    +0.136 A 
ATOM      4  C   UNL     1       9.629  -4.030  24.602  0.00  0.00    +0.050 A 
ATOM      5  C   UNL     1       9.143  -5.121  25.333  0.00  0.00    +0.049 A 
ATOM      6  C   UNL     1       8.290  -4.921  26.419  0.00  0.00    +0.118 A 
ATOM      7  C   UNL     1       7.883  -3.644  26.813  0.00  0.00    +0.057 A 
ATOM      8  C   UNL     1       8.361  -2.539  26.088  0.00  0.00    +0.024 A 
ATOM      9  C   UNL     1       8.194  -1.132  26.158  0.00  0.00    +0.058 A 
ENDROOT
BRANCH   1  13
ATOM     10  C   UNL     1       9.749   3.391  23.841  0.00  0.00    +0.117 A 
ATOM     11  C   UNL     1      10.605   2.362  23.467  0.00  0.00    +0.046 A 
ATOM     12  C   UNL     1      10.348   1.057  23.899  0.00  0.00    +0.015 A 
ATOM     13  C   UNL     1       9.239   0.777  24.710  0.00  0.00    +0.018 A 
ATOM     14  C   UNL     1       8.386   1.832  25.068  0.00  0.00    +0.015 A 
ATOM     15  C   UNL     1       8.635   3.137  24.632  0.00  0.00    +0.046 A 
BRANCH  10  16
ATOM     16  O   UNL     1      10.040   4.650  23.408  0.00  0.00    -0.507 OA
ATOM     17  H   UNL     1      10.926   4.888  23.725  0.00  0.00    +0.292 HD
ENDBRANCH  10  16
ENDBRANCH   1  13
BRANCH   6  18
ATOM     18  O   UNL     1       7.820  -5.976  27.147  0.00  0.00    -0.507 OA
ATOM     19  H   UNL     1       8.555  -6.587  27.326  0.00  0.00    +0.292 HD
ENDBRANCH   6  18
TORSDOF 3
ENDMDL
