MODEL 1
REMARK VINA RESULT:      -4.8      0.000      0.000
REMARK  Name = 
REMARK  22 active torsions:
REMARK  status: ('A' for Active; 'I' for Inactive)
REMARK    1  A    between atoms: C_2  and  C_3
REMARK    2  A    between atoms: C_2  and  C_13
REMARK    3  A    between atoms: C_2  and  O_19
REMARK    4  A    between atoms: C_3  and  O_4
REMARK    5  A    between atoms: O_4  and  C_5
REMARK    6  A    between atoms: C_5  and  C_7
REMARK    7  A    between atoms: C_7  and  C_8
REMARK    8  A    between atoms: C_8  and  C_9
REMARK    9  A    between atoms: C_9  and  C_10
REMARK   10  A    between atoms: C_10  and  C_11
REMARK   11  A    between atoms: C_11  and  C_12
REMARK   12  A    between atoms: C_13  and  O_14
REMARK   13  A    between atoms: O_14  and  P_15
REMARK   14  A    between atoms: P_15  and  O_16
REMARK   15  A    between atoms: P_15  and  O_17
REMARK   16  A    between atoms: O_19  and  C_20
REMARK   17  A    between atoms: C_20  and  C_22
REMARK   18  A    between atoms: C_22  and  C_23
REMARK   19  A    between atoms: C_23  and  C_24
REMARK   20  A    between atoms: C_24  and  C_25
REMARK   21  A    between atoms: C_25  and  C_26
REMARK   22  A    between atoms: C_26  and  C_27
REMARK                            x       y       z     vdW  Elec       q    Type
REMARK                         _______ _______ _______ _____ _____    ______ ____
ROOT
ATOM      1  C   UNL     1       6.459  -3.835  23.251  0.00  0.00    +0.240 C 
ENDROOT
BRANCH   1   2
ATOM      2  C   UNL     1       5.000  -3.835  22.788  0.00  0.00    +0.220 C 
BRANCH   2   3
ATOM      3  O   UNL     1       4.615  -5.144  22.417  0.00  0.00    -0.283 OA
BRANCH   3   4
ATOM      4  P   UNL     1       3.884  -6.028  23.534  0.00  0.00    +0.472 P 
ATOM      5  O   UNL     1       3.429  -5.256  24.724  0.00  0.00    -0.228 OA
BRANCH   4   6
ATOM      6  O   UNL     1       2.747  -6.745  22.683  0.00  0.00    -0.303 OA
ATOM      7  H   UNL     1       2.922  -6.660  21.729  0.00  0.00    +0.222 HD
ENDBRANCH   4   6
BRANCH   4   8
ATOM      8  O   UNL     1       4.962  -7.174  23.805  0.00  0.00    -0.303 OA
ATOM      9  H   UNL     1       4.798  -7.658  24.634  0.00  0.00    +0.222 HD
ENDBRANCH   4   8
ENDBRANCH   3   4
ENDBRANCH   2   3
ENDBRANCH   1   2
BRANCH   1  10
ATOM     10  C   UNL     1       7.303  -2.957  22.314  0.00  0.00    +0.279 C 
BRANCH  10  11
ATOM     11  O   UNL     1       8.700  -3.009  22.653  0.00  0.00    -0.461 OA
BRANCH  11  12
ATOM     12  C   UNL     1       9.421  -1.897  22.349  0.00  0.00    +0.307 C 
ATOM     13  O   UNL     1      10.640  -1.828  22.325  0.00  0.00    -0.251 OA
BRANCH  12  14
ATOM     14  C   UNL     1       8.499  -0.739  22.057  0.00  0.00    +0.120 C 
BRANCH  14  15
ATOM     15  C   UNL     1       9.203   0.394  21.310  0.00  0.00    +0.011 C 
BRANCH  15  16
ATOM     16  C   UNL     1       9.056   1.777  21.956  0.00  0.00    +0.001 C 
BRANCH  16  17
ATOM     17  C   UNL     1      10.274   2.179  22.787  0.00  0.00    -0.000 C 
BRANCH  17  18
ATOM     18  C   UNL     1      10.070   1.875  24.269  0.00  0.00    -0.003 C 
ATOM     19  C   UNL     1      10.889   0.665  24.693  0.00  0.00    +0.004 C 
ENDBRANCH  17  18
ENDBRANCH  16  17
ENDBRANCH  15  16
ENDBRANCH  14  15
ENDBRANCH  12  14
ENDBRANCH  11  12
ENDBRANCH  10  11
ENDBRANCH   1  10
BRANCH   1  20
ATOM     20  O   UNL     1       6.555  -3.284  24.584  0.00  0.00    -0.456 OA
BRANCH  20  21
ATOM     21  C   UNL     1       7.079  -4.111  25.532  0.00  0.00    +0.308 C 
ATOM     22  O   UNL     1       6.879  -5.314  25.600  0.00  0.00    -0.251 OA
BRANCH  21  23
ATOM     23  C   UNL     1       7.977  -3.347  26.474  0.00  0.00    +0.120 C 
BRANCH  23  24
ATOM     24  C   UNL     1       8.398  -2.002  25.890  0.00  0.00    +0.011 C 
BRANCH  24  25
ATOM     25  C   UNL     1       8.418  -0.901  26.950  0.00  0.00    +0.001 C 
BRANCH  25  26
ATOM     26  C   UNL     1       7.484   0.243  26.554  0.00  0.00    -0.000 C 
BRANCH  26  27
ATOM     27  C   UNL     1       6.940   0.066  25.139  0.00  0.00    -0.003 C 
ATOM     28  C   UNL     1       6.371   1.372  24.605  0.00  0.00    +0.004 C 
ENDBRANCH  26  27
ENDBRANCH  25  26
ENDBRANCH  24  25
ENDBRANCH  23  24
ENDBRANCH  21  23
ENDBRANCH  20  21
ENDBRANCH   1  20
TORSDOF 20
ENDMDL
MODEL 2
REMARK VINA RESULT:      -4.7      1.724      4.624
REMARK  Name = 
REMARK  22 active torsions:
REMARK  status: ('A' for Active; 'I' for Inactive)
REMARK    1  A    between atoms: C_2  and  C_3
REMARK    2  A    between atoms: C_2  and  C_13
REMARK    3  A    between atoms: C_2  and  O_19
REMARK    4  A    between atoms: C_3  and  O_4
REMARK    5  A    between atoms: O_4  and  C_5
REMARK    6  A    between atoms: C_5  and  C_7
REMARK    7  A    between atoms: C_7  and  C_8
REMARK    8  A    between atoms: C_8  and  C_9
REMARK    9  A    between atoms: C_9  and  C_10
REMARK   10  A    between atoms: C_10  and  C_11
REMARK   11  A    between atoms: C_11  and  C_12
REMARK   12  A    between atoms: C_13  and  O_14
REMARK   13  A    between atoms: O_14  and  P_15
REMARK   14  A    between atoms: P_15  and  O_16
REMARK   15  A    between atoms: P_15  and  O_17
REMARK   16  A    between atoms: O_19  and  C_20
REMARK   17  A    between atoms: C_20  and  C_22
REMARK   18  A    between atoms: C_22  and  C_23
REMARK   19  A    between atoms: C_23  and  C_24
REMARK   20  A    between atoms: C_24  and  C_25
REMARK   21  A    between atoms: C_25  and  C_26
REMARK   22  A    between atoms: C_26  and  C_27
REMARK                            x       y       z     vdW  Elec       q    Type
REMARK                         _______ _______ _______ _____ _____    ______ ____
ROOT
ATOM      1  C   UNL     1       8.488  -3.786  24.356  0.00  0.00    +0.240 C 
ENDROOT
BRANCH   1   2
ATOM      2  C   UNL     1       7.749  -4.126  23.059  0.00  0.00    +0.220 C 
BRANCH   2   3
ATOM      3  O   UNL     1       7.007  -5.318  23.230  0.00  0.00    -0.283 OA
BRANCH   3   4
ATOM      4  P   UNL     1       5.512  -5.328  22.657  0.00  0.00    +0.472 P 
ATOM      5  O   UNL     1       4.464  -5.577  23.685  0.00  0.00    -0.228 OA
BRANCH   4   6
ATOM      6  O   UNL     1       5.445  -3.926  21.909  0.00  0.00    -0.303 OA
ATOM      7  H   UNL     1       4.548  -3.547  21.961  0.00  0.00    +0.222 HD
ENDBRANCH   4   6
BRANCH   4   8
ATOM      8  O   UNL     1       5.617  -6.402  21.481  0.00  0.00    -0.303 OA
ATOM      9  H   UNL     1       5.505  -7.318  21.793  0.00  0.00    +0.222 HD
ENDBRANCH   4   8
ENDBRANCH   3   4
ENDBRANCH   2   3
ENDBRANCH   1   2
BRANCH   1  10
ATOM     10  C   UNL     1       8.558  -5.028  25.257  0.00  0.00    +0.279 C 
BRANCH  10  11
ATOM     11  O   UNL     1       8.023  -4.765  26.567  0.00  0.00    -0.461 OA
BRANCH  11  12
ATOM     12  C   UNL     1       6.747  -5.185  26.775  0.00  0.00    +0.307 C 
ATOM     13  O   UNL     1       6.274  -6.239  26.377  0.00  0.00    -0.251 OA
BRANCH  12  14
ATOM     14  C   UNL     1       5.978  -4.153  27.562  0.00  0.00    +0.120 C 
BRANCH  14  15
ATOM     15  C   UNL     1       5.985  -2.780  26.889  0.00  0.00    +0.011 C 
BRANCH  15  16
ATOM     16  C   UNL     1       5.108  -2.676  25.635  0.00  0.00    +0.001 C 
BRANCH  16  17
ATOM     17  C   UNL     1       5.572  -1.584  24.672  0.00  0.00    -0.000 C 
BRANCH  17  18
ATOM     18  C   UNL     1       5.584  -0.211  25.342  0.00  0.00    -0.003 C 
ATOM     19  C   UNL     1       6.069   0.859  24.375  0.00  0.00    +0.004 C 
ENDBRANCH  17  18
ENDBRANCH  16  17
ENDBRANCH  15  16
ENDBRANCH  14  15
ENDBRANCH  12  14
ENDBRANCH  11  12
ENDBRANCH  10  11
ENDBRANCH   1  10
BRANCH   1  20
ATOM     20  O   UNL     1       9.841  -3.372  24.060  0.00  0.00    -0.456 OA
BRANCH  20  21
ATOM     21  C   UNL     1       9.977  -2.136  23.505  0.00  0.00    +0.308 C 
ATOM     22  O   UNL     1      10.605  -1.891  22.487  0.00  0.00    -0.251 OA
BRANCH  21  23
ATOM     23  C   UNL     1       9.212  -1.103  24.298  0.00  0.00    +0.120 C 
BRANCH  23  24
ATOM     24  C   UNL     1      10.143  -0.216  25.119  0.00  0.00    +0.011 C 
BRANCH  24  25
ATOM     25  C   UNL     1      10.620   0.999  24.324  0.00  0.00    +0.001 C 
BRANCH  25  26
ATOM     26  C   UNL     1       9.559   2.100  24.338  0.00  0.00    -0.000 C 
BRANCH  26  27
ATOM     27  C   UNL     1       9.160   2.519  22.925  0.00  0.00    -0.003 C 
ATOM     28  C   UNL     1       9.878   1.676  21.881  0.00  0.00    +0.004 C 
ENDBRANCH  26  27
ENDBRANCH  25  26
ENDBRANCH  24  25
ENDBRANCH  23  24
ENDBRANCH  21  23
ENDBRANCH  20  21
ENDBRANCH   1  20
TORSDOF 20
ENDMDL
MODEL 3
REMARK VINA RESULT:      -4.7      2.288      4.759
REMARK  Name = 
REMARK  22 active torsions:
REMARK  status: ('A' for Active; 'I' for Inactive)
REMARK    1  A    between atoms: C_2  and  C_3
REMARK    2  A    between atoms: C_2  and  C_13
REMARK    3  A    between atoms: C_2  and  O_19
REMARK    4  A    between atoms: C_3  and  O_4
REMARK    5  A    between atoms: O_4  and  C_5
REMARK    6  A    between atoms: C_5  and  C_7
REMARK    7  A    between atoms: C_7  and  C_8
REMARK    8  A    between atoms: C_8  and  C_9
REMARK    9  A    between atoms: C_9  and  C_10
REMARK   10  A    between atoms: C_10  and  C_11
REMARK   11  A    between atoms: C_11  and  C_12
REMARK   12  A    between atoms: C_13  and  O_14
REMARK   13  A    between atoms: O_14  and  P_15
REMARK   14  A    between atoms: P_15  and  O_16
REMARK   15  A    between atoms: P_15  and  O_17
REMARK   16  A    between atoms: O_19  and  C_20
REMARK   17  A    between atoms: C_20  and  C_22
REMARK   18  A    between atoms: C_22  and  C_23
REMARK   19  A    between atoms: C_23  and  C_24
REMARK   20  A    between atoms: C_24  and  C_25
REMARK   21  A    between atoms: C_25  and  C_26
REMARK   22  A    between atoms: C_26  and  C_27
REMARK                            x       y       z     vdW  Elec       q    Type
REMARK                         _______ _______ _______ _____ _____    ______ ____
ROOT
ATOM      1  C   UNL     1       7.726  -2.696  22.537  0.00  0.00    +0.240 C 
ENDROOT
BRANCH   1   2
ATOM      2  C   UNL     1       7.828  -4.123  23.082  0.00  0.00    +0.220 C 
BRANCH   2   3
ATOM      3  O   UNL     1       8.932  -4.222  23.960  0.00  0.00    -0.283 OA
BRANCH   3   4
ATOM      4  P   UNL     1       8.625  -4.689  25.460  0.00  0.00    +0.472 P 
ATOM      5  O   UNL     1       8.783  -3.615  26.479  0.00  0.00    -0.228 OA
BRANCH   4   6
ATOM      6  O   UNL     1       7.167  -5.308  25.311  0.00  0.00    -0.303 OA
ATOM      7  H   UNL     1       6.581  -4.990  26.021  0.00  0.00    +0.222 HD
ENDBRANCH   4   6
BRANCH   4   8
ATOM      8  O   UNL     1       9.583  -5.956  25.614  0.00  0.00    -0.303 OA
ATOM      9  H   UNL     1       9.300  -6.561  26.323  0.00  0.00    +0.222 HD
ENDBRANCH   4   8
ENDBRANCH   3   4
ENDBRANCH   2   3
ENDBRANCH   1   2
BRANCH   1  10
ATOM     10  C   UNL     1       6.373  -2.084  22.932  0.00  0.00    +0.279 C 
BRANCH  10  11
ATOM     11  O   UNL     1       5.888  -2.623  24.175  0.00  0.00    -0.461 OA
BRANCH  11  12
ATOM     12  C   UNL     1       5.471  -1.707  25.090  0.00  0.00    +0.307 C 
ATOM     13  O   UNL     1       4.342  -1.630  25.550  0.00  0.00    -0.251 OA
BRANCH  12  14
ATOM     14  C   UNL     1       6.602  -0.778  25.453  0.00  0.00    +0.120 C 
BRANCH  14  15
ATOM     15  C   UNL     1       6.116   0.639  25.767  0.00  0.00    +0.011 C 
BRANCH  15  16
ATOM     16  C   UNL     1       5.872   1.520  24.535  0.00  0.00    +0.001 C 
BRANCH  16  17
ATOM     17  C   UNL     1       6.161   2.998  24.794  0.00  0.00    -0.000 C 
BRANCH  17  18
ATOM     18  C   UNL     1       6.741   3.683  23.559  0.00  0.00    -0.003 C 
ATOM     19  C   UNL     1       6.043   3.204  22.294  0.00  0.00    +0.004 C 
ENDBRANCH  17  18
ENDBRANCH  16  17
ENDBRANCH  15  16
ENDBRANCH  14  15
ENDBRANCH  12  14
ENDBRANCH  11  12
ENDBRANCH  10  11
ENDBRANCH   1  10
BRANCH   1  20
ATOM     20  O   UNL     1       8.770  -1.874  23.105  0.00  0.00    -0.456 OA
BRANCH  20  21
ATOM     21  C   UNL     1       9.735  -1.457  22.239  0.00  0.00    +0.308 C 
ATOM     22  O   UNL     1      10.887  -1.863  22.225  0.00  0.00    -0.251 OA
BRANCH  21  23
ATOM     23  C   UNL     1       9.182  -0.445  21.264  0.00  0.00    +0.120 C 
BRANCH  23  24
ATOM     24  C   UNL     1       8.842   0.875  21.949  0.00  0.00    +0.011 C 
BRANCH  24  25
ATOM     25  C   UNL     1      10.057   1.797  22.043  0.00  0.00    +0.001 C 
BRANCH  25  26
ATOM     26  C   UNL     1      10.189   2.369  23.455  0.00  0.00    -0.000 C 
BRANCH  26  27
ATOM     27  C   UNL     1       9.619   1.420  24.506  0.00  0.00    -0.003 C 
ATOM     28  C   UNL     1      10.696   0.492  25.047  0.00  0.00    +0.004 C 
ENDBRANCH  26  27
ENDBRANCH  25  26
ENDBRANCH  24  25
ENDBRANCH  23  24
ENDBRANCH  21  23
ENDBRANCH  20  21
ENDBRANCH   1  20
TORSDOF 20
ENDMDL
MODEL 4
REMARK VINA RESULT:      -4.6      2.334      4.727
REMARK  Name = 
REMARK  22 active torsions:
REMARK  status: ('A' for Active; 'I' for Inactive)
REMARK    1  A    between atoms: C_2  and  C_3
REMARK    2  A    between atoms: C_2  and  C_13
REMARK    3  A    between atoms: C_2  and  O_19
REMARK    4  A    between atoms: C_3  and  O_4
REMARK    5  A    between atoms: O_4  and  C_5
REMARK    6  A    between atoms: C_5  and  C_7
REMARK    7  A    between atoms: C_7  and  C_8
REMARK    8  A    between atoms: C_8  and  C_9
REMARK    9  A    between atoms: C_9  and  C_10
REMARK   10  A    between atoms: C_10  and  C_11
REMARK   11  A    between atoms: C_11  and  C_12
REMARK   12  A    between atoms: C_13  and  O_14
REMARK   13  A    between atoms: O_14  and  P_15
REMARK   14  A    between atoms: P_15  and  O_16
REMARK   15  A    between atoms: P_15  and  O_17
REMARK   16  A    between atoms: O_19  and  C_20
REMARK   17  A    between atoms: C_20  and  C_22
REMARK   18  A    between atoms: C_22  and  C_23
REMARK   19  A    between atoms: C_23  and  C_24
REMARK   20  A    between atoms: C_24  and  C_25
REMARK   21  A    between atoms: C_25  and  C_26
REMARK   22  A    between atoms: C_26  and  C_27
REMARK                            x       y       z     vdW  Elec       q    Type
REMARK                         _______ _______ _______ _____ _____    ______ ____
ROOT
ATOM      1  C   UNL     1       7.141  -3.232  23.536  0.00  0.00    +0.240 C 
ENDROOT
BRANCH   1   2
ATOM      2  C   UNL     1       6.836  -3.745  24.946  0.00  0.00    +0.220 C 
BRANCH   2   3
ATOM      3  O   UNL     1       7.489  -4.982  25.157  0.00  0.00    -0.283 OA
BRANCH   3   4
ATOM      4  P   UNL     1       8.566  -5.040  26.339  0.00  0.00    +0.472 P 
ATOM      5  O   UNL     1       8.903  -3.713  26.926  0.00  0.00    -0.228 OA
BRANCH   4   6
ATOM      6  O   UNL     1       7.903  -6.097  27.326  0.00  0.00    -0.303 OA
ATOM      7  H   UNL     1       7.041  -5.779  27.648  0.00  0.00    +0.222 HD
ENDBRANCH   4   6
BRANCH   4   8
ATOM      8  O   UNL     1       9.768  -5.834  25.652  0.00  0.00    -0.303 OA
ATOM      9  H   UNL     1       9.665  -6.801  25.711  0.00  0.00    +0.222 HD
ENDBRANCH   4   8
ENDBRANCH   3   4
ENDBRANCH   2   3
ENDBRANCH   1   2
BRANCH   1  10
ATOM     10  C   UNL     1       8.469  -2.460  23.538  0.00  0.00    +0.279 C 
BRANCH  10  11
ATOM     11  O   UNL     1       8.348  -1.192  22.869  0.00  0.00    -0.461 OA
BRANCH  11  12
ATOM     12  C   UNL     1       9.410  -0.829  22.100  0.00  0.00    +0.307 C 
ATOM     13  O   UNL     1      10.415  -1.500  21.921  0.00  0.00    -0.251 OA
BRANCH  12  14
ATOM     14  C   UNL     1       9.182   0.536  21.503  0.00  0.00    +0.120 C 
BRANCH  14  15
ATOM     15  C   UNL     1      10.150   1.584  22.056  0.00  0.00    +0.011 C 
BRANCH  15  16
ATOM     16  C   UNL     1      10.322   1.559  23.579  0.00  0.00    +0.001 C 
BRANCH  16  17
ATOM     17  C   UNL     1       9.268   2.386  24.312  0.00  0.00    -0.000 C 
BRANCH  17  18
ATOM     18  C   UNL     1       8.298   1.501  25.091  0.00  0.00    -0.003 C 
ATOM     19  C   UNL     1       6.884   2.060  25.029  0.00  0.00    +0.004 C 
ENDBRANCH  17  18
ENDBRANCH  16  17
ENDBRANCH  15  16
ENDBRANCH  14  15
ENDBRANCH  12  14
ENDBRANCH  11  12
ENDBRANCH  10  11
ENDBRANCH   1  10
BRANCH   1  20
ATOM     20  O   UNL     1       7.273  -4.344  22.623  0.00  0.00    -0.456 OA
BRANCH  20  21
ATOM     21  C   UNL     1       6.268  -4.491  21.715  0.00  0.00    +0.308 C 
ATOM     22  O   UNL     1       5.801  -3.591  21.035  0.00  0.00    -0.251 OA
BRANCH  21  23
ATOM     23  C   UNL     1       5.827  -5.933  21.630  0.00  0.00    +0.120 C 
BRANCH  23  24
ATOM     24  C   UNL     1       5.153  -6.396  22.917  0.00  0.00    +0.011 C 
BRANCH  24  25
ATOM     25  C   UNL     1       3.952  -5.522  23.278  0.00  0.00    +0.001 C 
BRANCH  25  26
ATOM     26  C   UNL     1       3.293  -6.019  24.565  0.00  0.00    -0.000 C 
BRANCH  26  27
ATOM     27  C   UNL     1       4.087  -7.155  25.205  0.00  0.00    -0.003 C 
ATOM     28  C   UNL     1       4.583  -6.762  26.589  0.00  0.00    +0.004 C 
ENDBRANCH  26  27
ENDBRANCH  25  26
ENDBRANCH  24  25
ENDBRANCH  23  24
ENDBRANCH  21  23
ENDBRANCH  20  21
ENDBRANCH   1  20
TORSDOF 20
ENDMDL
MODEL 5
REMARK VINA RESULT:      -4.6      2.920      6.272
REMARK  Name = 
REMARK  22 active torsions:
REMARK  status: ('A' for Active; 'I' for Inactive)
REMARK    1  A    between atoms: C_2  and  C_3
REMARK    2  A    between atoms: C_2  and  C_13
REMARK    3  A    between atoms: C_2  and  O_19
REMARK    4  A    between atoms: C_3  and  O_4
REMARK    5  A    between atoms: O_4  and  C_5
REMARK    6  A    between atoms: C_5  and  C_7
REMARK    7  A    between atoms: C_7  and  C_8
REMARK    8  A    between atoms: C_8  and  C_9
REMARK    9  A    between atoms: C_9  and  C_10
REMARK   10  A    between atoms: C_10  and  C_11
REMARK   11  A    between atoms: C_11  and  C_12
REMARK   12  A    between atoms: C_13  and  O_14
REMARK   13  A    between atoms: O_14  and  P_15
REMARK   14  A    between atoms: P_15  and  O_16
REMARK   15  A    between atoms: P_15  and  O_17
REMARK   16  A    between atoms: O_19  and  C_20
REMARK   17  A    between atoms: C_20  and  C_22
REMARK   18  A    between atoms: C_22  and  C_23
REMARK   19  A    between atoms: C_23  and  C_24
REMARK   20  A    between atoms: C_24  and  C_25
REMARK   21  A    between atoms: C_25  and  C_26
REMARK   22  A    between atoms: C_26  and  C_27
REMARK                            x       y       z     vdW  Elec       q    Type
REMARK                         _______ _______ _______ _____ _____    ______ ____
ROOT
ATOM      1  C   UNL     1       8.216  -1.974  25.828  0.00  0.00    +0.240 C 
ENDROOT
BRANCH   1   2
ATOM      2  C   UNL     1       7.646  -0.554  25.861  0.00  0.00    +0.220 C 
BRANCH   2   3
ATOM      3  O   UNL     1       7.519  -0.058  24.543  0.00  0.00    -0.283 OA
BRANCH   3   4
ATOM      4  P   UNL     1       6.355   1.009  24.280  0.00  0.00    +0.472 P 
ATOM      5  O   UNL     1       5.079   0.709  24.987  0.00  0.00    -0.228 OA
BRANCH   4   6
ATOM      6  O   UNL     1       7.074   2.372  24.675  0.00  0.00    -0.303 OA
ATOM      7  H   UNL     1       6.605   3.136  24.293  0.00  0.00    +0.222 HD
ENDBRANCH   4   6
BRANCH   4   8
ATOM      8  O   UNL     1       6.290   1.040  22.685  0.00  0.00    -0.303 OA
ATOM      9  H   UNL     1       7.168   0.970  22.270  0.00  0.00    +0.222 HD
ENDBRANCH   4   8
ENDBRANCH   3   4
ENDBRANCH   2   3
ENDBRANCH   1   2
BRANCH   1  10
ATOM     10  C   UNL     1       7.283  -2.928  26.589  0.00  0.00    +0.279 C 
BRANCH  10  11
ATOM     11  O   UNL     1       7.981  -4.100  27.049  0.00  0.00    -0.461 OA
BRANCH  11  12
ATOM     12  C   UNL     1       7.343  -5.283  26.840  0.00  0.00    +0.307 C 
ATOM     13  O   UNL     1       7.100  -6.117  27.699  0.00  0.00    -0.251 OA
BRANCH  12  14
ATOM     14  C   UNL     1       6.985  -5.435  25.383  0.00  0.00    +0.120 C 
BRANCH  14  15
ATOM     15  C   UNL     1       5.519  -5.820  25.179  0.00  0.00    +0.011 C 
BRANCH  15  16
ATOM     16  C   UNL     1       4.983  -5.577  23.762  0.00  0.00    +0.001 C 
BRANCH  16  17
ATOM     17  C   UNL     1       5.980  -5.971  22.673  0.00  0.00    -0.000 C 
BRANCH  17  18
ATOM     18  C   UNL     1       6.235  -4.823  21.700  0.00  0.00    -0.003 C 
ATOM     19  C   UNL     1       5.705  -3.510  22.260  0.00  0.00    +0.004 C 
ENDBRANCH  17  18
ENDBRANCH  16  17
ENDBRANCH  15  16
ENDBRANCH  14  15
ENDBRANCH  12  14
ENDBRANCH  11  12
ENDBRANCH  10  11
ENDBRANCH   1  10
BRANCH   1  20
ATOM     20  O   UNL     1       8.310  -2.438  24.462  0.00  0.00    -0.456 OA
BRANCH  20  21
ATOM     21  C   UNL     1       9.533  -2.891  24.071  0.00  0.00    +0.308 C 
ATOM     22  O   UNL     1      10.050  -3.929  24.452  0.00  0.00    -0.251 OA
BRANCH  21  23
ATOM     23  C   UNL     1      10.157  -1.953  23.065  0.00  0.00    +0.120 C 
BRANCH  23  24
ATOM     24  C   UNL     1       9.204  -1.639  21.916  0.00  0.00    +0.011 C 
BRANCH  24  25
ATOM     25  C   UNL     1       9.362  -0.201  21.422  0.00  0.00    +0.001 C 
BRANCH  25  26
ATOM     26  C   UNL     1      10.144   0.632  22.438  0.00  0.00    -0.000 C 
BRANCH  26  27
ATOM     27  C   UNL     1       9.842   2.122  22.300  0.00  0.00    -0.003 C 
ATOM     28  C   UNL     1      10.562   2.927  23.372  0.00  0.00    +0.004 C 
ENDBRANCH  26  27
ENDBRANCH  25  26
ENDBRANCH  24  25
ENDBRANCH  23  24
ENDBRANCH  21  23
ENDBRANCH  20  21
ENDBRANCH   1  20
TORSDOF 20
ENDMDL
MODEL 6
REMARK VINA RESULT:      -4.6      2.158      4.199
REMARK  Name = 
REMARK  22 active torsions:
REMARK  status: ('A' for Active; 'I' for Inactive)
REMARK    1  A    between atoms: C_2  and  C_3
REMARK    2  A    between atoms: C_2  and  C_13
REMARK    3  A    between atoms: C_2  and  O_19
REMARK    4  A    between atoms: C_3  and  O_4
REMARK    5  A    between atoms: O_4  and  C_5
REMARK    6  A    between atoms: C_5  and  C_7
REMARK    7  A    between atoms: C_7  and  C_8
REMARK    8  A    between atoms: C_8  and  C_9
REMARK    9  A    between atoms: C_9  and  C_10
REMARK   10  A    between atoms: C_10  and  C_11
REMARK   11  A    between atoms: C_11  and  C_12
REMARK   12  A    between atoms: C_13  and  O_14
REMARK   13  A    between atoms: O_14  and  P_15
REMARK   14  A    between atoms: P_15  and  O_16
REMARK   15  A    between atoms: P_15  and  O_17
REMARK   16  A    between atoms: O_19  and  C_20
REMARK   17  A    between atoms: C_20  and  C_22
REMARK   18  A    between atoms: C_22  and  C_23
REMARK   19  A    between atoms: C_23  and  C_24
REMARK   20  A    between atoms: C_24  and  C_25
REMARK   21  A    between atoms: C_25  and  C_26
REMARK   22  A    between atoms: C_26  and  C_27
REMARK                            x       y       z     vdW  Elec       q    Type
REMARK                         _______ _______ _______ _____ _____    ______ ____
ROOT
ATOM      1  C   UNL     1       7.145  -3.839  26.139  0.00  0.00    +0.240 C 
ENDROOT
BRANCH   1   2
ATOM      2  C   UNL     1       7.097  -5.004  27.130  0.00  0.00    +0.220 C 
BRANCH   2   3
ATOM      3  O   UNL     1       6.378  -6.083  26.566  0.00  0.00    -0.283 OA
BRANCH   3   4
ATOM      4  P   UNL     1       4.993  -6.474  27.267  0.00  0.00    +0.472 P 
ATOM      5  O   UNL     1       4.221  -5.312  27.789  0.00  0.00    -0.228 OA
BRANCH   4   6
ATOM      6  O   UNL     1       4.287  -7.332  26.127  0.00  0.00    -0.303 OA
ATOM      7  H   UNL     1       4.335  -6.874  25.269  0.00  0.00    +0.222 HD
ENDBRANCH   4   6
BRANCH   4   8
ATOM      8  O   UNL     1       5.462  -7.554  28.345  0.00  0.00    -0.303 OA
ATOM      9  H   UNL     1       5.725  -8.400  27.943  0.00  0.00    +0.222 HD
ENDBRANCH   4   8
ENDBRANCH   3   4
ENDBRANCH   2   3
ENDBRANCH   1   2
BRANCH   1  10
ATOM     10  C   UNL     1       6.647  -2.555  26.819  0.00  0.00    +0.279 C 
BRANCH  10  11
ATOM     11  O   UNL     1       6.759  -1.414  25.948  0.00  0.00    -0.461 OA
BRANCH  11  12
ATOM     12  C   UNL     1       7.409  -0.339  26.469  0.00  0.00    +0.307 C 
ATOM     13  O   UNL     1       7.302   0.065  27.617  0.00  0.00    -0.251 OA
BRANCH  12  14
ATOM     14  C   UNL     1       8.280   0.306  25.420  0.00  0.00    +0.120 C 
BRANCH  14  15
ATOM     15  C   UNL     1       9.752  -0.087  25.560  0.00  0.00    +0.011 C 
BRANCH  15  16
ATOM     16  C   UNL     1      10.673   0.478  24.473  0.00  0.00    +0.001 C 
BRANCH  16  17
ATOM     17  C   UNL     1       9.988   1.525  23.597  0.00  0.00    -0.000 C 
BRANCH  17  18
ATOM     18  C   UNL     1       9.987   1.117  22.125  0.00  0.00    -0.003 C 
ATOM     19  C   UNL     1       8.575   1.128  21.560  0.00  0.00    +0.004 C 
ENDBRANCH  17  18
ENDBRANCH  16  17
ENDBRANCH  15  16
ENDBRANCH  14  15
ENDBRANCH  12  14
ENDBRANCH  11  12
ENDBRANCH  10  11
ENDBRANCH   1  10
BRANCH   1  20
ATOM     20  O   UNL     1       8.506  -3.614  25.705  0.00  0.00    -0.456 OA
BRANCH  20  21
ATOM     21  C   UNL     1       8.796  -4.004  24.432  0.00  0.00    +0.308 C 
ATOM     22  O   UNL     1       8.817  -5.160  24.041  0.00  0.00    -0.251 OA
BRANCH  21  23
ATOM     23  C   UNL     1       9.053  -2.806  23.549  0.00  0.00    +0.120 C 
BRANCH  23  24
ATOM     24  C   UNL     1       8.083  -2.751  22.372  0.00  0.00    +0.011 C 
BRANCH  24  25
ATOM     25  C   UNL     1       6.744  -2.128  22.767  0.00  0.00    +0.001 C 
BRANCH  25  26
ATOM     26  C   UNL     1       5.587  -3.038  22.353  0.00  0.00    -0.000 C 
BRANCH  26  27
ATOM     27  C   UNL     1       6.079  -4.411  21.903  0.00  0.00    -0.003 C 
ATOM     28  C   UNL     1       5.512  -5.512  22.788  0.00  0.00    +0.004 C 
ENDBRANCH  26  27
ENDBRANCH  25  26
ENDBRANCH  24  25
ENDBRANCH  23  24
ENDBRANCH  21  23
ENDBRANCH  20  21
ENDBRANCH   1  20
TORSDOF 20
ENDMDL
MODEL 7
REMARK VINA RESULT:      -4.6      1.966      4.350
REMARK  Name = 
REMARK  22 active torsions:
REMARK  status: ('A' for Active; 'I' for Inactive)
REMARK    1  A    between atoms: C_2  and  C_3
REMARK    2  A    between atoms: C_2  and  C_13
REMARK    3  A    between atoms: C_2  and  O_19
REMARK    4  A    between atoms: C_3  and  O_4
REMARK    5  A    between atoms: O_4  and  C_5
REMARK    6  A    between atoms: C_5  and  C_7
REMARK    7  A    between atoms: C_7  and  C_8
REMARK    8  A    between atoms: C_8  and  C_9
REMARK    9  A    between atoms: C_9  and  C_10
REMARK   10  A    between atoms: C_10  and  C_11
REMARK   11  A    between atoms: C_11  and  C_12
REMARK   12  A    between atoms: C_13  and  O_14
REMARK   13  A    between atoms: O_14  and  P_15
REMARK   14  A    between atoms: P_15  and  O_16
REMARK   15  A    between atoms: P_15  and  O_17
REMARK   16  A    between atoms: O_19  and  C_20
REMARK   17  A    between atoms: C_20  and  C_22
REMARK   18  A    between atoms: C_22  and  C_23
REMARK   19  A    between atoms: C_23  and  C_24
REMARK   20  A    between atoms: C_24  and  C_25
REMARK   21  A    between atoms: C_25  and  C_26
REMARK   22  A    between atoms: C_26  and  C_27
REMARK                            x       y       z     vdW  Elec       q    Type
REMARK                         _______ _______ _______ _____ _____    ______ ____
ROOT
ATOM      1  C   UNL     1       5.268  -5.476  23.954  0.00  0.00    +0.240 C 
ENDROOT
BRANCH   1   2
ATOM      2  C   UNL     1       4.206  -6.490  23.519  0.00  0.00    +0.220 C 
BRANCH   2   3
ATOM      3  O   UNL     1       3.906  -7.359  24.594  0.00  0.00    -0.283 OA
BRANCH   3   4
ATOM      4  P   UNL     1       2.406  -7.912  24.680  0.00  0.00    +0.472 P 
ATOM      5  O   UNL     1       1.467  -7.022  25.418  0.00  0.00    -0.228 OA
BRANCH   4   6
ATOM      6  O   UNL     1       2.071  -8.172  23.147  0.00  0.00    -0.303 OA
ATOM      7  H   UNL     1       1.639  -9.037  23.027  0.00  0.00    +0.222 HD
ENDBRANCH   4   6
BRANCH   4   8
ATOM      8  O   UNL     1       2.627  -9.370  25.293  0.00  0.00    -0.303 OA
ATOM      9  H   UNL     1       3.221  -9.921  24.752  0.00  0.00    +0.222 HD
ENDBRANCH   4   8
ENDBRANCH   3   4
ENDBRANCH   2   3
ENDBRANCH   1   2
BRANCH   1  10
ATOM     10  C   UNL     1       5.803  -5.846  25.346  0.00  0.00    +0.279 C 
BRANCH  10  11
ATOM     11  O   UNL     1       7.221  -5.623  25.447  0.00  0.00    -0.461 OA
BRANCH  11  12
ATOM     12  C   UNL     1       7.654  -5.123  26.635  0.00  0.00    +0.307 C 
ATOM     13  O   UNL     1       7.506  -5.657  27.723  0.00  0.00    -0.251 OA
BRANCH  12  14
ATOM     14  C   UNL     1       8.338  -3.795  26.426  0.00  0.00    +0.120 C 
BRANCH  14  15
ATOM     15  C   UNL     1       7.352  -2.626  26.410  0.00  0.00    +0.011 C 
BRANCH  15  16
ATOM     16  C   UNL     1       7.974  -1.257  26.710  0.00  0.00    +0.001 C 
BRANCH  16  17
ATOM     17  C   UNL     1       7.960  -0.319  25.505  0.00  0.00    -0.000 C 
BRANCH  17  18
ATOM     18  C   UNL     1       6.598  -0.306  24.816  0.00  0.00    -0.003 C 
ATOM     19  C   UNL     1       6.380   1.001  24.068  0.00  0.00    +0.004 C 
ENDBRANCH  17  18
ENDBRANCH  16  17
ENDBRANCH  15  16
ENDBRANCH  14  15
ENDBRANCH  12  14
ENDBRANCH  11  12
ENDBRANCH  10  11
ENDBRANCH   1  10
BRANCH   1  20
ATOM     20  O   UNL     1       6.379  -5.496  23.030  0.00  0.00    -0.456 OA
BRANCH  20  21
ATOM     21  C   UNL     1       6.270  -4.671  21.951  0.00  0.00    +0.308 C 
ATOM     22  O   UNL     1       5.967  -5.028  20.824  0.00  0.00    -0.251 OA
BRANCH  21  23
ATOM     23  C   UNL     1       6.538  -3.238  22.342  0.00  0.00    +0.120 C 
BRANCH  23  24
ATOM     24  C   UNL     1       7.987  -3.029  22.772  0.00  0.00    +0.011 C 
BRANCH  24  25
ATOM     25  C   UNL     1       8.611  -1.809  22.095  0.00  0.00    +0.001 C 
BRANCH  25  26
ATOM     26  C   UNL     1      10.020  -1.558  22.634  0.00  0.00    -0.000 C 
BRANCH  26  27
ATOM     27  C   UNL     1      10.334  -0.067  22.727  0.00  0.00    -0.003 C 
ATOM     28  C   UNL     1       9.492   0.731  21.742  0.00  0.00    +0.004 C 
ENDBRANCH  26  27
ENDBRANCH  25  26
ENDBRANCH  24  25
ENDBRANCH  23  24
ENDBRANCH  21  23
ENDBRANCH  20  21
ENDBRANCH   1  20
TORSDOF 20
ENDMDL
MODEL 8
REMARK VINA RESULT:      -4.6      1.985      3.298
REMARK  Name = 
REMARK  22 active torsions:
REMARK  status: ('A' for Active; 'I' for Inactive)
REMARK    1  A    between atoms: C_2  and  C_3
REMARK    2  A    between atoms: C_2  and  C_13
REMARK    3  A    between atoms: C_2  and  O_19
REMARK    4  A    between atoms: C_3  and  O_4
REMARK    5  A    between atoms: O_4  and  C_5
REMARK    6  A    between atoms: C_5  and  C_7
REMARK    7  A    between atoms: C_7  and  C_8
REMARK    8  A    between atoms: C_8  and  C_9
REMARK    9  A    between atoms: C_9  and  C_10
REMARK   10  A    between atoms: C_10  and  C_11
REMARK   11  A    between atoms: C_11  and  C_12
REMARK   12  A    between atoms: C_13  and  O_14
REMARK   13  A    between atoms: O_14  and  P_15
REMARK   14  A    between atoms: P_15  and  O_16
REMARK   15  A    between atoms: P_15  and  O_17
REMARK   16  A    between atoms: O_19  and  C_20
REMARK   17  A    between atoms: C_20  and  C_22
REMARK   18  A    between atoms: C_22  and  C_23
REMARK   19  A    between atoms: C_23  and  C_24
REMARK   20  A    between atoms: C_24  and  C_25
REMARK   21  A    between atoms: C_25  and  C_26
REMARK   22  A    between atoms: C_26  and  C_27
REMARK                            x       y       z     vdW  Elec       q    Type
REMARK                         _______ _______ _______ _____ _____    ______ ____
ROOT
ATOM      1  C   UNL     1       8.701  -3.216  23.461  0.00  0.00    +0.240 C 
ENDROOT
BRANCH   1   2
ATOM      2  C   UNL     1       7.398  -3.512  22.715  0.00  0.00    +0.220 C 
BRANCH   2   3
ATOM      3  O   UNL     1       7.247  -4.909  22.549  0.00  0.00    -0.283 OA
BRANCH   3   4
ATOM      4  P   UNL     1       5.879  -5.416  21.892  0.00  0.00    +0.472 P 
ATOM      5  O   UNL     1       5.987  -5.772  20.450  0.00  0.00    -0.228 OA
BRANCH   4   6
ATOM      6  O   UNL     1       5.467  -6.595  22.879  0.00  0.00    -0.303 OA
ATOM      7  H   UNL     1       5.665  -6.359  23.803  0.00  0.00    +0.222 HD
ENDBRANCH   4   6
BRANCH   4   8
ATOM      8  O   UNL     1       4.878  -4.226  22.254  0.00  0.00    -0.303 OA
ATOM      9  H   UNL     1       5.133  -3.751  23.065  0.00  0.00    +0.222 HD
ENDBRANCH   4   8
ENDBRANCH   3   4
ENDBRANCH   2   3
ENDBRANCH   1   2
BRANCH   1  10
ATOM     10  C   UNL     1       9.127  -1.762  23.210  0.00  0.00    +0.279 C 
BRANCH  10  11
ATOM     11  O   UNL     1      10.156  -1.344  24.125  0.00  0.00    -0.461 OA
BRANCH  11  12
ATOM     12  C   UNL     1       9.920  -0.177  24.782  0.00  0.00    +0.307 C 
ATOM     13  O   UNL     1       9.016   0.014  25.582  0.00  0.00    -0.251 OA
BRANCH  12  14
ATOM     14  C   UNL     1      10.928   0.867  24.375  0.00  0.00    +0.120 C 
BRANCH  14  15
ATOM     15  C   UNL     1      10.298   2.005  23.570  0.00  0.00    +0.011 C 
BRANCH  15  16
ATOM     16  C   UNL     1       9.911   1.637  22.133  0.00  0.00    +0.001 C 
BRANCH  16  17
ATOM     17  C   UNL     1       8.526   2.147  21.739  0.00  0.00    -0.000 C 
BRANCH  17  18
ATOM     18  C   UNL     1       7.418   1.395  22.474  0.00  0.00    -0.003 C 
ATOM     19  C   UNL     1       6.241   2.314  22.767  0.00  0.00    +0.004 C 
ENDBRANCH  17  18
ENDBRANCH  16  17
ENDBRANCH  15  16
ENDBRANCH  14  15
ENDBRANCH  12  14
ENDBRANCH  11  12
ENDBRANCH  10  11
ENDBRANCH   1  10
BRANCH   1  20
ATOM     20  O   UNL     1       8.507  -3.385  24.883  0.00  0.00    -0.456 OA
BRANCH  20  21
ATOM     21  C   UNL     1       9.107  -4.474  25.441  0.00  0.00    +0.308 C 
ATOM     22  O   UNL     1      10.175  -4.945  25.083  0.00  0.00    -0.251 OA
BRANCH  21  23
ATOM     23  C   UNL     1       8.291  -5.005  26.595  0.00  0.00    +0.120 C 
BRANCH  23  24
ATOM     24  C   UNL     1       6.906  -5.462  26.146  0.00  0.00    +0.011 C 
BRANCH  24  25
ATOM     25  C   UNL     1       5.796  -4.637  26.798  0.00  0.00    +0.001 C 
BRANCH  25  26
ATOM     26  C   UNL     1       4.884  -4.027  25.733  0.00  0.00    -0.000 C 
BRANCH  26  27
ATOM     27  C   UNL     1       5.147  -2.534  25.551  0.00  0.00    -0.003 C 
ATOM     28  C   UNL     1       5.829  -1.946  26.778  0.00  0.00    +0.004 C 
ENDBRANCH  26  27
ENDBRANCH  25  26
ENDBRANCH  24  25
ENDBRANCH  23  24
ENDBRANCH  21  23
ENDBRANCH  20  21
ENDBRANCH   1  20
TORSDOF 20
ENDMDL
MODEL 9
REMARK VINA RESULT:      -4.6      3.525      7.157
REMARK  Name = 
REMARK  22 active torsions:
REMARK  status: ('A' for Active; 'I' for Inactive)
REMARK    1  A    between atoms: C_2  and  C_3
REMARK    2  A    between atoms: C_2  and  C_13
REMARK    3  A    between atoms: C_2  and  O_19
REMARK    4  A    between atoms: C_3  and  O_4
REMARK    5  A    between atoms: O_4  and  C_5
REMARK    6  A    between atoms: C_5  and  C_7
REMARK    7  A    between atoms: C_7  and  C_8
REMARK    8  A    between atoms: C_8  and  C_9
REMARK    9  A    between atoms: C_9  and  C_10
REMARK   10  A    between atoms: C_10  and  C_11
REMARK   11  A    between atoms: C_11  and  C_12
REMARK   12  A    between atoms: C_13  and  O_14
REMARK   13  A    between atoms: O_14  and  P_15
REMARK   14  A    between atoms: P_15  and  O_16
REMARK   15  A    between atoms: P_15  and  O_17
REMARK   16  A    between atoms: O_19  and  C_20
REMARK   17  A    between atoms: C_20  and  C_22
REMARK   18  A    between atoms: C_22  and  C_23
REMARK   19  A    between atoms: C_23  and  C_24
REMARK   20  A    between atoms: C_24  and  C_25
REMARK   21  A    between atoms: C_25  and  C_26
REMARK   22  A    between atoms: C_26  and  C_27
REMARK                            x       y       z     vdW  Elec       q    Type
REMARK                         _______ _______ _______ _____ _____    ______ ____
ROOT
ATOM      1  C   UNL     1       9.056  -1.630  23.660  0.00  0.00    +0.240 C 
ENDROOT
BRANCH   1   2
ATOM      2  C   UNL     1      10.095  -0.507  23.607  0.00  0.00    +0.220 C 
BRANCH   2   3
ATOM      3  O   UNL     1      10.071   0.107  22.333  0.00  0.00    -0.283 OA
BRANCH   3   4
ATOM      4  P   UNL     1       9.290   1.499  22.215  0.00  0.00    +0.472 P 
ATOM      5  O   UNL     1       8.019   1.423  21.441  0.00  0.00    -0.228 OA
BRANCH   4   6
ATOM      6  O   UNL     1       9.159   1.925  23.742  0.00  0.00    -0.303 OA
ATOM      7  H   UNL     1       8.906   1.164  24.294  0.00  0.00    +0.222 HD
ENDBRANCH   4   6
BRANCH   4   8
ATOM      8  O   UNL     1      10.419   2.462  21.627  0.00  0.00    -0.303 OA
ATOM      9  H   UNL     1      10.633   3.202  22.223  0.00  0.00    +0.222 HD
ENDBRANCH   4   8
ENDBRANCH   3   4
ENDBRANCH   2   3
ENDBRANCH   1   2
BRANCH   1  10
ATOM     10  C   UNL     1       9.736  -2.950  24.052  0.00  0.00    +0.279 C 
BRANCH  10  11
ATOM     11  O   UNL     1       9.222  -3.465  25.294  0.00  0.00    -0.461 OA
BRANCH  11  12
ATOM     12  C   UNL     1       8.946  -4.796  25.309  0.00  0.00    +0.307 C 
ATOM     13  O   UNL     1       9.293  -5.601  24.458  0.00  0.00    -0.251 OA
BRANCH  12  14
ATOM     14  C   UNL     1       8.130  -5.148  26.527  0.00  0.00    +0.120 C 
BRANCH  14  15
ATOM     15  C   UNL     1       7.144  -4.043  26.910  0.00  0.00    +0.011 C 
BRANCH  15  16
ATOM     16  C   UNL     1       5.927  -4.518  27.714  0.00  0.00    +0.001 C 
BRANCH  16  17
ATOM     17  C   UNL     1       6.140  -5.884  28.365  0.00  0.00    -0.000 C 
BRANCH  17  18
ATOM     18  C   UNL     1       4.977  -6.831  28.080  0.00  0.00    -0.003 C 
ATOM     19  C   UNL     1       4.664  -6.874  26.591  0.00  0.00    +0.004 C 
ENDBRANCH  17  18
ENDBRANCH  16  17
ENDBRANCH  15  16
ENDBRANCH  14  15
ENDBRANCH  12  14
ENDBRANCH  11  12
ENDBRANCH  10  11
ENDBRANCH   1  10
BRANCH   1  20
ATOM     20  O   UNL     1       8.054  -1.331  24.658  0.00  0.00    -0.456 OA
BRANCH  20  21
ATOM     21  C   UNL     1       6.801  -1.079  24.186  0.00  0.00    +0.308 C 
ATOM     22  O   UNL     1       6.242   0.005  24.228  0.00  0.00    -0.251 OA
BRANCH  21  23
ATOM     23  C   UNL     1       6.203  -2.318  23.563  0.00  0.00    +0.120 C 
BRANCH  23  24
ATOM     24  C   UNL     1       4.924  -2.748  24.275  0.00  0.00    +0.011 C 
BRANCH  24  25
ATOM     25  C   UNL     1       4.616  -4.228  24.046  0.00  0.00    +0.001 C 
BRANCH  25  26
ATOM     26  C   UNL     1       5.850  -4.957  23.514  0.00  0.00    -0.000 C 
BRANCH  26  27
ATOM     27  C   UNL     1       5.563  -5.665  22.192  0.00  0.00    -0.003 C 
ATOM     28  C   UNL     1       6.850  -5.935  21.426  0.00  0.00    +0.004 C 
ENDBRANCH  26  27
ENDBRANCH  25  26
ENDBRANCH  24  25
ENDBRANCH  23  24
ENDBRANCH  21  23
ENDBRANCH  20  21
ENDBRANCH   1  20
TORSDOF 20
ENDMDL
