MODEL 1
REMARK VINA RESULT:      -6.5      0.000      0.000
REMARK  Name = 
REMARK  10 active torsions:
REMARK  status: ('A' for Active; 'I' for Inactive)
REMARK    1  A    between atoms: C_1  and  C_2
REMARK    2  A    between atoms: C_2  and  C_3
REMARK    3  A    between atoms: C_3  and  C_4
REMARK    4  A    between atoms: N_6  and  C_7
REMARK    5  A    between atoms: C_11  and  C_15
REMARK    6  A    between atoms: C_16  and  O_17
REMARK    7  A    between atoms: O_17  and  C_18
REMARK    8  A    between atoms: C_18  and  C_19
REMARK    9  A    between atoms: C_21  and  S_23
REMARK   10  A    between atoms: S_23  and  N_24
REMARK                            x       y       z     vdW  Elec       q    Type
REMARK                         _______ _______ _______ _____ _____    ______ ____
ROOT
ATOM      1  C   UNL     1       8.524  -4.648  24.198  0.00  0.00    +0.089 A 
ATOM      2  C   UNL     1       7.836  -3.461  23.887  0.00  0.00    +0.119 A 
ATOM      3  N   UNL     1       7.943  -2.176  24.434  0.00  0.00    -0.225 NA
ATOM      4  C   UNL     1       7.178  -1.304  23.841  0.00  0.00    +0.146 A 
ATOM      5  N   UNL     1       6.311  -1.570  22.796  0.00  0.00    -0.305 N 
ATOM      6  H   UNL     1       5.764  -0.823  22.390  0.00  0.00    +0.170 HD
ATOM      7  C   UNL     1       6.149  -2.814  22.242  0.00  0.00    +0.278 A 
ATOM      8  O   UNL     1       5.373  -3.032  21.320  0.00  0.00    -0.265 OA
ATOM      9  C   UNL     1       6.990  -3.768  22.862  0.00  0.00    +0.151 A 
ATOM     10  N   UNL     1       7.167  -5.093  22.615  0.00  0.00    -0.260 N 
ATOM     11  C   UNL     1       6.499  -5.888  21.613  0.00  0.00    +0.173 C 
ATOM     12  N   UNL     1       8.093  -5.661  23.422  0.00  0.00    -0.174 NA
ENDROOT
BRANCH   4  13
ATOM     13  C   UNL     1       7.208   0.083  24.309  0.00  0.00    +0.068 A 
ATOM     14  C   UNL     1       6.986   0.498  25.670  0.00  0.00    +0.051 A 
ATOM     15  C   UNL     1       7.028   1.866  25.828  0.00  0.00    +0.146 A 
ATOM     16  S   UNL     1       7.394   2.648  24.365  0.00  0.00    -0.031 S 
ATOM     17  C   UNL     1       7.474   1.175  23.486  0.00  0.00    +0.171 A 
BRANCH  15  18
ATOM     18  S   UNL     1       6.803   2.936  27.226  0.00  0.00    +0.062 S 
ATOM     19  O   UNL     1       5.380   2.946  27.459  0.00  0.00    -0.153 OA
ATOM     20  O   UNL     1       7.573   4.124  26.944  0.00  0.00    -0.153 OA
BRANCH  18  21
ATOM     21  N   UNL     1       7.513   2.162  28.535  0.00  0.00    -0.203 NA
ATOM     22  H   UNL     1       7.372   1.154  28.511  0.00  0.00    +0.144 HD
ATOM     23  H   UNL     1       8.470   2.470  28.697  0.00  0.00    +0.144 HD
ENDBRANCH  18  21
ENDBRANCH  15  18
BRANCH  17  24
ATOM     24  O   UNL     1       7.710   1.120  22.162  0.00  0.00    -0.485 OA
BRANCH  24  25
ATOM     25  C   UNL     1       8.995   0.649  21.746  0.00  0.00    +0.226 C 
ATOM     26  C   UNL     1      10.011   1.749  21.985  0.00  0.00    +0.048 C 
ENDBRANCH  24  25
ENDBRANCH  17  24
ENDBRANCH   4  13
BRANCH   1  27
ATOM     27  C   UNL     1       9.589  -4.878  25.217  0.00  0.00    +0.059 C 
BRANCH  27  29
ATOM     28  C   UNL     1       7.807  -5.286  26.959  0.00  0.00    +0.004 C 
ATOM     29  C   UNL     1       9.114  -4.578  26.642  0.00  0.00    +0.003 C 
ENDBRANCH  27  29
ENDBRANCH   1  27
TORSDOF 7
ENDMDL
MODEL 2
REMARK VINA RESULT:      -6.4      3.411      7.372
REMARK  Name = 
REMARK  10 active torsions:
REMARK  status: ('A' for Active; 'I' for Inactive)
REMARK    1  A    between atoms: C_1  and  C_2
REMARK    2  A    between atoms: C_2  and  C_3
REMARK    3  A    between atoms: C_3  and  C_4
REMARK    4  A    between atoms: N_6  and  C_7
REMARK    5  A    between atoms: C_11  and  C_15
REMARK    6  A    between atoms: C_16  and  O_17
REMARK    7  A    between atoms: O_17  and  C_18
REMARK    8  A    between atoms: C_18  and  C_19
REMARK    9  A    between atoms: C_21  and  S_23
REMARK   10  A    between atoms: S_23  and  N_24
REMARK                            x       y       z     vdW  Elec       q    Type
REMARK                         _______ _______ _______ _____ _____    ______ ____
ROOT
ATOM      1  C   UNL     1       8.647   2.535  23.096  0.00  0.00    +0.089 A 
ATOM      2  C   UNL     1       7.825   1.425  23.362  0.00  0.00    +0.119 A 
ATOM      3  N   UNL     1       8.033   0.060  23.128  0.00  0.00    -0.225 NA
ATOM      4  C   UNL     1       7.062  -0.687  23.571  0.00  0.00    +0.146 A 
ATOM      5  N   UNL     1       5.911  -0.231  24.190  0.00  0.00    -0.305 N 
ATOM      6  H   UNL     1       5.215  -0.890  24.513  0.00  0.00    +0.170 HD
ATOM      7  C   UNL     1       5.647   1.095  24.420  0.00  0.00    +0.278 A 
ATOM      8  O   UNL     1       4.621   1.480  24.966  0.00  0.00    -0.265 OA
ATOM      9  C   UNL     1       6.703   1.918  23.963  0.00  0.00    +0.151 A 
ATOM     10  N   UNL     1       6.866   3.267  24.011  0.00  0.00    -0.260 N 
ATOM     11  C   UNL     1       5.948   4.234  24.563  0.00  0.00    +0.173 C 
ATOM     12  N   UNL     1       8.041   3.675  23.480  0.00  0.00    -0.174 NA
ENDROOT
BRANCH   4  13
ATOM     13  C   UNL     1       7.164  -2.137  23.401  0.00  0.00    +0.068 A 
ATOM     14  C   UNL     1       6.410  -2.911  22.450  0.00  0.00    +0.051 A 
ATOM     15  C   UNL     1       6.669  -4.262  22.529  0.00  0.00    +0.146 A 
ATOM     16  S   UNL     1       7.857  -4.597  23.696  0.00  0.00    -0.031 S 
ATOM     17  C   UNL     1       8.026  -2.946  24.138  0.00  0.00    +0.171 A 
BRANCH  15  18
ATOM     18  S   UNL     1       6.037  -5.674  21.659  0.00  0.00    +0.062 S 
ATOM     19  O   UNL     1       6.899  -6.763  22.048  0.00  0.00    -0.153 OA
ATOM     20  O   UNL     1       5.857  -5.249  20.292  0.00  0.00    -0.153 OA
BRANCH  18  21
ATOM     21  N   UNL     1       4.521  -5.990  22.304  0.00  0.00    -0.203 NA
ATOM     22  H   UNL     1       4.502  -6.852  22.845  0.00  0.00    +0.144 HD
ATOM     23  H   UNL     1       4.114  -5.175  22.760  0.00  0.00    +0.144 HD
ENDBRANCH  18  21
ENDBRANCH  15  18
BRANCH  17  24
ATOM     24  O   UNL     1       8.854  -2.527  25.113  0.00  0.00    -0.485 OA
BRANCH  24  25
ATOM     25  C   UNL     1       8.276  -2.271  26.396  0.00  0.00    +0.226 C 
ATOM     26  C   UNL     1       8.719  -0.897  26.858  0.00  0.00    +0.048 C 
ENDBRANCH  24  25
ENDBRANCH  17  24
ENDBRANCH   4  13
BRANCH   1  27
ATOM     27  C   UNL     1      10.005   2.573  22.479  0.00  0.00    +0.059 C 
BRANCH  27  29
ATOM     28  C   UNL     1      11.738   4.217  23.297  0.00  0.00    +0.004 C 
ATOM     29  C   UNL     1      11.109   2.849  23.505  0.00  0.00    +0.003 C 
ENDBRANCH  27  29
ENDBRANCH   1  27
TORSDOF 7
ENDMDL
MODEL 3
REMARK VINA RESULT:      -6.3      3.632      7.581
REMARK  Name = 
REMARK  10 active torsions:
REMARK  status: ('A' for Active; 'I' for Inactive)
REMARK    1  A    between atoms: C_1  and  C_2
REMARK    2  A    between atoms: C_2  and  C_3
REMARK    3  A    between atoms: C_3  and  C_4
REMARK    4  A    between atoms: N_6  and  C_7
REMARK    5  A    between atoms: C_11  and  C_15
REMARK    6  A    between atoms: C_16  and  O_17
REMARK    7  A    between atoms: O_17  and  C_18
REMARK    8  A    between atoms: C_18  and  C_19
REMARK    9  A    between atoms: C_21  and  S_23
REMARK   10  A    between atoms: S_23  and  N_24
REMARK                            x       y       z     vdW  Elec       q    Type
REMARK                         _______ _______ _______ _____ _____    ______ ____
ROOT
ATOM      1  C   UNL     1       7.481   2.582  22.636  0.00  0.00    +0.089 A 
ATOM      2  C   UNL     1       8.002   1.341  23.047  0.00  0.00    +0.119 A 
ATOM      3  N   UNL     1       7.426   0.065  23.043  0.00  0.00    -0.225 NA
ATOM      4  C   UNL     1       8.245  -0.866  23.445  0.00  0.00    +0.146 A 
ATOM      5  N   UNL     1       9.546  -0.667  23.870  0.00  0.00    -0.305 N 
ATOM      6  H   UNL     1      10.112  -1.455  24.154  0.00  0.00    +0.170 HD
ATOM      7  C   UNL     1      10.149   0.564  23.918  0.00  0.00    +0.278 A 
ATOM      8  O   UNL     1      11.302   0.722  24.301  0.00  0.00    -0.265 OA
ATOM      9  C   UNL     1       9.279   1.583  23.463  0.00  0.00    +0.151 A 
ATOM     10  N   UNL     1       9.472   2.922  23.323  0.00  0.00    -0.260 N 
ATOM     11  C   UNL     1      10.671   3.665  23.627  0.00  0.00    +0.173 C 
ATOM     12  N   UNL     1       8.387   3.561  22.827  0.00  0.00    -0.174 NA
ENDROOT
BRANCH   4  13
ATOM     13  C   UNL     1       7.767  -2.249  23.474  0.00  0.00    +0.068 A 
ATOM     14  C   UNL     1       7.262  -2.970  22.335  0.00  0.00    +0.051 A 
ATOM     15  C   UNL     1       6.839  -4.244  22.649  0.00  0.00    +0.146 A 
ATOM     16  S   UNL     1       7.105  -4.597  24.289  0.00  0.00    -0.031 S 
ATOM     17  C   UNL     1       7.762  -3.045  24.617  0.00  0.00    +0.171 A 
BRANCH  15  18
ATOM     18  S   UNL     1       6.114  -5.554  21.696  0.00  0.00    +0.062 S 
ATOM     19  O   UNL     1       6.941  -6.705  21.962  0.00  0.00    -0.153 OA
ATOM     20  O   UNL     1       5.902  -5.013  20.375  0.00  0.00    -0.153 OA
BRANCH  18  21
ATOM     21  N   UNL     1       4.610  -5.858  22.374  0.00  0.00    -0.203 NA
ATOM     22  H   UNL     1       4.281  -6.802  22.179  0.00  0.00    +0.144 HD
ATOM     23  H   UNL     1       4.556  -5.565  23.348  0.00  0.00    +0.144 HD
ENDBRANCH  18  21
ENDBRANCH  15  18
BRANCH  17  24
ATOM     24  O   UNL     1       8.160  -2.659  25.844  0.00  0.00    -0.485 OA
BRANCH  24  25
ATOM     25  C   UNL     1       7.173  -2.075  26.698  0.00  0.00    +0.226 C 
ATOM     26  C   UNL     1       7.565  -0.636  26.973  0.00  0.00    +0.048 C 
ENDBRANCH  24  25
ENDBRANCH  17  24
ENDBRANCH   4  13
BRANCH   1  27
ATOM     27  C   UNL     1       6.141   2.895  22.062  0.00  0.00    +0.059 C 
BRANCH  27  29
ATOM     28  C   UNL     1       3.724   3.397  22.595  0.00  0.00    +0.004 C 
ATOM     29  C   UNL     1       5.150   3.390  23.121  0.00  0.00    +0.003 C 
ENDBRANCH  27  29
ENDBRANCH   1  27
TORSDOF 7
ENDMDL
MODEL 4
REMARK VINA RESULT:      -6.2      3.888      6.774
REMARK  Name = 
REMARK  10 active torsions:
REMARK  status: ('A' for Active; 'I' for Inactive)
REMARK    1  A    between atoms: C_1  and  C_2
REMARK    2  A    between atoms: C_2  and  C_3
REMARK    3  A    between atoms: C_3  and  C_4
REMARK    4  A    between atoms: N_6  and  C_7
REMARK    5  A    between atoms: C_11  and  C_15
REMARK    6  A    between atoms: C_16  and  O_17
REMARK    7  A    between atoms: O_17  and  C_18
REMARK    8  A    between atoms: C_18  and  C_19
REMARK    9  A    between atoms: C_21  and  S_23
REMARK   10  A    between atoms: S_23  and  N_24
REMARK                            x       y       z     vdW  Elec       q    Type
REMARK                         _______ _______ _______ _____ _____    ______ ____
ROOT
ATOM      1  C   UNL     1       8.049   1.496  24.951  0.00  0.00    +0.089 A 
ATOM      2  C   UNL     1       8.069   0.138  24.583  0.00  0.00    +0.119 A 
ATOM      3  N   UNL     1       7.447  -0.973  25.167  0.00  0.00    -0.225 NA
ATOM      4  C   UNL     1       7.647  -2.076  24.502  0.00  0.00    +0.146 A 
ATOM      5  N   UNL     1       8.407  -2.200  23.353  0.00  0.00    -0.305 N 
ATOM      6  H   UNL     1       8.495  -3.099  22.898  0.00  0.00    +0.170 HD
ATOM      7  C   UNL     1       9.057  -1.150  22.756  0.00  0.00    +0.278 A 
ATOM      8  O   UNL     1       9.729  -1.278  21.741  0.00  0.00    -0.265 OA
ATOM      9  C   UNL     1       8.833   0.060  23.455  0.00  0.00    +0.151 A 
ATOM     10  N   UNL     1       9.258   1.326  23.203  0.00  0.00    -0.260 N 
ATOM     11  C   UNL     1      10.093   1.762  22.109  0.00  0.00    +0.173 C 
ATOM     12  N   UNL     1       8.803   2.225  24.106  0.00  0.00    -0.174 NA
ENDROOT
BRANCH   4  13
ATOM     13  C   UNL     1       7.037  -3.310  25.001  0.00  0.00    +0.068 A 
ATOM     14  C   UNL     1       6.873  -3.646  26.391  0.00  0.00    +0.051 A 
ATOM     15  C   UNL     1       6.308  -4.888  26.582  0.00  0.00    +0.146 A 
ATOM     16  S   UNL     1       5.916  -5.623  25.102  0.00  0.00    -0.031 S 
ATOM     17  C   UNL     1       6.522  -4.309  24.177  0.00  0.00    +0.171 A 
BRANCH  15  18
ATOM     18  S   UNL     1       5.901  -5.829  28.031  0.00  0.00    +0.062 S 
ATOM     19  O   UNL     1       5.002  -4.985  28.779  0.00  0.00    -0.153 OA
ATOM     20  O   UNL     1       7.155  -6.316  28.552  0.00  0.00    -0.153 OA
BRANCH  18  21
ATOM     21  N   UNL     1       5.014  -7.152  27.504  0.00  0.00    -0.203 NA
ATOM     22  H   UNL     1       5.602  -7.960  27.310  0.00  0.00    +0.144 HD
ATOM     23  H   UNL     1       4.198  -7.330  28.086  0.00  0.00    +0.144 HD
ENDBRANCH  18  21
ENDBRANCH  15  18
BRANCH  17  24
ATOM     24  O   UNL     1       6.535  -4.300  22.831  0.00  0.00    -0.485 OA
BRANCH  24  25
ATOM     25  C   UNL     1       7.095  -5.441  22.175  0.00  0.00    +0.226 C 
ATOM     26  C   UNL     1       6.168  -5.850  21.047  0.00  0.00    +0.048 C 
ENDBRANCH  24  25
ENDBRANCH  17  24
ENDBRANCH   4  13
BRANCH   1  27
ATOM     27  C   UNL     1       7.341   2.152  26.089  0.00  0.00    +0.059 C 
BRANCH  27  29
ATOM     28  C   UNL     1       7.615   4.636  26.451  0.00  0.00    +0.004 C 
ATOM     29  C   UNL     1       6.829   3.551  25.733  0.00  0.00    +0.003 C 
ENDBRANCH  27  29
ENDBRANCH   1  27
TORSDOF 7
ENDMDL
MODEL 5
REMARK VINA RESULT:      -6.2      3.260      4.575
REMARK  Name = 
REMARK  10 active torsions:
REMARK  status: ('A' for Active; 'I' for Inactive)
REMARK    1  A    between atoms: C_1  and  C_2
REMARK    2  A    between atoms: C_2  and  C_3
REMARK    3  A    between atoms: C_3  and  C_4
REMARK    4  A    between atoms: N_6  and  C_7
REMARK    5  A    between atoms: C_11  and  C_15
REMARK    6  A    between atoms: C_16  and  O_17
REMARK    7  A    between atoms: O_17  and  C_18
REMARK    8  A    between atoms: C_18  and  C_19
REMARK    9  A    between atoms: C_21  and  S_23
REMARK   10  A    between atoms: S_23  and  N_24
REMARK                            x       y       z     vdW  Elec       q    Type
REMARK                         _______ _______ _______ _____ _____    ______ ____
ROOT
ATOM      1  C   UNL     1       3.397  -3.375  25.254  0.00  0.00    +0.089 A 
ATOM      2  C   UNL     1       4.528  -3.242  24.428  0.00  0.00    +0.119 A 
ATOM      3  N   UNL     1       5.596  -2.337  24.484  0.00  0.00    -0.225 NA
ATOM      4  C   UNL     1       6.503  -2.562  23.575  0.00  0.00    +0.146 A 
ATOM      5  N   UNL     1       6.452  -3.555  22.613  0.00  0.00    -0.305 N 
ATOM      6  H   UNL     1       7.212  -3.661  21.955  0.00  0.00    +0.170 HD
ATOM      7  C   UNL     1       5.418  -4.449  22.499  0.00  0.00    +0.278 A 
ATOM      8  O   UNL     1       5.389  -5.320  21.638  0.00  0.00    -0.265 OA
ATOM      9  C   UNL     1       4.435  -4.232  23.493  0.00  0.00    +0.151 A 
ATOM     10  N   UNL     1       3.276  -4.890  23.759  0.00  0.00    -0.260 N 
ATOM     11  C   UNL     1       2.738  -6.025  23.047  0.00  0.00    +0.173 C 
ATOM     12  N   UNL     1       2.615  -4.384  24.825  0.00  0.00    -0.174 NA
ENDROOT
BRANCH   4  13
ATOM     13  C   UNL     1       7.680  -1.693  23.536  0.00  0.00    +0.068 A 
ATOM     14  C   UNL     1       7.643  -0.260  23.402  0.00  0.00    +0.051 A 
ATOM     15  C   UNL     1       8.898   0.307  23.349  0.00  0.00    +0.146 A 
ATOM     16  S   UNL     1      10.115  -0.865  23.522  0.00  0.00    -0.031 S 
ATOM     17  C   UNL     1       8.990  -2.157  23.640  0.00  0.00    +0.171 A 
BRANCH  15  18
ATOM     18  S   UNL     1       9.470   1.977  23.164  0.00  0.00    +0.062 S 
ATOM     19  O   UNL     1      10.663   2.050  23.970  0.00  0.00    -0.153 OA
ATOM     20  O   UNL     1       8.315   2.817  23.372  0.00  0.00    -0.153 OA
BRANCH  18  21
ATOM     21  N   UNL     1       9.944   2.142  21.563  0.00  0.00    -0.203 NA
ATOM     22  H   UNL     1      10.271   3.083  21.351  0.00  0.00    +0.144 HD
ATOM     23  H   UNL     1      10.553   1.385  21.258  0.00  0.00    +0.144 HD
ENDBRANCH  18  21
ENDBRANCH  15  18
BRANCH  17  24
ATOM     24  O   UNL     1       9.359  -3.445  23.763  0.00  0.00    -0.485 OA
BRANCH  24  25
ATOM     25  C   UNL     1       9.425  -3.982  25.087  0.00  0.00    +0.226 C 
ATOM     26  C   UNL     1       8.625  -5.270  25.124  0.00  0.00    +0.048 C 
ENDBRANCH  24  25
ENDBRANCH  17  24
ENDBRANCH   4  13
BRANCH   1  27
ATOM     27  C   UNL     1       3.010  -2.577  26.454  0.00  0.00    +0.059 C 
BRANCH  27  29
ATOM     28  C   UNL     1       3.865  -4.170  28.217  0.00  0.00    +0.004 C 
ATOM     29  C   UNL     1       3.975  -2.774  27.627  0.00  0.00    +0.003 C 
ENDBRANCH  27  29
ENDBRANCH   1  27
TORSDOF 7
ENDMDL
MODEL 6
REMARK VINA RESULT:      -6.1      4.010      7.239
REMARK  Name = 
REMARK  10 active torsions:
REMARK  status: ('A' for Active; 'I' for Inactive)
REMARK    1  A    between atoms: C_1  and  C_2
REMARK    2  A    between atoms: C_2  and  C_3
REMARK    3  A    between atoms: C_3  and  C_4
REMARK    4  A    between atoms: N_6  and  C_7
REMARK    5  A    between atoms: C_11  and  C_15
REMARK    6  A    between atoms: C_16  and  O_17
REMARK    7  A    between atoms: O_17  and  C_18
REMARK    8  A    between atoms: C_18  and  C_19
REMARK    9  A    between atoms: C_21  and  S_23
REMARK   10  A    between atoms: S_23  and  N_24
REMARK                            x       y       z     vdW  Elec       q    Type
REMARK                         _______ _______ _______ _____ _____    ______ ____
ROOT
ATOM      1  C   UNL     1       6.837   1.350  23.543  0.00  0.00    +0.089 A 
ATOM      2  C   UNL     1       7.169  -0.004  23.352  0.00  0.00    +0.119 A 
ATOM      3  N   UNL     1       6.448  -1.168  23.646  0.00  0.00    -0.225 NA
ATOM      4  C   UNL     1       7.058  -2.255  23.265  0.00  0.00    +0.146 A 
ATOM      5  N   UNL     1       8.300  -2.313  22.657  0.00  0.00    -0.305 N 
ATOM      6  H   UNL     1       8.689  -3.205  22.385  0.00  0.00    +0.170 HD
ATOM      7  C   UNL     1       9.057  -1.205  22.371  0.00  0.00    +0.278 A 
ATOM      8  O   UNL     1      10.156  -1.276  21.836  0.00  0.00    -0.265 OA
ATOM      9  C   UNL     1       8.398  -0.015  22.760  0.00  0.00    +0.151 A 
ATOM     10  N   UNL     1       8.769   1.287  22.642  0.00  0.00    -0.260 N 
ATOM     11  C   UNL     1       9.993   1.795  22.071  0.00  0.00    +0.173 C 
ATOM     12  N   UNL     1       7.839   2.146  23.121  0.00  0.00    -0.174 NA
ENDROOT
BRANCH   4  13
ATOM     13  C   UNL     1       6.402  -3.542  23.502  0.00  0.00    +0.068 A 
ATOM     14  C   UNL     1       4.978  -3.757  23.485  0.00  0.00    +0.051 A 
ATOM     15  C   UNL     1       4.627  -5.055  23.783  0.00  0.00    +0.146 A 
ATOM     16  S   UNL     1       5.999  -6.029  24.019  0.00  0.00    -0.031 S 
ATOM     17  C   UNL     1       7.088  -4.727  23.758  0.00  0.00    +0.171 A 
BRANCH  15  18
ATOM     18  S   UNL     1       3.067  -5.888  23.939  0.00  0.00    +0.062 S 
ATOM     19  O   UNL     1       2.319  -5.493  22.771  0.00  0.00    -0.153 OA
ATOM     20  O   UNL     1       2.621  -5.644  25.290  0.00  0.00    -0.153 OA
BRANCH  18  21
ATOM     21  N   UNL     1       3.387  -7.528  23.791  0.00  0.00    -0.203 NA
ATOM     22  H   UNL     1       3.463  -7.990  24.695  0.00  0.00    +0.144 HD
ATOM     23  H   UNL     1       2.780  -7.983  23.113  0.00  0.00    +0.144 HD
ENDBRANCH  18  21
ENDBRANCH  15  18
BRANCH  17  24
ATOM     24  O   UNL     1       8.424  -4.856  23.851  0.00  0.00    -0.485 OA
BRANCH  24  25
ATOM     25  C   UNL     1       8.948  -5.369  25.079  0.00  0.00    +0.226 C 
ATOM     26  C   UNL     1       8.841  -4.287  26.136  0.00  0.00    +0.048 C 
ENDBRANCH  24  25
ENDBRANCH  17  24
ENDBRANCH   4  13
BRANCH   1  27
ATOM     27  C   UNL     1       5.595   1.942  24.119  0.00  0.00    +0.059 C 
BRANCH  27  29
ATOM     28  C   UNL     1       4.381   3.372  22.428  0.00  0.00    +0.004 C 
ATOM     29  C   UNL     1       5.333   3.364  23.614  0.00  0.00    +0.003 C 
ENDBRANCH  27  29
ENDBRANCH   1  27
TORSDOF 7
ENDMDL
MODEL 7
REMARK VINA RESULT:      -6.1      3.806      5.566
REMARK  Name = 
REMARK  10 active torsions:
REMARK  status: ('A' for Active; 'I' for Inactive)
REMARK    1  A    between atoms: C_1  and  C_2
REMARK    2  A    between atoms: C_2  and  C_3
REMARK    3  A    between atoms: C_3  and  C_4
REMARK    4  A    between atoms: N_6  and  C_7
REMARK    5  A    between atoms: C_11  and  C_15
REMARK    6  A    between atoms: C_16  and  O_17
REMARK    7  A    between atoms: O_17  and  C_18
REMARK    8  A    between atoms: C_18  and  C_19
REMARK    9  A    between atoms: C_21  and  S_23
REMARK   10  A    between atoms: S_23  and  N_24
REMARK                            x       y       z     vdW  Elec       q    Type
REMARK                         _______ _______ _______ _____ _____    ______ ____
ROOT
ATOM      1  C   UNL     1       3.447  -4.949  25.908  0.00  0.00    +0.089 A 
ATOM      2  C   UNL     1       4.825  -4.679  25.988  0.00  0.00    +0.119 A 
ATOM      3  N   UNL     1       5.636  -3.841  25.212  0.00  0.00    -0.225 NA
ATOM      4  C   UNL     1       6.870  -3.798  25.627  0.00  0.00    +0.146 A 
ATOM      5  N   UNL     1       7.387  -4.508  26.697  0.00  0.00    -0.305 N 
ATOM      6  H   UNL     1       8.359  -4.401  26.953  0.00  0.00    +0.170 HD
ATOM      7  C   UNL     1       6.643  -5.361  27.472  0.00  0.00    +0.278 A 
ATOM      8  O   UNL     1       7.118  -5.985  28.413  0.00  0.00    -0.265 OA
ATOM      9  C   UNL     1       5.294  -5.402  27.047  0.00  0.00    +0.151 A 
ATOM     10  N   UNL     1       4.226  -6.084  27.537  0.00  0.00    -0.260 N 
ATOM     11  C   UNL     1       4.212  -6.985  28.665  0.00  0.00    +0.173 C 
ATOM     12  N   UNL     1       3.083  -5.835  26.856  0.00  0.00    -0.174 NA
ENDROOT
BRANCH   4  13
ATOM     13  C   UNL     1       7.818  -2.945  24.910  0.00  0.00    +0.068 A 
ATOM     14  C   UNL     1       8.189  -1.611  25.305  0.00  0.00    +0.051 A 
ATOM     15  C   UNL     1       9.067  -1.014  24.427  0.00  0.00    +0.146 A 
ATOM     16  S   UNL     1       9.496  -2.071  23.167  0.00  0.00    -0.031 S 
ATOM     17  C   UNL     1       8.492  -3.334  23.754  0.00  0.00    +0.171 A 
BRANCH  15  18
ATOM     18  S   UNL     1       9.833   0.586  24.371  0.00  0.00    +0.062 S 
ATOM     19  O   UNL     1       9.708   1.008  22.998  0.00  0.00    -0.153 OA
ATOM     20  O   UNL     1      11.099   0.443  25.049  0.00  0.00    -0.153 OA
BRANCH  18  21
ATOM     21  N   UNL     1       8.869   1.605  25.292  0.00  0.00    -0.203 NA
ATOM     22  H   UNL     1       8.146   2.060  24.737  0.00  0.00    +0.144 HD
ATOM     23  H   UNL     1       8.552   1.167  26.154  0.00  0.00    +0.144 HD
ENDBRANCH  18  21
ENDBRANCH  15  18
BRANCH  17  24
ATOM     24  O   UNL     1       8.354  -4.516  23.126  0.00  0.00    -0.485 OA
BRANCH  24  25
ATOM     25  C   UNL     1       7.314  -4.620  22.149  0.00  0.00    +0.226 C 
ATOM     26  C   UNL     1       6.936  -6.081  22.002  0.00  0.00    +0.048 C 
ENDBRANCH  24  25
ENDBRANCH  17  24
ENDBRANCH   4  13
BRANCH   1  27
ATOM     27  C   UNL     1       2.435  -4.403  24.958  0.00  0.00    +0.059 C 
BRANCH  27  29
ATOM     28  C   UNL     1       2.968  -6.008  23.082  0.00  0.00    +0.004 C 
ATOM     29  C   UNL     1       1.886  -5.471  24.006  0.00  0.00    +0.003 C 
ENDBRANCH  27  29
ENDBRANCH   1  27
TORSDOF 7
ENDMDL
MODEL 8
REMARK VINA RESULT:      -5.9      3.721      7.118
REMARK  Name = 
REMARK  10 active torsions:
REMARK  status: ('A' for Active; 'I' for Inactive)
REMARK    1  A    between atoms: C_1  and  C_2
REMARK    2  A    between atoms: C_2  and  C_3
REMARK    3  A    between atoms: C_3  and  C_4
REMARK    4  A    between atoms: N_6  and  C_7
REMARK    5  A    between atoms: C_11  and  C_15
REMARK    6  A    between atoms: C_16  and  O_17
REMARK    7  A    between atoms: O_17  and  C_18
REMARK    8  A    between atoms: C_18  and  C_19
REMARK    9  A    between atoms: C_21  and  S_23
REMARK   10  A    between atoms: S_23  and  N_24
REMARK                            x       y       z     vdW  Elec       q    Type
REMARK                         _______ _______ _______ _____ _____    ______ ____
ROOT
ATOM      1  C   UNL     1       9.381   2.038  23.583  0.00  0.00    +0.089 A 
ATOM      2  C   UNL     1       8.488   1.525  24.542  0.00  0.00    +0.119 A 
ATOM      3  N   UNL     1       8.041   0.216  24.763  0.00  0.00    -0.225 NA
ATOM      4  C   UNL     1       7.255   0.113  25.797  0.00  0.00    +0.146 A 
ATOM      5  N   UNL     1       6.848   1.158  26.609  0.00  0.00    -0.305 N 
ATOM      6  H   UNL     1       6.244   0.979  27.399  0.00  0.00    +0.170 HD
ATOM      7  C   UNL     1       7.236   2.460  26.421  0.00  0.00    +0.278 A 
ATOM      8  O   UNL     1       6.863   3.373  27.147  0.00  0.00    -0.265 OA
ATOM      9  C   UNL     1       8.108   2.585  25.314  0.00  0.00    +0.151 A 
ATOM     10  N   UNL     1       8.739   3.671  24.795  0.00  0.00    -0.260 N 
ATOM     11  C   UNL     1       8.660   5.032  25.269  0.00  0.00    +0.173 C 
ATOM     12  N   UNL     1       9.518   3.370  23.730  0.00  0.00    -0.174 NA
ENDROOT
BRANCH   4  13
ATOM     13  C   UNL     1       6.729  -1.208  26.145  0.00  0.00    +0.068 A 
ATOM     14  C   UNL     1       7.532  -2.382  26.367  0.00  0.00    +0.051 A 
ATOM     15  C   UNL     1       6.781  -3.504  26.637  0.00  0.00    +0.146 A 
ATOM     16  S   UNL     1       5.122  -3.141  26.688  0.00  0.00    -0.031 S 
ATOM     17  C   UNL     1       5.375  -1.483  26.319  0.00  0.00    +0.171 A 
BRANCH  15  18
ATOM     18  S   UNL     1       7.199  -5.200  26.957  0.00  0.00    +0.062 S 
ATOM     19  O   UNL     1       6.549  -5.944  25.906  0.00  0.00    -0.153 OA
ATOM     20  O   UNL     1       6.942  -5.413  28.360  0.00  0.00    -0.153 OA
BRANCH  18  21
ATOM     21  N   UNL     1       8.852  -5.336  26.709  0.00  0.00    -0.203 NA
ATOM     22  H   UNL     1       9.292  -4.435  26.533  0.00  0.00    +0.144 HD
ATOM     23  H   UNL     1       9.304  -5.917  27.412  0.00  0.00    +0.144 HD
ENDBRANCH  18  21
ENDBRANCH  15  18
BRANCH  17  24
ATOM     24  O   UNL     1       4.369  -0.601  26.171  0.00  0.00    -0.485 OA
BRANCH  24  25
ATOM     25  C   UNL     1       3.364  -0.579  27.188  0.00  0.00    +0.226 C 
ATOM     26  C   UNL     1       3.804   0.378  28.279  0.00  0.00    +0.048 C 
ENDBRANCH  24  25
ENDBRANCH  17  24
ENDBRANCH   4  13
BRANCH   1  27
ATOM     27  C   UNL     1      10.124   1.316  22.510  0.00  0.00    +0.059 C 
BRANCH  27  29
ATOM     28  C   UNL     1       9.347  -0.874  21.522  0.00  0.00    +0.004 C 
ATOM     29  C   UNL     1       9.190   0.637  21.503  0.00  0.00    +0.003 C 
ENDBRANCH  27  29
ENDBRANCH   1  27
TORSDOF 7
ENDMDL
MODEL 9
REMARK VINA RESULT:      -5.9      3.596      7.084
REMARK  Name = 
REMARK  10 active torsions:
REMARK  status: ('A' for Active; 'I' for Inactive)
REMARK    1  A    between atoms: C_1  and  C_2
REMARK    2  A    between atoms: C_2  and  C_3
REMARK    3  A    between atoms: C_3  and  C_4
REMARK    4  A    between atoms: N_6  and  C_7
REMARK    5  A    between atoms: C_11  and  C_15
REMARK    6  A    between atoms: C_16  and  O_17
REMARK    7  A    between atoms: O_17  and  C_18
REMARK    8  A    between atoms: C_18  and  C_19
REMARK    9  A    between atoms: C_21  and  S_23
REMARK   10  A    between atoms: S_23  and  N_24
REMARK                            x       y       z     vdW  Elec       q    Type
REMARK                         _______ _______ _______ _____ _____    ______ ____
ROOT
ATOM      1  C   UNL     1       7.588   1.621  22.799  0.00  0.00    +0.089 A 
ATOM      2  C   UNL     1       6.843   0.719  23.582  0.00  0.00    +0.119 A 
ATOM      3  N   UNL     1       6.743  -0.676  23.516  0.00  0.00    -0.225 NA
ATOM      4  C   UNL     1       5.995  -1.179  24.458  0.00  0.00    +0.146 A 
ATOM      5  N   UNL     1       5.323  -0.455  25.427  0.00  0.00    -0.305 N 
ATOM      6  H   UNL     1       4.774  -0.935  26.127  0.00  0.00    +0.170 HD
ATOM      7  C   UNL     1       5.367   0.913  25.519  0.00  0.00    +0.278 A 
ATOM      8  O   UNL     1       4.763   1.538  26.382  0.00  0.00    -0.265 OA
ATOM      9  C   UNL     1       6.193   1.472  24.516  0.00  0.00    +0.151 A 
ATOM     10  N   UNL     1       6.533   2.763  24.259  0.00  0.00    -0.260 N 
ATOM     11  C   UNL     1       6.101   3.936  24.980  0.00  0.00    +0.173 C 
ATOM     12  N   UNL     1       7.377   2.887  23.209  0.00  0.00    -0.174 NA
ENDROOT
BRANCH   4  13
ATOM     13  C   UNL     1       5.821  -2.631  24.509  0.00  0.00    +0.068 A 
ATOM     14  C   UNL     1       4.621  -3.331  24.130  0.00  0.00    +0.051 A 
ATOM     15  C   UNL     1       4.712  -4.693  24.317  0.00  0.00    +0.146 A 
ATOM     16  S   UNL     1       6.249  -5.139  24.886  0.00  0.00    -0.031 S 
ATOM     17  C   UNL     1       6.813  -3.518  24.922  0.00  0.00    +0.171 A 
BRANCH  15  18
ATOM     18  S   UNL     1       3.576  -6.034  24.065  0.00  0.00    +0.062 S 
ATOM     19  O   UNL     1       3.007  -5.796  22.762  0.00  0.00    -0.153 OA
ATOM     20  O   UNL     1       2.790  -6.120  25.273  0.00  0.00    -0.153 OA
BRANCH  18  21
ATOM     21  N   UNL     1       4.503  -7.427  23.954  0.00  0.00    -0.203 NA
ATOM     22  H   UNL     1       4.666  -7.707  22.989  0.00  0.00    +0.144 HD
ATOM     23  H   UNL     1       5.328  -7.394  24.549  0.00  0.00    +0.144 HD
ENDBRANCH  18  21
ENDBRANCH  15  18
BRANCH  17  24
ATOM     24  O   UNL     1       8.042  -3.175  25.350  0.00  0.00    -0.485 OA
BRANCH  24  25
ATOM     25  C   UNL     1       9.157  -3.700  24.623  0.00  0.00    +0.226 C 
ATOM     26  C   UNL     1       9.809  -2.565  23.857  0.00  0.00    +0.048 C 
ENDBRANCH  24  25
ENDBRANCH  17  24
ENDBRANCH   4  13
BRANCH   1  27
ATOM     27  C   UNL     1       8.506   1.340  21.657  0.00  0.00    +0.059 C 
BRANCH  27  29
ATOM     28  C   UNL     1      10.420   1.006  23.270  0.00  0.00    +0.004 C 
ATOM     29  C   UNL     1       9.966   1.672  21.982  0.00  0.00    +0.003 C 
ENDBRANCH  27  29
ENDBRANCH   1  27
TORSDOF 7
ENDMDL
