MODEL 1
REMARK VINA RESULT:      -7.2      0.000      0.000
REMARK  Name = 
REMARK  8 active torsions:
REMARK  status: ('A' for Active; 'I' for Inactive)
REMARK    1  A    between atoms: C_2  and  N_3
REMARK    2  A    between atoms: C_2  and  C_4
REMARK    3  A    between atoms: C_2  and  C_11
REMARK    4  A    between atoms: C_4  and  C_5
REMARK    5  A    between atoms: C_17  and  C_19
REMARK    6  A    between atoms: N_21  and  C_22
REMARK    7  A    between atoms: C_22  and  C_23
REMARK    8  A    between atoms: C_25  and  C_26
REMARK                            x       y       z     vdW  Elec       q    Type
REMARK                         _______ _______ _______ _____ _____    ______ ____
ROOT
ATOM      1  C   UNL     1       9.194  -1.107  23.804  0.00  0.00    +0.233 C 
ATOM      2  N   UNL     1       8.308  -0.638  24.749  0.00  0.00    -0.289 N 
ATOM      3  C   UNL     1       8.461  -0.997  26.159  0.00  0.00    +0.162 C 
ATOM      4  C   UNL     1       7.762   0.134  26.933  0.00  0.00    +0.033 C 
ATOM      5  C   UNL     1       7.318   1.140  25.876  0.00  0.00    +0.021 C 
ATOM      6  C   UNL     1       7.240   0.330  24.596  0.00  0.00    +0.108 C 
ATOM      7  O   UNL     1      10.055  -1.939  24.120  0.00  0.00    -0.274 OA
ENDROOT
BRANCH   3   8
ATOM      8  C   UNL     1       7.781  -2.348  26.457  0.00  0.00    +0.234 C 
ATOM      9  N   UNL     1       8.575  -3.449  26.218  0.00  0.00    -0.310 N 
ATOM     10  H   UNL     1       9.346  -3.324  25.566  0.00  0.00    +0.149 HD
ATOM     11  O   UNL     1       6.614  -2.440  26.840  0.00  0.00    -0.274 OA
BRANCH   9  12
ATOM     12  C   UNL     1       8.095  -4.787  26.468  0.00  0.00    +0.139 C 
BRANCH  12  13
ATOM     13  C   UNL     1       7.149  -5.257  25.397  0.00  0.00    -0.030 A 
ATOM     14  C   UNL     1       5.878  -5.741  25.734  0.00  0.00    +0.005 A 
ATOM     15  C   UNL     1       4.992  -6.153  24.741  0.00  0.00    +0.001 A 
ATOM     16  C   UNL     1       5.365  -6.080  23.400  0.00  0.00    +0.003 A 
ATOM     17  C   UNL     1       6.629  -5.598  23.040  0.00  0.00    -0.050 A 
ATOM     18  C   UNL     1       7.009  -5.496  21.594  0.00  0.00    +0.044 C 
ATOM     19  C   UNL     1       7.514  -5.185  24.045  0.00  0.00    +0.008 A 
ENDBRANCH  12  13
ENDBRANCH   9  12
ENDBRANCH   3   8
BRANCH   1  20
ATOM     20  C   UNL     1       9.136  -0.583  22.347  0.00  0.00    +0.142 C 
BRANCH  20  21
ATOM     21  N   UNL     1       9.439  -1.675  21.387  0.00  0.00    -0.320 NA
ATOM     22  H   UNL     1       8.557  -2.063  21.052  0.00  0.00    +0.119 HD
ATOM     23  H   UNL     1       9.895  -1.266  20.569  0.00  0.00    +0.119 HD
ENDBRANCH  20  21
BRANCH  20  24
ATOM     24  C   UNL     1      10.005   0.674  22.153  0.00  0.00    +0.063 C 
BRANCH  24  25
ATOM     25  C   UNL     1       9.265   1.969  22.434  0.00  0.00    -0.045 A 
ATOM     26  C   UNL     1       8.078   2.267  21.749  0.00  0.00    +0.004 A 
ATOM     27  C   UNL     1       7.366   3.434  22.038  0.00  0.00    +0.000 A 
ATOM     28  C   UNL     1       7.831   4.314  23.013  0.00  0.00    +0.000 A 
ATOM     29  C   UNL     1       9.019   4.037  23.686  0.00  0.00    +0.000 A 
ATOM     30  C   UNL     1       9.737   2.877  23.393  0.00  0.00    +0.004 A 
ENDBRANCH  24  25
ENDBRANCH  20  24
ENDBRANCH   1  20
TORSDOF 7
ENDMDL
MODEL 2
REMARK VINA RESULT:      -7.1      2.172      7.834
REMARK  Name = 
REMARK  8 active torsions:
REMARK  status: ('A' for Active; 'I' for Inactive)
REMARK    1  A    between atoms: C_2  and  N_3
REMARK    2  A    between atoms: C_2  and  C_4
REMARK    3  A    between atoms: C_2  and  C_11
REMARK    4  A    between atoms: C_4  and  C_5
REMARK    5  A    between atoms: C_17  and  C_19
REMARK    6  A    between atoms: N_21  and  C_22
REMARK    7  A    between atoms: C_22  and  C_23
REMARK    8  A    between atoms: C_25  and  C_26
REMARK                            x       y       z     vdW  Elec       q    Type
REMARK                         _______ _______ _______ _____ _____    ______ ____
ROOT
ATOM      1  C   UNL     1       6.913  -5.286  26.168  0.00  0.00    +0.233 C 
ATOM      2  N   UNL     1       6.811  -4.456  25.074  0.00  0.00    -0.289 N 
ATOM      3  C   UNL     1       7.789  -4.526  23.989  0.00  0.00    +0.162 C 
ATOM      4  C   UNL     1       7.051  -3.979  22.754  0.00  0.00    +0.033 C 
ATOM      5  C   UNL     1       5.624  -3.706  23.219  0.00  0.00    +0.021 C 
ATOM      6  C   UNL     1       5.743  -3.541  24.721  0.00  0.00    +0.108 C 
ATOM      7  O   UNL     1       7.907  -6.012  26.304  0.00  0.00    -0.274 OA
ENDROOT
BRANCH   3   8
ATOM      8  C   UNL     1       9.020  -3.653  24.306  0.00  0.00    +0.234 C 
ATOM      9  N   UNL     1       8.762  -2.300  24.348  0.00  0.00    -0.310 N 
ATOM     10  H   UNL     1       7.941  -1.974  23.843  0.00  0.00    +0.149 HD
ATOM     11  O   UNL     1      10.147  -4.122  24.471  0.00  0.00    -0.274 OA
BRANCH   9  12
ATOM     12  C   UNL     1       9.804  -1.349  24.655  0.00  0.00    +0.139 C 
BRANCH  12  13
ATOM     13  C   UNL     1       9.846  -0.218  23.664  0.00  0.00    -0.030 A 
ATOM     14  C   UNL     1       9.353  -0.395  22.364  0.00  0.00    +0.005 A 
ATOM     15  C   UNL     1       9.368   0.659  21.453  0.00  0.00    +0.001 A 
ATOM     16  C   UNL     1       9.869   1.903  21.834  0.00  0.00    +0.003 A 
ATOM     17  C   UNL     1      10.364   2.102  23.128  0.00  0.00    -0.050 A 
ATOM     18  C   UNL     1      10.873   3.451  23.537  0.00  0.00    +0.044 C 
ATOM     19  C   UNL     1      10.346   1.037  24.039  0.00  0.00    +0.008 A 
ENDBRANCH  12  13
ENDBRANCH   9  12
ENDBRANCH   3   8
BRANCH   1  20
ATOM     20  C   UNL     1       5.781  -5.335  27.225  0.00  0.00    +0.142 C 
BRANCH  20  21
ATOM     21  N   UNL     1       6.347  -5.329  28.598  0.00  0.00    -0.320 NA
ATOM     22  H   UNL     1       5.603  -5.569  29.254  0.00  0.00    +0.119 HD
ATOM     23  H   UNL     1       7.035  -6.080  28.666  0.00  0.00    +0.119 HD
ENDBRANCH  20  21
BRANCH  20  24
ATOM     24  C   UNL     1       4.800  -6.493  26.963  0.00  0.00    +0.063 C 
BRANCH  24  25
ATOM     25  C   UNL     1       3.874  -6.245  25.785  0.00  0.00    -0.045 A 
ATOM     26  C   UNL     1       2.813  -5.336  25.900  0.00  0.00    +0.004 A 
ATOM     27  C   UNL     1       1.987  -5.067  24.806  0.00  0.00    +0.000 A 
ATOM     28  C   UNL     1       2.212  -5.702  23.587  0.00  0.00    +0.000 A 
ATOM     29  C   UNL     1       3.251  -6.622  23.466  0.00  0.00    +0.000 A 
ATOM     30  C   UNL     1       4.072  -6.899  24.561  0.00  0.00    +0.004 A 
ENDBRANCH  24  25
ENDBRANCH  20  24
ENDBRANCH   1  20
TORSDOF 7
ENDMDL
MODEL 3
REMARK VINA RESULT:      -7.0      1.956      7.656
REMARK  Name = 
REMARK  8 active torsions:
REMARK  status: ('A' for Active; 'I' for Inactive)
REMARK    1  A    between atoms: C_2  and  N_3
REMARK    2  A    between atoms: C_2  and  C_4
REMARK    3  A    between atoms: C_2  and  C_11
REMARK    4  A    between atoms: C_4  and  C_5
REMARK    5  A    between atoms: C_17  and  C_19
REMARK    6  A    between atoms: N_21  and  C_22
REMARK    7  A    between atoms: C_22  and  C_23
REMARK    8  A    between atoms: C_25  and  C_26
REMARK                            x       y       z     vdW  Elec       q    Type
REMARK                         _______ _______ _______ _____ _____    ______ ____
ROOT
ATOM      1  C   UNL     1       8.447  -3.852  24.914  0.00  0.00    +0.233 C 
ATOM      2  N   UNL     1       7.902  -2.654  24.510  0.00  0.00    -0.289 N 
ATOM      3  C   UNL     1       8.104  -2.162  23.148  0.00  0.00    +0.162 C 
ATOM      4  C   UNL     1       6.914  -1.223  22.885  0.00  0.00    +0.033 C 
ATOM      5  C   UNL     1       6.037  -1.315  24.129  0.00  0.00    +0.021 C 
ATOM      6  C   UNL     1       6.980  -1.787  25.219  0.00  0.00    +0.108 C 
ATOM      7  O   UNL     1       9.220  -4.465  24.166  0.00  0.00    -0.274 OA
ENDROOT
BRANCH   3   8
ATOM      8  C   UNL     1       9.432  -1.386  23.039  0.00  0.00    +0.234 C 
ATOM      9  N   UNL     1       9.371  -0.088  23.498  0.00  0.00    -0.310 N 
ATOM     10  H   UNL     1       8.451   0.347  23.521  0.00  0.00    +0.149 HD
ATOM     11  O   UNL     1      10.453  -1.871  22.549  0.00  0.00    -0.274 OA
BRANCH   9  12
ATOM     12  C   UNL     1      10.536   0.766  23.486  0.00  0.00    +0.139 C 
BRANCH  12  13
ATOM     13  C   UNL     1      10.185   2.203  23.765  0.00  0.00    -0.030 A 
ATOM     14  C   UNL     1       8.977   2.529  24.394  0.00  0.00    +0.005 A 
ATOM     15  C   UNL     1       8.662   3.857  24.675  0.00  0.00    +0.001 A 
ATOM     16  C   UNL     1       9.556   4.871  24.335  0.00  0.00    +0.003 A 
ATOM     17  C   UNL     1      10.770   4.568  23.708  0.00  0.00    -0.050 A 
ATOM     18  C   UNL     1      11.736   5.663  23.374  0.00  0.00    +0.044 C 
ATOM     19  C   UNL     1      11.079   3.230  23.429  0.00  0.00    +0.008 A 
ENDBRANCH  12  13
ENDBRANCH   9  12
ENDBRANCH   3   8
BRANCH   1  20
ATOM     20  C   UNL     1       8.082  -4.455  26.294  0.00  0.00    +0.142 C 
BRANCH  20  21
ATOM     21  N   UNL     1       9.309  -4.849  27.033  0.00  0.00    -0.320 NA
ATOM     22  H   UNL     1       9.931  -5.338  26.389  0.00  0.00    +0.119 HD
ATOM     23  H   UNL     1       9.804  -3.999  27.311  0.00  0.00    +0.119 HD
ENDBRANCH  20  21
BRANCH  20  24
ATOM     24  C   UNL     1       7.042  -5.585  26.172  0.00  0.00    +0.063 C 
BRANCH  24  25
ATOM     25  C   UNL     1       5.830  -5.202  25.341  0.00  0.00    -0.045 A 
ATOM     26  C   UNL     1       5.743  -5.589  23.997  0.00  0.00    +0.004 A 
ATOM     27  C   UNL     1       4.609  -5.281  23.241  0.00  0.00    +0.000 A 
ATOM     28  C   UNL     1       3.551  -4.585  23.820  0.00  0.00    +0.000 A 
ATOM     29  C   UNL     1       3.634  -4.179  25.149  0.00  0.00    +0.000 A 
ATOM     30  C   UNL     1       4.769  -4.476  25.905  0.00  0.00    +0.004 A 
ENDBRANCH  24  25
ENDBRANCH  20  24
ENDBRANCH   1  20
TORSDOF 7
ENDMDL
MODEL 4
REMARK VINA RESULT:      -7.0      1.793      3.923
REMARK  Name = 
REMARK  8 active torsions:
REMARK  status: ('A' for Active; 'I' for Inactive)
REMARK    1  A    between atoms: C_2  and  N_3
REMARK    2  A    between atoms: C_2  and  C_4
REMARK    3  A    between atoms: C_2  and  C_11
REMARK    4  A    between atoms: C_4  and  C_5
REMARK    5  A    between atoms: C_17  and  C_19
REMARK    6  A    between atoms: N_21  and  C_22
REMARK    7  A    between atoms: C_22  and  C_23
REMARK    8  A    between atoms: C_25  and  C_26
REMARK                            x       y       z     vdW  Elec       q    Type
REMARK                         _______ _______ _______ _____ _____    ______ ____
ROOT
ATOM      1  C   UNL     1       7.722   0.524  24.668  0.00  0.00    +0.233 C 
ATOM      2  N   UNL     1       8.650   0.553  23.651  0.00  0.00    -0.289 N 
ATOM      3  C   UNL     1       8.374  -0.094  22.369  0.00  0.00    +0.162 C 
ATOM      4  C   UNL     1       9.265   0.643  21.354  0.00  0.00    +0.033 C 
ATOM      5  C   UNL     1       9.946   1.757  22.141  0.00  0.00    +0.021 C 
ATOM      6  C   UNL     1       9.901   1.282  23.580  0.00  0.00    +0.108 C 
ATOM      7  O   UNL     1       6.695  -0.159  24.551  0.00  0.00    -0.274 OA
ENDROOT
BRANCH   3   8
ATOM      8  C   UNL     1       8.746  -1.590  22.421  0.00  0.00    +0.234 C 
ATOM      9  N   UNL     1       7.695  -2.427  22.722  0.00  0.00    -0.310 N 
ATOM     10  H   UNL     1       6.907  -2.013  23.216  0.00  0.00    +0.149 HD
ATOM     11  O   UNL     1       9.894  -2.000  22.244  0.00  0.00    -0.274 OA
BRANCH   9  12
ATOM     12  C   UNL     1       7.872  -3.859  22.787  0.00  0.00    +0.139 C 
BRANCH  12  13
ATOM     13  C   UNL     1       7.870  -4.365  24.204  0.00  0.00    -0.030 A 
ATOM     14  C   UNL     1       8.985  -4.167  25.028  0.00  0.00    +0.005 A 
ATOM     15  C   UNL     1       8.976  -4.614  26.349  0.00  0.00    +0.001 A 
ATOM     16  C   UNL     1       7.849  -5.256  26.859  0.00  0.00    +0.003 A 
ATOM     17  C   UNL     1       6.723  -5.461  26.053  0.00  0.00    -0.050 A 
ATOM     18  C   UNL     1       5.506  -6.126  26.620  0.00  0.00    +0.044 C 
ATOM     19  C   UNL     1       6.740  -5.009  24.727  0.00  0.00    +0.008 A 
ENDBRANCH  12  13
ENDBRANCH   9  12
ENDBRANCH   3   8
BRANCH   1  20
ATOM     20  C   UNL     1       7.940   1.360  25.954  0.00  0.00    +0.142 C 
BRANCH  20  21
ATOM     21  N   UNL     1       7.795   0.508  27.163  0.00  0.00    -0.320 NA
ATOM     22  H   UNL     1       8.702   0.091  27.374  0.00  0.00    +0.119 HD
ATOM     23  H   UNL     1       7.572   1.112  27.956  0.00  0.00    +0.119 HD
ENDBRANCH  20  21
BRANCH  20  24
ATOM     24  C   UNL     1       7.059   2.624  25.976  0.00  0.00    +0.063 C 
BRANCH  24  25
ATOM     25  C   UNL     1       7.441   3.644  24.918  0.00  0.00    -0.045 A 
ATOM     26  C   UNL     1       8.579   4.445  25.087  0.00  0.00    +0.004 A 
ATOM     27  C   UNL     1       8.963   5.351  24.095  0.00  0.00    +0.000 A 
ATOM     28  C   UNL     1       8.216   5.465  22.926  0.00  0.00    +0.000 A 
ATOM     29  C   UNL     1       7.073   4.687  22.754  0.00  0.00    +0.000 A 
ATOM     30  C   UNL     1       6.682   3.788  23.748  0.00  0.00    +0.004 A 
ENDBRANCH  24  25
ENDBRANCH  20  24
ENDBRANCH   1  20
TORSDOF 7
ENDMDL
MODEL 5
REMARK VINA RESULT:      -6.9      1.951      5.338
REMARK  Name = 
REMARK  8 active torsions:
REMARK  status: ('A' for Active; 'I' for Inactive)
REMARK    1  A    between atoms: C_2  and  N_3
REMARK    2  A    between atoms: C_2  and  C_4
REMARK    3  A    between atoms: C_2  and  C_11
REMARK    4  A    between atoms: C_4  and  C_5
REMARK    5  A    between atoms: C_17  and  C_19
REMARK    6  A    between atoms: N_21  and  C_22
REMARK    7  A    between atoms: C_22  and  C_23
REMARK    8  A    between atoms: C_25  and  C_26
REMARK                            x       y       z     vdW  Elec       q    Type
REMARK                         _______ _______ _______ _____ _____    ______ ____
ROOT
ATOM      1  C   UNL     1       7.490   0.003  25.001  0.00  0.00    +0.233 C 
ATOM      2  N   UNL     1       8.645   0.350  24.336  0.00  0.00    -0.289 N 
ATOM      3  C   UNL     1       8.611   0.719  22.921  0.00  0.00    +0.162 C 
ATOM      4  C   UNL     1       9.853   1.602  22.712  0.00  0.00    +0.033 C 
ATOM      5  C   UNL     1      10.486   1.751  24.092  0.00  0.00    +0.021 C 
ATOM      6  C   UNL     1       9.978   0.553  24.870  0.00  0.00    +0.108 C 
ATOM      7  O   UNL     1       6.429  -0.122  24.375  0.00  0.00    -0.274 OA
ENDROOT
BRANCH   3   8
ATOM      8  C   UNL     1       8.689  -0.534  22.026  0.00  0.00    +0.234 C 
ATOM      9  N   UNL     1       7.905  -1.585  22.450  0.00  0.00    -0.310 N 
ATOM     10  H   UNL     1       7.648  -1.596  23.435  0.00  0.00    +0.149 HD
ATOM     11  O   UNL     1       9.419  -0.605  21.037  0.00  0.00    -0.274 OA
BRANCH   9  12
ATOM     12  C   UNL     1       7.848  -2.823  21.710  0.00  0.00    +0.139 C 
BRANCH  12  13
ATOM     13  C   UNL     1       6.744  -3.722  22.197  0.00  0.00    -0.030 A 
ATOM     14  C   UNL     1       6.686  -5.060  21.786  0.00  0.00    +0.005 A 
ATOM     15  C   UNL     1       5.678  -5.901  22.255  0.00  0.00    +0.001 A 
ATOM     16  C   UNL     1       4.723  -5.413  23.146  0.00  0.00    +0.003 A 
ATOM     17  C   UNL     1       4.764  -4.080  23.572  0.00  0.00    -0.050 A 
ATOM     18  C   UNL     1       3.750  -3.575  24.553  0.00  0.00    +0.044 C 
ATOM     19  C   UNL     1       5.780  -3.242  23.095  0.00  0.00    +0.008 A 
ENDBRANCH  12  13
ENDBRANCH   9  12
ENDBRANCH   3   8
BRANCH   1  20
ATOM     20  C   UNL     1       7.502  -0.213  26.535  0.00  0.00    +0.142 C 
BRANCH  20  21
ATOM     21  N   UNL     1       7.665   1.082  27.244  0.00  0.00    -0.320 NA
ATOM     22  H   UNL     1       8.657   1.317  27.262  0.00  0.00    +0.119 HD
ATOM     23  H   UNL     1       7.213   1.812  26.689  0.00  0.00    +0.119 HD
ENDBRANCH  20  21
BRANCH  20  24
ATOM     24  C   UNL     1       8.524  -1.285  26.958  0.00  0.00    +0.063 C 
BRANCH  24  25
ATOM     25  C   UNL     1       8.192  -2.673  26.439  0.00  0.00    -0.045 A 
ATOM     26  C   UNL     1       9.031  -3.297  25.505  0.00  0.00    +0.004 A 
ATOM     27  C   UNL     1       8.758  -4.593  25.060  0.00  0.00    +0.000 A 
ATOM     28  C   UNL     1       7.646  -5.278  25.543  0.00  0.00    +0.000 A 
ATOM     29  C   UNL     1       6.794  -4.661  26.457  0.00  0.00    +0.000 A 
ATOM     30  C   UNL     1       7.060  -3.363  26.896  0.00  0.00    +0.004 A 
ENDBRANCH  24  25
ENDBRANCH  20  24
ENDBRANCH   1  20
TORSDOF 7
ENDMDL
MODEL 6
REMARK VINA RESULT:      -6.9      1.803      6.326
REMARK  Name = 
REMARK  8 active torsions:
REMARK  status: ('A' for Active; 'I' for Inactive)
REMARK    1  A    between atoms: C_2  and  N_3
REMARK    2  A    between atoms: C_2  and  C_4
REMARK    3  A    between atoms: C_2  and  C_11
REMARK    4  A    between atoms: C_4  and  C_5
REMARK    5  A    between atoms: C_17  and  C_19
REMARK    6  A    between atoms: N_21  and  C_22
REMARK    7  A    between atoms: C_22  and  C_23
REMARK    8  A    between atoms: C_25  and  C_26
REMARK                            x       y       z     vdW  Elec       q    Type
REMARK                         _______ _______ _______ _____ _____    ______ ____
ROOT
ATOM      1  C   UNL     1       7.817  -4.362  25.386  0.00  0.00    +0.233 C 
ATOM      2  N   UNL     1       6.974  -4.732  24.362  0.00  0.00    -0.289 N 
ATOM      3  C   UNL     1       7.468  -4.842  22.990  0.00  0.00    +0.162 C 
ATOM      4  C   UNL     1       6.507  -5.827  22.300  0.00  0.00    +0.033 C 
ATOM      5  C   UNL     1       5.548  -6.293  23.390  0.00  0.00    +0.021 C 
ATOM      6  C   UNL     1       5.601  -5.193  24.433  0.00  0.00    +0.108 C 
ATOM      7  O   UNL     1       8.973  -3.996  25.135  0.00  0.00    -0.274 OA
ENDROOT
BRANCH   3   8
ATOM      8  C   UNL     1       7.429  -3.473  22.283  0.00  0.00    +0.234 C 
ATOM      9  N   UNL     1       8.591  -2.741  22.396  0.00  0.00    -0.310 N 
ATOM     10  H   UNL     1       9.199  -2.967  23.180  0.00  0.00    +0.149 HD
ATOM     11  O   UNL     1       6.431  -3.050  21.697  0.00  0.00    -0.274 OA
BRANCH   9  12
ATOM     12  C   UNL     1       8.725  -1.447  21.771  0.00  0.00    +0.139 C 
BRANCH  12  13
ATOM     13  C   UNL     1       9.240  -0.408  22.730  0.00  0.00    -0.030 A 
ATOM     14  C   UNL     1      10.088  -0.773  23.784  0.00  0.00    +0.005 A 
ATOM     15  C   UNL     1      10.586   0.191  24.658  0.00  0.00    +0.001 A 
ATOM     16  C   UNL     1      10.247   1.532  24.482  0.00  0.00    +0.003 A 
ATOM     17  C   UNL     1       9.403   1.919  23.435  0.00  0.00    -0.050 A 
ATOM     18  C   UNL     1       9.069   3.367  23.238  0.00  0.00    +0.044 C 
ATOM     19  C   UNL     1       8.906   0.944  22.560  0.00  0.00    +0.008 A 
ENDBRANCH  12  13
ENDBRANCH   9  12
ENDBRANCH   3   8
BRANCH   1  20
ATOM     20  C   UNL     1       7.337  -4.421  26.858  0.00  0.00    +0.142 C 
BRANCH  20  21
ATOM     21  N   UNL     1       7.048  -5.822  27.259  0.00  0.00    -0.320 NA
ATOM     22  H   UNL     1       6.385  -6.218  26.591  0.00  0.00    +0.119 HD
ATOM     23  H   UNL     1       7.906  -6.368  27.160  0.00  0.00    +0.119 HD
ENDBRANCH  20  21
BRANCH  20  24
ATOM     24  C   UNL     1       6.174  -3.446  27.123  0.00  0.00    +0.063 C 
BRANCH  24  25
ATOM     25  C   UNL     1       6.382  -2.075  26.505  0.00  0.00    -0.045 A 
ATOM     26  C   UNL     1       5.609  -1.670  25.408  0.00  0.00    +0.004 A 
ATOM     27  C   UNL     1       5.762  -0.392  24.865  0.00  0.00    +0.000 A 
ATOM     28  C   UNL     1       6.687   0.494  25.412  0.00  0.00    +0.000 A 
ATOM     29  C   UNL     1       7.474   0.096  26.490  0.00  0.00    +0.000 A 
ATOM     30  C   UNL     1       7.330  -1.184  27.029  0.00  0.00    +0.004 A 
ENDBRANCH  24  25
ENDBRANCH  20  24
ENDBRANCH   1  20
TORSDOF 7
ENDMDL
MODEL 7
REMARK VINA RESULT:      -6.9      1.840      3.064
REMARK  Name = 
REMARK  8 active torsions:
REMARK  status: ('A' for Active; 'I' for Inactive)
REMARK    1  A    between atoms: C_2  and  N_3
REMARK    2  A    between atoms: C_2  and  C_4
REMARK    3  A    between atoms: C_2  and  C_11
REMARK    4  A    between atoms: C_4  and  C_5
REMARK    5  A    between atoms: C_17  and  C_19
REMARK    6  A    between atoms: N_21  and  C_22
REMARK    7  A    between atoms: C_22  and  C_23
REMARK    8  A    between atoms: C_25  and  C_26
REMARK                            x       y       z     vdW  Elec       q    Type
REMARK                         _______ _______ _______ _____ _____    ______ ____
ROOT
ATOM      1  C   UNL     1       9.525  -0.261  22.821  0.00  0.00    +0.233 C 
ATOM      2  N   UNL     1       8.860  -0.920  23.830  0.00  0.00    -0.289 N 
ATOM      3  C   UNL     1       9.003  -2.365  24.000  0.00  0.00    +0.162 C 
ATOM      4  C   UNL     1       8.683  -2.624  25.483  0.00  0.00    +0.033 C 
ATOM      5  C   UNL     1       8.456  -1.247  26.098  0.00  0.00    +0.021 C 
ATOM      6  C   UNL     1       8.082  -0.367  24.922  0.00  0.00    +0.108 C 
ATOM      7  O   UNL     1      10.151  -0.904  21.967  0.00  0.00    -0.274 OA
ENDROOT
BRANCH   3   8
ATOM      8  C   UNL     1       8.008  -3.123  23.098  0.00  0.00    +0.234 C 
ATOM      9  N   UNL     1       7.914  -4.472  23.363  0.00  0.00    -0.310 N 
ATOM     10  H   UNL     1       8.707  -4.902  23.832  0.00  0.00    +0.149 HD
ATOM     11  O   UNL     1       7.376  -2.577  22.192  0.00  0.00    -0.274 OA
BRANCH   9  12
ATOM     12  C   UNL     1       7.009  -5.319  22.622  0.00  0.00    +0.139 C 
BRANCH  12  13
ATOM     13  C   UNL     1       5.780  -5.664  23.417  0.00  0.00    -0.030 A 
ATOM     14  C   UNL     1       4.524  -5.708  22.798  0.00  0.00    +0.005 A 
ATOM     15  C   UNL     1       3.387  -6.052  23.528  0.00  0.00    +0.001 A 
ATOM     16  C   UNL     1       3.497  -6.362  24.883  0.00  0.00    +0.003 A 
ATOM     17  C   UNL     1       4.742  -6.327  25.521  0.00  0.00    -0.050 A 
ATOM     18  C   UNL     1       4.853  -6.691  26.970  0.00  0.00    +0.044 C 
ATOM     19  C   UNL     1       5.880  -5.980  24.780  0.00  0.00    +0.008 A 
ENDBRANCH  12  13
ENDBRANCH   9  12
ENDBRANCH   3   8
BRANCH   1  20
ATOM     20  C   UNL     1       9.515   1.287  22.754  0.00  0.00    +0.142 C 
BRANCH  20  21
ATOM     21  N   UNL     1       9.504   1.750  21.342  0.00  0.00    -0.320 NA
ATOM     22  H   UNL     1      10.469   1.845  21.026  0.00  0.00    +0.119 HD
ATOM     23  H   UNL     1       9.090   1.014  20.766  0.00  0.00    +0.119 HD
ENDBRANCH  20  21
BRANCH  20  24
ATOM     24  C   UNL     1      10.643   1.907  23.601  0.00  0.00    +0.063 C 
BRANCH  24  25
ATOM     25  C   UNL     1      10.552   3.419  23.713  0.00  0.00    -0.045 A 
ATOM     26  C   UNL     1      11.659   4.219  23.399  0.00  0.00    +0.004 A 
ATOM     27  C   UNL     1      11.567   5.612  23.454  0.00  0.00    +0.000 A 
ATOM     28  C   UNL     1      10.369   6.219  23.822  0.00  0.00    +0.000 A 
ATOM     29  C   UNL     1       9.268   5.434  24.155  0.00  0.00    +0.000 A 
ATOM     30  C   UNL     1       9.359   4.042  24.110  0.00  0.00    +0.004 A 
ENDBRANCH  24  25
ENDBRANCH  20  24
ENDBRANCH   1  20
TORSDOF 7
ENDMDL
MODEL 8
REMARK VINA RESULT:      -6.9      1.927      7.709
REMARK  Name = 
REMARK  8 active torsions:
REMARK  status: ('A' for Active; 'I' for Inactive)
REMARK    1  A    between atoms: C_2  and  N_3
REMARK    2  A    between atoms: C_2  and  C_4
REMARK    3  A    between atoms: C_2  and  C_11
REMARK    4  A    between atoms: C_4  and  C_5
REMARK    5  A    between atoms: C_17  and  C_19
REMARK    6  A    between atoms: N_21  and  C_22
REMARK    7  A    between atoms: C_22  and  C_23
REMARK    8  A    between atoms: C_25  and  C_26
REMARK                            x       y       z     vdW  Elec       q    Type
REMARK                         _______ _______ _______ _____ _____    ______ ____
ROOT
ATOM      1  C   UNL     1       6.503  -4.125  22.778  0.00  0.00    +0.233 C 
ATOM      2  N   UNL     1       7.533  -4.149  23.692  0.00  0.00    -0.289 N 
ATOM      3  C   UNL     1       7.949  -2.929  24.382  0.00  0.00    +0.162 C 
ATOM      4  C   UNL     1       8.607  -3.415  25.685  0.00  0.00    +0.033 C 
ATOM      5  C   UNL     1       8.438  -4.931  25.687  0.00  0.00    +0.021 C 
ATOM      6  C   UNL     1       8.251  -5.290  24.226  0.00  0.00    +0.108 C 
ATOM      7  O   UNL     1       6.001  -3.045  22.438  0.00  0.00    -0.274 OA
ENDROOT
BRANCH   3   8
ATOM      8  C   UNL     1       8.964  -2.138  23.532  0.00  0.00    +0.234 C 
ATOM      9  N   UNL     1       8.403  -1.153  22.749  0.00  0.00    -0.310 N 
ATOM     10  H   UNL     1       7.417  -1.257  22.519  0.00  0.00    +0.149 HD
ATOM     11  O   UNL     1      10.169  -2.389  23.525  0.00  0.00    -0.274 OA
BRANCH   9  12
ATOM     12  C   UNL     1       9.220  -0.308  21.911  0.00  0.00    +0.139 C 
BRANCH  12  13
ATOM     13  C   UNL     1       9.262   1.111  22.411  0.00  0.00    -0.030 A 
ATOM     14  C   UNL     1      10.373   1.580  23.124  0.00  0.00    +0.005 A 
ATOM     15  C   UNL     1      10.424   2.901  23.566  0.00  0.00    +0.001 A 
ATOM     16  C   UNL     1       9.367   3.768  23.293  0.00  0.00    +0.003 A 
ATOM     17  C   UNL     1       8.248   3.321  22.580  0.00  0.00    -0.050 A 
ATOM     18  C   UNL     1       7.131   4.269  22.267  0.00  0.00    +0.044 C 
ATOM     19  C   UNL     1       8.205   1.991  22.140  0.00  0.00    +0.008 A 
ENDBRANCH  12  13
ENDBRANCH   9  12
ENDBRANCH   3   8
BRANCH   1  20
ATOM     20  C   UNL     1       5.949  -5.445  22.185  0.00  0.00    +0.142 C 
BRANCH  20  21
ATOM     21  N   UNL     1       6.056  -5.439  20.704  0.00  0.00    -0.320 NA
ATOM     22  H   UNL     1       6.901  -5.946  20.439  0.00  0.00    +0.119 HD
ATOM     23  H   UNL     1       5.275  -5.977  20.323  0.00  0.00    +0.119 HD
ENDBRANCH  20  21
BRANCH  20  24
ATOM     24  C   UNL     1       4.533  -5.759  22.704  0.00  0.00    +0.063 C 
BRANCH  24  25
ATOM     25  C   UNL     1       4.417  -5.699  24.217  0.00  0.00    -0.045 A 
ATOM     26  C   UNL     1       4.950  -6.727  25.007  0.00  0.00    +0.004 A 
ATOM     27  C   UNL     1       4.890  -6.655  26.401  0.00  0.00    +0.000 A 
ATOM     28  C   UNL     1       4.298  -5.556  27.019  0.00  0.00    +0.000 A 
ATOM     29  C   UNL     1       3.749  -4.537  26.244  0.00  0.00    +0.000 A 
ATOM     30  C   UNL     1       3.799  -4.612  24.851  0.00  0.00    +0.004 A 
ENDBRANCH  24  25
ENDBRANCH  20  24
ENDBRANCH   1  20
TORSDOF 7
ENDMDL
MODEL 9
REMARK VINA RESULT:      -6.7      1.794      3.762
REMARK  Name = 
REMARK  8 active torsions:
REMARK  status: ('A' for Active; 'I' for Inactive)
REMARK    1  A    between atoms: C_2  and  N_3
REMARK    2  A    between atoms: C_2  and  C_4
REMARK    3  A    between atoms: C_2  and  C_11
REMARK    4  A    between atoms: C_4  and  C_5
REMARK    5  A    between atoms: C_17  and  C_19
REMARK    6  A    between atoms: N_21  and  C_22
REMARK    7  A    between atoms: C_22  and  C_23
REMARK    8  A    between atoms: C_25  and  C_26
REMARK                            x       y       z     vdW  Elec       q    Type
REMARK                         _______ _______ _______ _____ _____    ______ ____
ROOT
ATOM      1  C   UNL     1       7.872   0.828  24.674  0.00  0.00    +0.233 C 
ATOM      2  N   UNL     1       8.804   0.587  23.690  0.00  0.00    -0.289 N 
ATOM      3  C   UNL     1       8.578  -0.450  22.684  0.00  0.00    +0.162 C 
ATOM      4  C   UNL     1       9.430  -0.023  21.476  0.00  0.00    +0.033 C 
ATOM      5  C   UNL     1      10.037   1.323  21.860  0.00  0.00    +0.021 C 
ATOM      6  C   UNL     1      10.009   1.329  23.376  0.00  0.00    +0.108 C 
ATOM      7  O   UNL     1       6.889   0.083  24.794  0.00  0.00    -0.274 OA
ENDROOT
BRANCH   3   8
ATOM      8  C   UNL     1       9.040  -1.826  23.205  0.00  0.00    +0.234 C 
ATOM      9  N   UNL     1       8.029  -2.607  23.722  0.00  0.00    -0.310 N 
ATOM     10  H   UNL     1       7.194  -2.121  24.043  0.00  0.00    +0.149 HD
ATOM     11  O   UNL     1      10.218  -2.185  23.193  0.00  0.00    -0.274 OA
BRANCH   9  12
ATOM     12  C   UNL     1       8.292  -3.932  24.230  0.00  0.00    +0.139 C 
BRANCH  12  13
ATOM     13  C   UNL     1       7.073  -4.812  24.170  0.00  0.00    -0.030 A 
ATOM     14  C   UNL     1       6.524  -5.181  22.935  0.00  0.00    +0.005 A 
ATOM     15  C   UNL     1       5.410  -6.016  22.878  0.00  0.00    +0.001 A 
ATOM     16  C   UNL     1       4.837  -6.495  24.055  0.00  0.00    +0.003 A 
ATOM     17  C   UNL     1       5.370  -6.140  25.299  0.00  0.00    -0.050 A 
ATOM     18  C   UNL     1       4.764  -6.684  26.557  0.00  0.00    +0.044 C 
ATOM     19  C   UNL     1       6.491  -5.300  25.348  0.00  0.00    +0.008 A 
ENDBRANCH  12  13
ENDBRANCH   9  12
ENDBRANCH   3   8
BRANCH   1  20
ATOM     20  C   UNL     1       8.029   2.041  25.625  0.00  0.00    +0.142 C 
BRANCH  20  21
ATOM     21  N   UNL     1       7.541   1.705  26.987  0.00  0.00    -0.320 NA
ATOM     22  H   UNL     1       8.336   1.399  27.548  0.00  0.00    +0.119 HD
ATOM     23  H   UNL     1       7.201   2.563  27.427  0.00  0.00    +0.119 HD
ENDBRANCH  20  21
BRANCH  20  24
ATOM     24  C   UNL     1       7.400   3.318  25.037  0.00  0.00    +0.063 C 
BRANCH  24  25
ATOM     25  C   UNL     1       8.346   4.506  25.023  0.00  0.00    -0.045 A 
ATOM     26  C   UNL     1       9.277   4.655  23.985  0.00  0.00    +0.004 A 
ATOM     27  C   UNL     1      10.118   5.770  23.940  0.00  0.00    +0.000 A 
ATOM     28  C   UNL     1      10.037   6.747  24.930  0.00  0.00    +0.000 A 
ATOM     29  C   UNL     1       9.129   6.600  25.976  0.00  0.00    +0.000 A 
ATOM     30  C   UNL     1       8.294   5.482  26.029  0.00  0.00    +0.004 A 
ENDBRANCH  24  25
ENDBRANCH  20  24
ENDBRANCH   1  20
TORSDOF 7
ENDMDL
