MODEL 1
REMARK VINA RESULT:      -7.5      0.000      0.000
REMARK  Name = 
REMARK  2 active torsions:
REMARK  status: ('A' for Active; 'I' for Inactive)
REMARK    1  A    between atoms: C_3  and  C_8
REMARK    2  A    between atoms: C_10  and  C_14
REMARK                            x       y       z     vdW  Elec       q    Type
REMARK                         _______ _______ _______ _____ _____    ______ ____
ROOT
ATOM      1  C   UNL     1       9.168   1.952  23.350  0.00  0.00    +0.074 A 
ATOM      2  N   UNL     1       9.373   1.906  22.009  0.00  0.00    -0.255 NA
ATOM      3  C   UNL     1       9.344   0.696  21.407  0.00  0.00    +0.112 A 
ATOM      4  C   UNL     1       9.121  -0.495  22.076  0.00  0.00    +0.029 A 
ATOM      5  C   UNL     1       8.901  -0.452  23.449  0.00  0.00    +0.002 A 
ATOM      6  C   UNL     1       8.926   0.792  24.084  0.00  0.00    +0.038 A 
ENDROOT
BRANCH   5   7
ATOM      7  C   UNL     1       8.696  -1.676  24.226  0.00  0.00    +0.048 A 
ATOM      8  N   UNL     1       7.666  -1.821  25.139  0.00  0.00    -0.357 N 
ATOM      9  H   UNL     1       6.959  -1.121  25.326  0.00  0.00    +0.166 HD
ATOM     10  C   UNL     1       7.745  -3.046  25.734  0.00  0.00    +0.030 A 
ATOM     11  C   UNL     1       6.820  -3.555  26.772  0.00  0.00    +0.072 C 
ATOM     12  C   UNL     1       7.233  -4.962  27.255  0.00  0.00    +0.110 C 
ATOM     13  N   UNL     1       8.332  -5.627  26.557  0.00  0.00    -0.311 N 
ATOM     14  H   UNL     1       8.608  -6.555  26.845  0.00  0.00    +0.149 HD
ATOM     15  C   UNL     1       9.160  -5.077  25.606  0.00  0.00    +0.246 C 
ATOM     16  O   UNL     1      10.105  -5.705  25.142  0.00  0.00    -0.270 OA
ATOM     17  C   UNL     1       8.812  -3.730  25.196  0.00  0.00    +0.058 A 
ATOM     18  C   UNL     1       9.408  -2.867  24.244  0.00  0.00    +0.041 A 
ENDBRANCH   5   7
BRANCH   1  25
ATOM     19  F   UNL     1      11.412   3.724  22.921  0.00  0.00    -0.205 F 
ATOM     20  C   UNL     1      10.406   4.127  23.716  0.00  0.00    +0.133 A 
ATOM     21  C   UNL     1      10.478   5.421  24.229  0.00  0.00    +0.039 A 
ATOM     22  C   UNL     1       9.470   5.891  25.066  0.00  0.00    +0.003 A 
ATOM     23  C   UNL     1       8.413   5.052  25.407  0.00  0.00    +0.001 A 
ATOM     24  C   UNL     1       8.348   3.756  24.884  0.00  0.00    +0.013 A 
ATOM     25  C   UNL     1       9.329   3.270  23.997  0.00  0.00    +0.036 A 
ENDBRANCH   1  25
TORSDOF 2
ENDMDL
MODEL 2
REMARK VINA RESULT:      -7.5      2.165      2.692
REMARK  Name = 
REMARK  2 active torsions:
REMARK  status: ('A' for Active; 'I' for Inactive)
REMARK    1  A    between atoms: C_3  and  C_8
REMARK    2  A    between atoms: C_10  and  C_14
REMARK                            x       y       z     vdW  Elec       q    Type
REMARK                         _______ _______ _______ _____ _____    ______ ____
ROOT
ATOM      1  C   UNL     1       8.751   0.250  22.897  0.00  0.00    +0.074 A 
ATOM      2  N   UNL     1       9.988   0.042  22.378  0.00  0.00    -0.255 NA
ATOM      3  C   UNL     1      10.504  -1.205  22.459  0.00  0.00    +0.112 A 
ATOM      4  C   UNL     1       9.850  -2.278  23.040  0.00  0.00    +0.029 A 
ATOM      5  C   UNL     1       8.578  -2.071  23.565  0.00  0.00    +0.002 A 
ATOM      6  C   UNL     1       8.031  -0.788  23.487  0.00  0.00    +0.038 A 
ENDROOT
BRANCH   5   7
ATOM      7  C   UNL     1       7.843  -3.150  24.228  0.00  0.00    +0.048 A 
ATOM      8  N   UNL     1       6.732  -3.755  23.668  0.00  0.00    -0.357 N 
ATOM      9  H   UNL     1       6.353  -3.533  22.756  0.00  0.00    +0.166 HD
ATOM     10  C   UNL     1       6.237  -4.697  24.523  0.00  0.00    +0.030 A 
ATOM     11  C   UNL     1       5.048  -5.542  24.272  0.00  0.00    +0.072 C 
ATOM     12  C   UNL     1       4.749  -6.465  25.472  0.00  0.00    +0.110 C 
ATOM     13  N   UNL     1       5.710  -6.487  26.572  0.00  0.00    -0.311 N 
ATOM     14  H   UNL     1       5.543  -7.097  27.360  0.00  0.00    +0.149 HD
ATOM     15  C   UNL     1       6.792  -5.653  26.742  0.00  0.00    +0.246 C 
ATOM     16  O   UNL     1       7.489  -5.708  27.748  0.00  0.00    -0.270 OA
ATOM     17  C   UNL     1       7.038  -4.739  25.643  0.00  0.00    +0.058 A 
ATOM     18  C   UNL     1       8.051  -3.767  25.454  0.00  0.00    +0.041 A 
ENDBRANCH   5   7
BRANCH   1  25
ATOM     19  F   UNL     1       9.848   2.353  24.551  0.00  0.00    -0.205 F 
ATOM     20  C   UNL     1       8.866   2.651  23.683  0.00  0.00    +0.133 A 
ATOM     21  C   UNL     1       8.488   3.990  23.583  0.00  0.00    +0.039 A 
ATOM     22  C   UNL     1       7.470   4.358  22.708  0.00  0.00    +0.003 A 
ATOM     23  C   UNL     1       6.819   3.381  21.962  0.00  0.00    +0.001 A 
ATOM     24  C   UNL     1       7.209   2.041  22.066  0.00  0.00    +0.013 A 
ATOM     25  C   UNL     1       8.266   1.645  22.907  0.00  0.00    +0.036 A 
ENDBRANCH   1  25
TORSDOF 2
ENDMDL
MODEL 3
REMARK VINA RESULT:      -7.3      3.745      5.531
REMARK  Name = 
REMARK  2 active torsions:
REMARK  status: ('A' for Active; 'I' for Inactive)
REMARK    1  A    between atoms: C_3  and  C_8
REMARK    2  A    between atoms: C_10  and  C_14
REMARK                            x       y       z     vdW  Elec       q    Type
REMARK                         _______ _______ _______ _____ _____    ______ ____
ROOT
ATOM      1  C   UNL     1       8.798  -2.772  23.815  0.00  0.00    +0.074 A 
ATOM      2  N   UNL     1       9.807  -3.484  24.377  0.00  0.00    -0.255 NA
ATOM      3  C   UNL     1       9.496  -4.656  24.975  0.00  0.00    +0.112 A 
ATOM      4  C   UNL     1       8.213  -5.168  25.052  0.00  0.00    +0.029 A 
ATOM      5  C   UNL     1       7.176  -4.446  24.470  0.00  0.00    +0.002 A 
ATOM      6  C   UNL     1       7.483  -3.234  23.845  0.00  0.00    +0.038 A 
ENDROOT
BRANCH   5   7
ATOM      7  C   UNL     1       5.789  -4.909  24.545  0.00  0.00    +0.048 A 
ATOM      8  N   UNL     1       4.715  -4.045  24.665  0.00  0.00    -0.357 N 
ATOM      9  H   UNL     1       4.786  -3.035  24.681  0.00  0.00    +0.166 HD
ATOM     10  C   UNL     1       3.554  -4.758  24.747  0.00  0.00    +0.030 A 
ATOM     11  C   UNL     1       2.201  -4.177  24.893  0.00  0.00    +0.072 C 
ATOM     12  C   UNL     1       1.123  -5.277  25.001  0.00  0.00    +0.110 C 
ATOM     13  N   UNL     1       1.542  -6.663  24.805  0.00  0.00    -0.311 N 
ATOM     14  H   UNL     1       0.851  -7.398  24.854  0.00  0.00    +0.149 HD
ATOM     15  C   UNL     1       2.832  -7.128  24.689  0.00  0.00    +0.246 C 
ATOM     16  O   UNL     1       3.074  -8.327  24.608  0.00  0.00    -0.270 OA
ATOM     17  C   UNL     1       3.853  -6.099  24.653  0.00  0.00    +0.058 A 
ATOM     18  C   UNL     1       5.260  -6.193  24.522  0.00  0.00    +0.041 A 
ENDBRANCH   5   7
BRANCH   1  25
ATOM     19  F   UNL     1       9.843  -0.592  25.402  0.00  0.00    -0.205 F 
ATOM     20  C   UNL     1       9.709  -0.427  24.075  0.00  0.00    +0.133 A 
ATOM     21  C   UNL     1      10.160   0.777  23.533  0.00  0.00    +0.039 A 
ATOM     22  C   UNL     1      10.040   1.009  22.167  0.00  0.00    +0.003 A 
ATOM     23  C   UNL     1       9.442   0.048  21.357  0.00  0.00    +0.001 A 
ATOM     24  C   UNL     1       8.997  -1.158  21.909  0.00  0.00    +0.013 A 
ATOM     25  C   UNL     1       9.148  -1.441  23.280  0.00  0.00    +0.036 A 
ENDBRANCH   1  25
TORSDOF 2
ENDMDL
MODEL 4
REMARK VINA RESULT:      -7.3      2.960      3.235
REMARK  Name = 
REMARK  2 active torsions:
REMARK  status: ('A' for Active; 'I' for Inactive)
REMARK    1  A    between atoms: C_3  and  C_8
REMARK    2  A    between atoms: C_10  and  C_14
REMARK                            x       y       z     vdW  Elec       q    Type
REMARK                         _______ _______ _______ _____ _____    ______ ____
ROOT
ATOM      1  C   UNL     1       8.821   0.934  23.489  0.00  0.00    +0.074 A 
ATOM      2  N   UNL     1      10.103   0.817  23.921  0.00  0.00    -0.255 NA
ATOM      3  C   UNL     1      10.579  -0.426  24.155  0.00  0.00    +0.112 A 
ATOM      4  C   UNL     1       9.838  -1.584  23.985  0.00  0.00    +0.029 A 
ATOM      5  C   UNL     1       8.527  -1.470  23.534  0.00  0.00    +0.002 A 
ATOM      6  C   UNL     1       8.022  -0.191  23.285  0.00  0.00    +0.038 A 
ENDROOT
BRANCH   5   7
ATOM      7  C   UNL     1       7.674  -2.647  23.367  0.00  0.00    +0.048 A 
ATOM      8  N   UNL     1       7.046  -3.276  24.428  0.00  0.00    -0.357 N 
ATOM      9  H   UNL     1       7.094  -2.967  25.391  0.00  0.00    +0.166 HD
ATOM     10  C   UNL     1       6.350  -4.360  23.978  0.00  0.00    +0.030 A 
ATOM     11  C   UNL     1       5.561  -5.282  24.824  0.00  0.00    +0.072 C 
ATOM     12  C   UNL     1       4.943  -6.424  23.989  0.00  0.00    +0.110 C 
ATOM     13  N   UNL     1       5.088  -6.362  22.536  0.00  0.00    -0.311 N 
ATOM     14  H   UNL     1       4.676  -7.090  21.969  0.00  0.00    +0.149 HD
ATOM     15  C   UNL     1       5.856  -5.474  21.820  0.00  0.00    +0.246 C 
ATOM     16  O   UNL     1       5.968  -5.564  20.602  0.00  0.00    -0.270 OA
ATOM     17  C   UNL     1       6.491  -4.437  22.610  0.00  0.00    +0.058 A 
ATOM     18  C   UNL     1       7.322  -3.356  22.226  0.00  0.00    +0.041 A 
ENDBRANCH   5   7
BRANCH   1  25
ATOM     19  F   UNL     1       7.729   2.048  21.055  0.00  0.00    -0.205 F 
ATOM     20  C   UNL     1       7.713   2.789  22.176  0.00  0.00    +0.133 A 
ATOM     21  C   UNL     1       7.094   4.037  22.107  0.00  0.00    +0.039 A 
ATOM     22  C   UNL     1       7.054   4.853  23.232  0.00  0.00    +0.003 A 
ATOM     23  C   UNL     1       7.660   4.428  24.411  0.00  0.00    +0.001 A 
ATOM     24  C   UNL     1       8.275   3.173  24.472  0.00  0.00    +0.013 A 
ATOM     25  C   UNL     1       8.290   2.306  23.362  0.00  0.00    +0.036 A 
ENDBRANCH   1  25
TORSDOF 2
ENDMDL
MODEL 5
REMARK VINA RESULT:      -7.3      4.127      7.900
REMARK  Name = 
REMARK  2 active torsions:
REMARK  status: ('A' for Active; 'I' for Inactive)
REMARK    1  A    between atoms: C_3  and  C_8
REMARK    2  A    between atoms: C_10  and  C_14
REMARK                            x       y       z     vdW  Elec       q    Type
REMARK                         _______ _______ _______ _____ _____    ______ ____
ROOT
ATOM      1  C   UNL     1       8.751  -1.762  23.309  0.00  0.00    +0.074 A 
ATOM      2  N   UNL     1       9.729  -1.958  22.389  0.00  0.00    -0.255 NA
ATOM      3  C   UNL     1       9.976  -0.963  21.508  0.00  0.00    +0.112 A 
ATOM      4  C   UNL     1       9.290   0.240  21.487  0.00  0.00    +0.029 A 
ATOM      5  C   UNL     1       8.293   0.449  22.434  0.00  0.00    +0.002 A 
ATOM      6  C   UNL     1       8.029  -0.571  23.353  0.00  0.00    +0.038 A 
ENDROOT
BRANCH   5   7
ATOM      7  C   UNL     1       7.502   1.681  22.448  0.00  0.00    +0.048 A 
ATOM      8  N   UNL     1       6.138   1.693  22.679  0.00  0.00    -0.357 N 
ATOM      9  H   UNL     1       5.580   0.874  22.884  0.00  0.00    +0.166 HD
ATOM     10  C   UNL     1       5.666   2.972  22.598  0.00  0.00    +0.030 A 
ATOM     11  C   UNL     1       4.254   3.377  22.777  0.00  0.00    +0.072 C 
ATOM     12  C   UNL     1       4.073   4.896  22.571  0.00  0.00    +0.110 C 
ATOM     13  N   UNL     1       5.274   5.707  22.385  0.00  0.00    -0.311 N 
ATOM     14  H   UNL     1       5.181   6.706  22.266  0.00  0.00    +0.149 HD
ATOM     15  C   UNL     1       6.561   5.251  22.212  0.00  0.00    +0.246 C 
ATOM     16  O   UNL     1       7.486   6.022  21.983  0.00  0.00    -0.270 OA
ATOM     17  C   UNL     1       6.724   3.816  22.341  0.00  0.00    +0.058 A 
ATOM     18  C   UNL     1       7.880   3.002  22.251  0.00  0.00    +0.041 A 
ENDBRANCH   5   7
BRANCH   1  25
ATOM     19  F   UNL     1       7.554  -4.224  22.376  0.00  0.00    -0.205 F 
ATOM     20  C   UNL     1       7.893  -4.114  23.672  0.00  0.00    +0.133 A 
ATOM     21  C   UNL     1       7.711  -5.238  24.477  0.00  0.00    +0.039 A 
ATOM     22  C   UNL     1       8.035  -5.181  25.829  0.00  0.00    +0.003 A 
ATOM     23  C   UNL     1       8.511  -3.992  26.372  0.00  0.00    +0.001 A 
ATOM     24  C   UNL     1       8.695  -2.870  25.556  0.00  0.00    +0.013 A 
ATOM     25  C   UNL     1       8.420  -2.912  24.175  0.00  0.00    +0.036 A 
ENDBRANCH   1  25
TORSDOF 2
ENDMDL
MODEL 6
REMARK VINA RESULT:      -7.2      3.676      8.366
REMARK  Name = 
REMARK  2 active torsions:
REMARK  status: ('A' for Active; 'I' for Inactive)
REMARK    1  A    between atoms: C_3  and  C_8
REMARK    2  A    between atoms: C_10  and  C_14
REMARK                            x       y       z     vdW  Elec       q    Type
REMARK                         _______ _______ _______ _____ _____    ______ ____
ROOT
ATOM      1  C   UNL     1       7.202  -4.692  24.970  0.00  0.00    +0.074 A 
ATOM      2  N   UNL     1       8.383  -5.304  25.241  0.00  0.00    -0.255 NA
ATOM      3  C   UNL     1       9.521  -4.611  25.010  0.00  0.00    +0.112 A 
ATOM      4  C   UNL     1       9.552  -3.320  24.511  0.00  0.00    +0.029 A 
ATOM      5  C   UNL     1       8.344  -2.685  24.241  0.00  0.00    +0.002 A 
ATOM      6  C   UNL     1       7.160  -3.389  24.477  0.00  0.00    +0.038 A 
ENDROOT
BRANCH   5   7
ATOM      7  C   UNL     1       8.302  -1.335  23.677  0.00  0.00    +0.048 A 
ATOM      8  N   UNL     1       7.133  -0.603  23.569  0.00  0.00    -0.357 N 
ATOM      9  H   UNL     1       6.226  -0.915  23.891  0.00  0.00    +0.166 HD
ATOM     10  C   UNL     1       7.392   0.599  22.977  0.00  0.00    +0.030 A 
ATOM     11  C   UNL     1       6.387   1.645  22.686  0.00  0.00    +0.072 C 
ATOM     12  C   UNL     1       7.023   2.856  21.969  0.00  0.00    +0.110 C 
ATOM     13  N   UNL     1       8.476   2.871  21.817  0.00  0.00    -0.311 N 
ATOM     14  H   UNL     1       8.916   3.661  21.367  0.00  0.00    +0.149 HD
ATOM     15  C   UNL     1       9.348   1.845  22.101  0.00  0.00    +0.246 C 
ATOM     16  O   UNL     1      10.546   1.939  21.858  0.00  0.00    -0.270 OA
ATOM     17  C   UNL     1       8.742   0.679  22.716  0.00  0.00    +0.058 A 
ATOM     18  C   UNL     1       9.315  -0.538  23.160  0.00  0.00    +0.041 A 
ENDBRANCH   5   7
BRANCH   1  25
ATOM     19  F   UNL     1       5.574  -5.606  22.763  0.00  0.00    -0.205 F 
ATOM     20  C   UNL     1       5.254  -5.989  24.011  0.00  0.00    +0.133 A 
ATOM     21  C   UNL     1       4.187  -6.875  24.153  0.00  0.00    +0.039 A 
ATOM     22  C   UNL     1       3.804  -7.300  25.421  0.00  0.00    +0.003 A 
ATOM     23  C   UNL     1       4.472  -6.812  26.540  0.00  0.00    +0.001 A 
ATOM     24  C   UNL     1       5.545  -5.926  26.387  0.00  0.00    +0.013 A 
ATOM     25  C   UNL     1       5.985  -5.515  25.114  0.00  0.00    +0.036 A 
ENDBRANCH   1  25
TORSDOF 2
ENDMDL
MODEL 7
REMARK VINA RESULT:      -7.2      3.959      8.418
REMARK  Name = 
REMARK  2 active torsions:
REMARK  status: ('A' for Active; 'I' for Inactive)
REMARK    1  A    between atoms: C_3  and  C_8
REMARK    2  A    between atoms: C_10  and  C_14
REMARK                            x       y       z     vdW  Elec       q    Type
REMARK                         _______ _______ _______ _____ _____    ______ ____
ROOT
ATOM      1  C   UNL     1       7.217  -4.865  24.633  0.00  0.00    +0.074 A 
ATOM      2  N   UNL     1       8.209  -5.630  25.155  0.00  0.00    -0.255 NA
ATOM      3  C   UNL     1       9.444  -5.088  25.243  0.00  0.00    +0.112 A 
ATOM      4  C   UNL     1       9.757  -3.804  24.830  0.00  0.00    +0.029 A 
ATOM      5  C   UNL     1       8.742  -3.013  24.303  0.00  0.00    +0.002 A 
ATOM      6  C   UNL     1       7.459  -3.560  24.208  0.00  0.00    +0.038 A 
ENDROOT
BRANCH   5   7
ATOM      7  C   UNL     1       9.008  -1.660  23.812  0.00  0.00    +0.048 A 
ATOM      8  N   UNL     1       9.988  -0.846  24.349  0.00  0.00    -0.357 N 
ATOM      9  H   UNL     1      10.618  -1.117  25.094  0.00  0.00    +0.166 HD
ATOM     10  C   UNL     1       9.983   0.364  23.718  0.00  0.00    +0.030 A 
ATOM     11  C   UNL     1      10.885   1.496  24.029  0.00  0.00    +0.072 C 
ATOM     12  C   UNL     1      10.570   2.725  23.150  0.00  0.00    +0.110 C 
ATOM     13  N   UNL     1       9.579   2.569  22.088  0.00  0.00    -0.311 N 
ATOM     14  H   UNL     1       9.370   3.355  21.489  0.00  0.00    +0.149 HD
ATOM     15  C   UNL     1       8.765   1.481  21.871  0.00  0.00    +0.246 C 
ATOM     16  O   UNL     1       7.909   1.489  20.993  0.00  0.00    -0.270 OA
ATOM     17  C   UNL     1       9.015   0.346  22.739  0.00  0.00    +0.058 A 
ATOM     18  C   UNL     1       8.404  -0.930  22.796  0.00  0.00    +0.041 A 
ENDBRANCH   5   7
BRANCH   1  25
ATOM     19  F   UNL     1       5.790  -6.325  26.681  0.00  0.00    -0.205 F 
ATOM     20  C   UNL     1       5.222  -6.173  25.473  0.00  0.00    +0.133 A 
ATOM     21  C   UNL     1       3.931  -6.674  25.308  0.00  0.00    +0.039 A 
ATOM     22  C   UNL     1       3.294  -6.555  24.077  0.00  0.00    +0.003 A 
ATOM     23  C   UNL     1       3.965  -5.963  23.011  0.00  0.00    +0.001 A 
ATOM     24  C   UNL     1       5.259  -5.460  23.187  0.00  0.00    +0.013 A 
ATOM     25  C   UNL     1       5.910  -5.524  24.434  0.00  0.00    +0.036 A 
ENDBRANCH   1  25
TORSDOF 2
ENDMDL
MODEL 8
REMARK VINA RESULT:      -7.2      3.126      4.146
REMARK  Name = 
REMARK  2 active torsions:
REMARK  status: ('A' for Active; 'I' for Inactive)
REMARK    1  A    between atoms: C_3  and  C_8
REMARK    2  A    between atoms: C_10  and  C_14
REMARK                            x       y       z     vdW  Elec       q    Type
REMARK                         _______ _______ _______ _____ _____    ______ ____
ROOT
ATOM      1  C   UNL     1       8.195  -0.971  23.346  0.00  0.00    +0.074 A 
ATOM      2  N   UNL     1       9.530  -1.197  23.444  0.00  0.00    -0.255 NA
ATOM      3  C   UNL     1       9.935  -2.421  23.852  0.00  0.00    +0.112 A 
ATOM      4  C   UNL     1       9.071  -3.452  24.179  0.00  0.00    +0.029 A 
ATOM      5  C   UNL     1       7.702  -3.228  24.071  0.00  0.00    +0.002 A 
ATOM      6  C   UNL     1       7.269  -1.969  23.648  0.00  0.00    +0.038 A 
ENDROOT
BRANCH   5   7
ATOM      7  C   UNL     1       6.730  -4.261  24.436  0.00  0.00    +0.048 A 
ATOM      8  N   UNL     1       5.706  -4.657  23.594  0.00  0.00    -0.357 N 
ATOM      9  H   UNL     1       5.557  -4.299  22.659  0.00  0.00    +0.166 HD
ATOM     10  C   UNL     1       4.941  -5.605  24.210  0.00  0.00    +0.030 A 
ATOM     11  C   UNL     1       3.749  -6.258  23.624  0.00  0.00    +0.072 C 
ATOM     12  C   UNL     1       3.102  -7.246  24.618  0.00  0.00    +0.110 C 
ATOM     13  N   UNL     1       3.798  -7.502  25.877  0.00  0.00    -0.311 N 
ATOM     14  H   UNL     1       3.401  -8.158  26.535  0.00  0.00    +0.149 HD
ATOM     15  C   UNL     1       4.901  -6.837  26.361  0.00  0.00    +0.246 C 
ATOM     16  O   UNL     1       5.357  -7.082  27.472  0.00  0.00    -0.270 OA
ATOM     17  C   UNL     1       5.474  -5.861  25.454  0.00  0.00    +0.058 A 
ATOM     18  C   UNL     1       6.603  -5.016  25.593  0.00  0.00    +0.041 A 
ENDBRANCH   5   7
BRANCH   1  25
ATOM     19  F   UNL     1       9.214   0.558  21.114  0.00  0.00    -0.205 F 
ATOM     20  C   UNL     1       8.257   1.096  21.890  0.00  0.00    +0.133 A 
ATOM     21  C   UNL     1       7.760   2.344  21.517  0.00  0.00    +0.039 A 
ATOM     22  C   UNL     1       6.775   2.955  22.286  0.00  0.00    +0.003 A 
ATOM     23  C   UNL     1       6.316   2.326  23.441  0.00  0.00    +0.001 A 
ATOM     24  C   UNL     1       6.819   1.072  23.804  0.00  0.00    +0.013 A 
ATOM     25  C   UNL     1       7.782   0.408  23.019  0.00  0.00    +0.036 A 
ENDBRANCH   1  25
TORSDOF 2
ENDMDL
MODEL 9
REMARK VINA RESULT:      -7.2      3.160      4.850
REMARK  Name = 
REMARK  2 active torsions:
REMARK  status: ('A' for Active; 'I' for Inactive)
REMARK    1  A    between atoms: C_3  and  C_8
REMARK    2  A    between atoms: C_10  and  C_14
REMARK                            x       y       z     vdW  Elec       q    Type
REMARK                         _______ _______ _______ _____ _____    ______ ____
ROOT
ATOM      1  C   UNL     1       7.740  -2.280  23.613  0.00  0.00    +0.074 A 
ATOM      2  N   UNL     1       7.830  -2.798  22.361  0.00  0.00    -0.255 NA
ATOM      3  C   UNL     1       7.267  -4.006  22.137  0.00  0.00    +0.112 A 
ATOM      4  C   UNL     1       6.610  -4.746  23.105  0.00  0.00    +0.029 A 
ATOM      5  C   UNL     1       6.507  -4.215  24.387  0.00  0.00    +0.002 A 
ATOM      6  C   UNL     1       7.082  -2.966  24.633  0.00  0.00    +0.038 A 
ENDROOT
BRANCH   5   7
ATOM      7  C   UNL     1       5.859  -4.958  25.470  0.00  0.00    +0.048 A 
ATOM      8  N   UNL     1       4.485  -5.041  25.605  0.00  0.00    -0.357 N 
ATOM      9  H   UNL     1       3.817  -4.630  24.964  0.00  0.00    +0.166 HD
ATOM     10  C   UNL     1       4.172  -5.764  26.718  0.00  0.00    +0.030 A 
ATOM     11  C   UNL     1       2.800  -6.056  27.193  0.00  0.00    +0.072 C 
ATOM     12  C   UNL     1       2.819  -6.861  28.510  0.00  0.00    +0.110 C 
ATOM     13  N   UNL     1       4.111  -7.328  29.006  0.00  0.00    -0.311 N 
ATOM     14  H   UNL     1       4.146  -7.872  29.857  0.00  0.00    +0.149 HD
ATOM     15  C   UNL     1       5.354  -6.999  28.514  0.00  0.00    +0.246 C 
ATOM     16  O   UNL     1       6.380  -7.387  29.060  0.00  0.00    -0.270 OA
ATOM     17  C   UNL     1       5.340  -6.188  27.311  0.00  0.00    +0.058 A 
ATOM     18  C   UNL     1       6.402  -5.683  26.522  0.00  0.00    +0.041 A 
ENDBRANCH   5   7
BRANCH   1  25
ATOM     19  F   UNL     1       6.823   0.333  22.782  0.00  0.00    -0.205 F 
ATOM     20  C   UNL     1       7.960   0.237  23.491  0.00  0.00    +0.133 A 
ATOM     21  C   UNL     1       8.593   1.427  23.848  0.00  0.00    +0.039 A 
ATOM     22  C   UNL     1       9.779   1.390  24.575  0.00  0.00    +0.003 A 
ATOM     23  C   UNL     1      10.339   0.162  24.913  0.00  0.00    +0.001 A 
ATOM     24  C   UNL     1       9.695  -1.027  24.554  0.00  0.00    +0.013 A 
ATOM     25  C   UNL     1       8.470  -1.020  23.859  0.00  0.00    +0.036 A 
ENDBRANCH   1  25
TORSDOF 2
ENDMDL
