MODEL 1
REMARK VINA RESULT:      -4.0      0.000      0.000
REMARK  Name = 
REMARK  8 active torsions:
REMARK  status: ('A' for Active; 'I' for Inactive)
REMARK    1  A    between atoms: O_1  and  C_2
REMARK    2  A    between atoms: C_2  and  C_3
REMARK    3  A    between atoms: C_3  and  C_4
REMARK    4  A    between atoms: C_3  and  O_6
REMARK    5  A    between atoms: C_4  and  O_5
REMARK    6  A    between atoms: O_6  and  P_7
REMARK    7  A    between atoms: P_7  and  O_8
REMARK    8  A    between atoms: P_7  and  O_9
REMARK                            x       y       z     vdW  Elec       q    Type
REMARK                         _______ _______ _______ _____ _____    ______ ____
ROOT
ATOM      1  C   UNL     1       9.390  -2.127  23.886  0.00  0.00    +0.181 C 
ENDROOT
BRANCH   1   2
ATOM      2  C   UNL     1      10.373  -1.339  23.014  0.00  0.00    +0.190 C 
BRANCH   2   3
ATOM      3  O   UNL     1      10.206  -1.648  21.628  0.00  0.00    -0.392 OA
ATOM      4  H   UNL     1      10.632  -2.522  21.499  0.00  0.00    +0.210 HD
ENDBRANCH   2   3
ENDBRANCH   1   2
BRANCH   1   5
ATOM      5  O   UNL     1       9.854  -3.478  23.936  0.00  0.00    -0.279 OA
BRANCH   5   6
ATOM      6  P   UNL     1       9.081  -4.524  25.075  0.00  0.00    +0.473 P 
ATOM      7  O   UNL     1       8.389  -5.461  26.096  0.00  0.00    -0.228 OA
BRANCH   6   8
ATOM      8  O   UNL     1      10.504  -5.307  25.234  0.00  0.00    -0.303 OA
ATOM      9  H   UNL     1      10.276  -6.245  25.409  0.00  0.00    +0.222 HD
ENDBRANCH   6   8
BRANCH   6  10
ATOM     10  O   UNL     1       8.486  -5.346  23.797  0.00  0.00    -0.303 OA
ATOM     11  H   UNL     1       9.117  -6.021  23.501  0.00  0.00    +0.222 HD
ENDBRANCH   6  10
ENDBRANCH   5   6
ENDBRANCH   1   5
BRANCH   1  12
ATOM     12  C   UNL     1       7.956  -2.037  23.355  0.00  0.00    +0.190 C 
BRANCH  12  13
ATOM     13  O   UNL     1       7.759  -2.849  22.204  0.00  0.00    -0.392 OA
ATOM     14  H   UNL     1       6.884  -3.266  22.263  0.00  0.00    +0.210 HD
ENDBRANCH  12  13
ENDBRANCH   1  12
TORSDOF 8
ENDMDL
MODEL 2
REMARK VINA RESULT:      -3.9      1.263      1.622
REMARK  Name = 
REMARK  8 active torsions:
REMARK  status: ('A' for Active; 'I' for Inactive)
REMARK    1  A    between atoms: O_1  and  C_2
REMARK    2  A    between atoms: C_2  and  C_3
REMARK    3  A    between atoms: C_3  and  C_4
REMARK    4  A    between atoms: C_3  and  O_6
REMARK    5  A    between atoms: C_4  and  O_5
REMARK    6  A    between atoms: O_6  and  P_7
REMARK    7  A    between atoms: P_7  and  O_8
REMARK    8  A    between atoms: P_7  and  O_9
REMARK                            x       y       z     vdW  Elec       q    Type
REMARK                         _______ _______ _______ _____ _____    ______ ____
ROOT
ATOM      1  C   UNL     1       9.778  -2.214  24.012  0.00  0.00    +0.181 C 
ENDROOT
BRANCH   1   2
ATOM      2  C   UNL     1       9.217  -1.982  22.606  0.00  0.00    +0.190 C 
BRANCH   2   3
ATOM      3  O   UNL     1      10.248  -1.616  21.686  0.00  0.00    -0.392 OA
ATOM      4  H   UNL     1      10.176  -0.643  21.581  0.00  0.00    +0.210 HD
ENDBRANCH   2   3
ENDBRANCH   1   2
BRANCH   1   5
ATOM      5  O   UNL     1      10.115  -3.600  24.112  0.00  0.00    -0.279 OA
BRANCH   5   6
ATOM      6  P   UNL     1       9.156  -4.558  25.186  0.00  0.00    +0.473 P 
ATOM      7  O   UNL     1       8.298  -5.417  26.148  0.00  0.00    -0.228 OA
BRANCH   6   8
ATOM      8  O   UNL     1      10.468  -5.500  25.423  0.00  0.00    -0.303 OA
ATOM      9  H   UNL     1      11.114  -4.942  25.907  0.00  0.00    +0.222 HD
ENDBRANCH   6   8
BRANCH   6  10
ATOM     10  O   UNL     1       8.554  -5.297  23.862  0.00  0.00    -0.303 OA
ATOM     11  H   UNL     1       9.239  -5.827  23.425  0.00  0.00    +0.222 HD
ENDBRANCH   6  10
ENDBRANCH   5   6
ENDBRANCH   1   5
BRANCH   1  12
ATOM     12  C   UNL     1       8.787  -1.790  25.101  0.00  0.00    +0.190 C 
BRANCH  12  13
ATOM     13  O   UNL     1       9.251  -0.667  25.839  0.00  0.00    -0.392 OA
ATOM     14  H   UNL     1      10.081  -0.354  25.441  0.00  0.00    +0.210 HD
ENDBRANCH  12  13
ENDBRANCH   1  12
TORSDOF 8
ENDMDL
MODEL 3
REMARK VINA RESULT:      -3.9      2.633      3.557
REMARK  Name = 
REMARK  8 active torsions:
REMARK  status: ('A' for Active; 'I' for Inactive)
REMARK    1  A    between atoms: O_1  and  C_2
REMARK    2  A    between atoms: C_2  and  C_3
REMARK    3  A    between atoms: C_3  and  C_4
REMARK    4  A    between atoms: C_3  and  O_6
REMARK    5  A    between atoms: C_4  and  O_5
REMARK    6  A    between atoms: O_6  and  P_7
REMARK    7  A    between atoms: P_7  and  O_8
REMARK    8  A    between atoms: P_7  and  O_9
REMARK                            x       y       z     vdW  Elec       q    Type
REMARK                         _______ _______ _______ _____ _____    ______ ____
ROOT
ATOM      1  C   UNL     1      10.178   0.181  22.974  0.00  0.00    +0.181 C 
ENDROOT
BRANCH   1   2
ATOM      2  C   UNL     1       9.625   1.038  21.832  0.00  0.00    +0.190 C 
BRANCH   2   3
ATOM      3  O   UNL     1      10.285   2.305  21.761  0.00  0.00    -0.392 OA
ATOM      4  H   UNL     1      11.021   2.255  22.407  0.00  0.00    +0.210 HD
ENDBRANCH   2   3
ENDBRANCH   1   2
BRANCH   1   5
ATOM      5  O   UNL     1       9.120  -0.671  23.418  0.00  0.00    -0.279 OA
BRANCH   5   6
ATOM      6  P   UNL     1       9.559  -2.280  23.878  0.00  0.00    +0.473 P 
ATOM      7  O   UNL     1       9.951  -3.720  24.290  0.00  0.00    -0.228 OA
BRANCH   6   8
ATOM      8  O   UNL     1      10.685  -2.249  22.698  0.00  0.00    -0.303 OA
ATOM      9  H   UNL     1      10.378  -2.887  22.018  0.00  0.00    +0.222 HD
ENDBRANCH   6   8
BRANCH   6  10
ATOM     10  O   UNL     1       8.286  -2.794  22.995  0.00  0.00    -0.303 OA
ATOM     11  H   UNL     1       7.982  -3.661  23.307  0.00  0.00    +0.222 HD
ENDBRANCH   6  10
ENDBRANCH   5   6
ENDBRANCH   1   5
BRANCH   1  12
ATOM     12  C   UNL     1      10.734   1.039  24.116  0.00  0.00    +0.190 C 
BRANCH  12  13
ATOM     13  O   UNL     1       9.708   1.733  24.813  0.00  0.00    -0.392 OA
ATOM     14  H   UNL     1       9.332   1.140  25.485  0.00  0.00    +0.210 HD
ENDBRANCH  12  13
ENDBRANCH   1  12
TORSDOF 8
ENDMDL
MODEL 4
REMARK VINA RESULT:      -3.8      2.769      4.214
REMARK  Name = 
REMARK  8 active torsions:
REMARK  status: ('A' for Active; 'I' for Inactive)
REMARK    1  A    between atoms: O_1  and  C_2
REMARK    2  A    between atoms: C_2  and  C_3
REMARK    3  A    between atoms: C_3  and  C_4
REMARK    4  A    between atoms: C_3  and  O_6
REMARK    5  A    between atoms: C_4  and  O_5
REMARK    6  A    between atoms: O_6  and  P_7
REMARK    7  A    between atoms: P_7  and  O_8
REMARK    8  A    between atoms: P_7  and  O_9
REMARK                            x       y       z     vdW  Elec       q    Type
REMARK                         _______ _______ _______ _____ _____    ______ ____
ROOT
ATOM      1  C   UNL     1       8.260  -4.788  23.876  0.00  0.00    +0.181 C 
ENDROOT
BRANCH   1   2
ATOM      2  C   UNL     1       8.630  -3.303  23.837  0.00  0.00    +0.190 C 
BRANCH   2   3
ATOM      3  O   UNL     1      10.043  -3.113  23.954  0.00  0.00    -0.392 OA
ATOM      4  H   UNL     1      10.386  -3.119  23.035  0.00  0.00    +0.210 HD
ENDBRANCH   2   3
ENDBRANCH   1   2
BRANCH   1   5
ATOM      5  O   UNL     1       6.858  -4.884  23.613  0.00  0.00    -0.279 OA
BRANCH   5   6
ATOM      6  P   UNL     1       6.394  -5.207  21.978  0.00  0.00    +0.473 P 
ATOM      7  O   UNL     1       5.978  -5.496  20.514  0.00  0.00    -0.228 OA
BRANCH   6   8
ATOM      8  O   UNL     1       5.114  -4.221  22.208  0.00  0.00    -0.303 OA
ATOM      9  H   UNL     1       5.104  -4.015  23.167  0.00  0.00    +0.222 HD
ENDBRANCH   6   8
BRANCH   6  10
ATOM     10  O   UNL     1       5.738  -6.599  22.523  0.00  0.00    -0.303 OA
ATOM     11  H   UNL     1       5.253  -7.049  21.814  0.00  0.00    +0.222 HD
ENDBRANCH   6  10
ENDBRANCH   5   6
ENDBRANCH   1   5
BRANCH   1  12
ATOM     12  C   UNL     1       8.633  -5.436  25.213  0.00  0.00    +0.190 C 
BRANCH  12  13
ATOM     13  O   UNL     1      10.005  -5.806  25.265  0.00  0.00    -0.392 OA
ATOM     14  H   UNL     1      10.547  -5.008  25.145  0.00  0.00    +0.210 HD
ENDBRANCH  12  13
ENDBRANCH   1  12
TORSDOF 8
ENDMDL
MODEL 5
REMARK VINA RESULT:      -3.8      3.739      5.613
REMARK  Name = 
REMARK  8 active torsions:
REMARK  status: ('A' for Active; 'I' for Inactive)
REMARK    1  A    between atoms: O_1  and  C_2
REMARK    2  A    between atoms: C_2  and  C_3
REMARK    3  A    between atoms: C_3  and  C_4
REMARK    4  A    between atoms: C_3  and  O_6
REMARK    5  A    between atoms: C_4  and  O_5
REMARK    6  A    between atoms: O_6  and  P_7
REMARK    7  A    between atoms: P_7  and  O_8
REMARK    8  A    between atoms: P_7  and  O_9
REMARK                            x       y       z     vdW  Elec       q    Type
REMARK                         _______ _______ _______ _____ _____    ______ ____
ROOT
ATOM      1  C   UNL     1      10.159  -0.509  23.756  0.00  0.00    +0.181 C 
ENDROOT
BRANCH   1   2
ATOM      2  C   UNL     1       8.958   0.044  24.529  0.00  0.00    +0.190 C 
BRANCH   2   3
ATOM      3  O   UNL     1       9.258   0.198  25.919  0.00  0.00    -0.392 OA
ATOM      4  H   UNL     1       8.435  -0.047  26.395  0.00  0.00    +0.210 HD
ENDBRANCH   2   3
ENDBRANCH   1   2
BRANCH   1   5
ATOM      5  O   UNL     1      10.507   0.457  22.762  0.00  0.00    -0.279 OA
BRANCH   5   6
ATOM      6  P   UNL     1       9.281   1.595  22.320  0.00  0.00    +0.473 P 
ATOM      7  O   UNL     1       8.184   2.614  21.925  0.00  0.00    -0.228 OA
BRANCH   6   8
ATOM      8  O   UNL     1       9.048   0.727  20.958  0.00  0.00    -0.303 OA
ATOM      9  H   UNL     1       8.489  -0.036  21.219  0.00  0.00    +0.222 HD
ENDBRANCH   6   8
BRANCH   6  10
ATOM     10  O   UNL     1      10.484   2.566  21.795  0.00  0.00    -0.303 OA
ATOM     11  H   UNL     1      11.308   2.064  21.695  0.00  0.00    +0.222 HD
ENDBRANCH   6  10
ENDBRANCH   5   6
ENDBRANCH   1   5
BRANCH   1  12
ATOM     12  C   UNL     1       9.859  -1.879  23.137  0.00  0.00    +0.190 C 
BRANCH  12  13
ATOM     13  O   UNL     1      10.140  -1.910  21.743  0.00  0.00    -0.392 OA
ATOM     14  H   UNL     1      11.078  -1.690  21.610  0.00  0.00    +0.210 HD
ENDBRANCH  12  13
ENDBRANCH   1  12
TORSDOF 8
ENDMDL
MODEL 6
REMARK VINA RESULT:      -3.8      2.895      4.115
REMARK  Name = 
REMARK  8 active torsions:
REMARK  status: ('A' for Active; 'I' for Inactive)
REMARK    1  A    between atoms: O_1  and  C_2
REMARK    2  A    between atoms: C_2  and  C_3
REMARK    3  A    between atoms: C_3  and  C_4
REMARK    4  A    between atoms: C_3  and  O_6
REMARK    5  A    between atoms: C_4  and  O_5
REMARK    6  A    between atoms: O_6  and  P_7
REMARK    7  A    between atoms: P_7  and  O_8
REMARK    8  A    between atoms: P_7  and  O_9
REMARK                            x       y       z     vdW  Elec       q    Type
REMARK                         _______ _______ _______ _____ _____    ______ ____
ROOT
ATOM      1  C   UNL     1       8.290   0.891  22.989  0.00  0.00    +0.181 C 
ENDROOT
BRANCH   1   2
ATOM      2  C   UNL     1       9.192   0.728  24.216  0.00  0.00    +0.190 C 
BRANCH   2   3
ATOM      3  O   UNL     1      10.057   1.854  24.383  0.00  0.00    -0.392 OA
ATOM      4  H   UNL     1      10.237   1.908  25.346  0.00  0.00    +0.210 HD
ENDBRANCH   2   3
ENDBRANCH   1   2
BRANCH   1   5
ATOM      5  O   UNL     1       8.331  -0.340  22.264  0.00  0.00    -0.279 OA
BRANCH   5   6
ATOM      6  P   UNL     1       9.361  -1.579  22.892  0.00  0.00    +0.473 P 
ATOM      7  O   UNL     1      10.283  -2.689  23.455  0.00  0.00    -0.228 OA
BRANCH   6   8
ATOM      8  O   UNL     1      10.268  -1.428  21.545  0.00  0.00    -0.303 OA
ATOM      9  H   UNL     1      11.099  -0.990  21.829  0.00  0.00    +0.222 HD
ENDBRANCH   6   8
BRANCH   6  10
ATOM     10  O   UNL     1       8.268  -2.658  22.338  0.00  0.00    -0.303 OA
ATOM     11  H   UNL     1       7.791  -2.299  21.573  0.00  0.00    +0.222 HD
ENDBRANCH   6  10
ENDBRANCH   5   6
ENDBRANCH   1   5
BRANCH   1  12
ATOM     12  C   UNL     1       8.716   2.078  22.119  0.00  0.00    +0.190 C 
BRANCH  12  13
ATOM     13  O   UNL     1       9.951   1.839  21.455  0.00  0.00    -0.392 OA
ATOM     14  H   UNL     1      10.227   0.924  21.632  0.00  0.00    +0.210 HD
ENDBRANCH  12  13
ENDBRANCH   1  12
TORSDOF 8
ENDMDL
MODEL 7
REMARK VINA RESULT:      -3.7      4.016      5.743
REMARK  Name = 
REMARK  8 active torsions:
REMARK  status: ('A' for Active; 'I' for Inactive)
REMARK    1  A    between atoms: O_1  and  C_2
REMARK    2  A    between atoms: C_2  and  C_3
REMARK    3  A    between atoms: C_3  and  C_4
REMARK    4  A    between atoms: C_3  and  O_6
REMARK    5  A    between atoms: C_4  and  O_5
REMARK    6  A    between atoms: O_6  and  P_7
REMARK    7  A    between atoms: P_7  and  O_8
REMARK    8  A    between atoms: P_7  and  O_9
REMARK                            x       y       z     vdW  Elec       q    Type
REMARK                         _______ _______ _______ _____ _____    ______ ____
ROOT
ATOM      1  C   UNL     1       9.473  -0.578  23.597  0.00  0.00    +0.181 C 
ENDROOT
BRANCH   1   2
ATOM      2  C   UNL     1      10.106  -1.800  22.926  0.00  0.00    +0.190 C 
BRANCH   2   3
ATOM      3  O   UNL     1      10.302  -1.585  21.526  0.00  0.00    -0.392 OA
ATOM      4  H   UNL     1      10.205  -2.467  21.108  0.00  0.00    +0.210 HD
ENDBRANCH   2   3
ENDBRANCH   1   2
BRANCH   1   5
ATOM      5  O   UNL     1      10.067   0.583  23.014  0.00  0.00    -0.279 OA
BRANCH   5   6
ATOM      6  P   UNL     1       8.985   1.801  22.430  0.00  0.00    +0.473 P 
ATOM      7  O   UNL     1       8.017   2.891  21.907  0.00  0.00    -0.228 OA
BRANCH   6   8
ATOM      8  O   UNL     1      10.185   2.314  21.450  0.00  0.00    -0.303 OA
ATOM      9  H   UNL     1      10.242   3.285  21.582  0.00  0.00    +0.222 HD
ENDBRANCH   6   8
BRANCH   6  10
ATOM     10  O   UNL     1       9.365   2.664  23.762  0.00  0.00    -0.303 OA
ATOM     11  H   UNL     1      10.041   2.206  24.285  0.00  0.00    +0.222 HD
ENDBRANCH   6  10
ENDBRANCH   5   6
ENDBRANCH   1   5
BRANCH   1  12
ATOM     12  C   UNL     1       9.650  -0.605  25.119  0.00  0.00    +0.190 C 
BRANCH  12  13
ATOM     13  O   UNL     1      10.382   0.518  25.593  0.00  0.00    -0.392 OA
ATOM     14  H   UNL     1      10.868   0.910  24.847  0.00  0.00    +0.210 HD
ENDBRANCH  12  13
ENDBRANCH   1  12
TORSDOF 8
ENDMDL
MODEL 8
REMARK VINA RESULT:      -3.6      2.330      3.894
REMARK  Name = 
REMARK  8 active torsions:
REMARK  status: ('A' for Active; 'I' for Inactive)
REMARK    1  A    between atoms: O_1  and  C_2
REMARK    2  A    between atoms: C_2  and  C_3
REMARK    3  A    between atoms: C_3  and  C_4
REMARK    4  A    between atoms: C_3  and  O_6
REMARK    5  A    between atoms: C_4  and  O_5
REMARK    6  A    between atoms: O_6  and  P_7
REMARK    7  A    between atoms: P_7  and  O_8
REMARK    8  A    between atoms: P_7  and  O_9
REMARK                            x       y       z     vdW  Elec       q    Type
REMARK                         _______ _______ _______ _____ _____    ______ ____
ROOT
ATOM      1  C   UNL     1       8.260  -4.296  24.670  0.00  0.00    +0.181 C 
ENDROOT
BRANCH   1   2
ATOM      2  C   UNL     1       8.933  -5.202  25.706  0.00  0.00    +0.190 C 
BRANCH   2   3
ATOM      3  O   UNL     1      10.184  -5.703  25.229  0.00  0.00    -0.392 OA
ATOM      4  H   UNL     1      10.169  -5.567  24.257  0.00  0.00    +0.210 HD
ENDBRANCH   2   3
ENDBRANCH   1   2
BRANCH   1   5
ATOM      5  O   UNL     1       8.215  -5.020  23.438  0.00  0.00    -0.279 OA
BRANCH   5   6
ATOM      6  P   UNL     1       6.917  -4.641  22.360  0.00  0.00    +0.473 P 
ATOM      7  O   UNL     1       5.754  -4.302  21.394  0.00  0.00    -0.228 OA
BRANCH   6   8
ATOM      8  O   UNL     1       5.891  -5.236  23.480  0.00  0.00    -0.303 OA
ATOM      9  H   UNL     1       6.191  -6.154  23.658  0.00  0.00    +0.222 HD
ENDBRANCH   6   8
BRANCH   6  10
ATOM     10  O   UNL     1       7.266  -6.031  21.578  0.00  0.00    -0.303 OA
ATOM     11  H   UNL     1       6.617  -6.718  21.796  0.00  0.00    +0.222 HD
ENDBRANCH   6  10
ENDBRANCH   5   6
ENDBRANCH   1   5
BRANCH   1  12
ATOM     12  C   UNL     1       8.991  -2.959  24.517  0.00  0.00    +0.190 C 
BRANCH  12  13
ATOM     13  O   UNL     1      10.251  -3.107  23.875  0.00  0.00    -0.392 OA
ATOM     14  H   UNL     1      10.101  -3.273  22.929  0.00  0.00    +0.210 HD
ENDBRANCH  12  13
ENDBRANCH   1  12
TORSDOF 8
ENDMDL
MODEL 9
REMARK VINA RESULT:      -3.6      2.826      3.783
REMARK  Name = 
REMARK  8 active torsions:
REMARK  status: ('A' for Active; 'I' for Inactive)
REMARK    1  A    between atoms: O_1  and  C_2
REMARK    2  A    between atoms: C_2  and  C_3
REMARK    3  A    between atoms: C_3  and  C_4
REMARK    4  A    between atoms: C_3  and  O_6
REMARK    5  A    between atoms: C_4  and  O_5
REMARK    6  A    between atoms: O_6  and  P_7
REMARK    7  A    between atoms: P_7  and  O_8
REMARK    8  A    between atoms: P_7  and  O_9
REMARK                            x       y       z     vdW  Elec       q    Type
REMARK                         _______ _______ _______ _____ _____    ______ ____
ROOT
ATOM      1  C   UNL     1       8.362   0.837  22.906  0.00  0.00    +0.181 C 
ENDROOT
BRANCH   1   2
ATOM      2  C   UNL     1       8.567   1.911  21.833  0.00  0.00    +0.190 C 
BRANCH   2   3
ATOM      3  O   UNL     1       9.950   2.061  21.501  0.00  0.00    -0.392 OA
ATOM      4  H   UNL     1       9.968   2.622  20.696  0.00  0.00    +0.210 HD
ENDBRANCH   2   3
ENDBRANCH   1   2
BRANCH   1   5
ATOM      5  O   UNL     1       8.382  -0.431  22.247  0.00  0.00    -0.279 OA
BRANCH   5   6
ATOM      6  P   UNL     1       9.388  -1.654  22.942  0.00  0.00    +0.473 P 
ATOM      7  O   UNL     1      10.290  -2.748  23.565  0.00  0.00    -0.228 OA
BRANCH   6   8
ATOM      8  O   UNL     1      10.299  -1.591  21.590  0.00  0.00    -0.303 OA
ATOM      9  H   UNL     1      11.222  -1.453  21.894  0.00  0.00    +0.222 HD
ENDBRANCH   6   8
BRANCH   6  10
ATOM     10  O   UNL     1       8.277  -2.740  22.444  0.00  0.00    -0.303 OA
ATOM     11  H   UNL     1       8.121  -2.657  21.490  0.00  0.00    +0.222 HD
ENDBRANCH   6  10
ENDBRANCH   5   6
ENDBRANCH   1   5
BRANCH   1  12
ATOM     12  C   UNL     1       7.063   1.051  23.689  0.00  0.00    +0.190 C 
BRANCH  12  13
ATOM     13  O   UNL     1       6.116   0.017  23.448  0.00  0.00    -0.392 OA
ATOM     14  H   UNL     1       6.435  -0.532  22.712  0.00  0.00    +0.210 HD
ENDBRANCH  12  13
ENDBRANCH   1  12
TORSDOF 8
ENDMDL
