MODEL 1
REMARK VINA RESULT:      -6.0      0.000      0.000
REMARK  Name = 
REMARK  4 active torsions:
REMARK  status: ('A' for Active; 'I' for Inactive)
REMARK    1  A    between atoms: C_5  and  C_8
REMARK    2  A    between atoms: N_14  and  C_15
REMARK    3  A    between atoms: C_15  and  C_16
REMARK    4  A    between atoms: C_16  and  C_17
REMARK                            x       y       z     vdW  Elec       q    Type
REMARK                         _______ _______ _______ _____ _____    ______ ____
ROOT
ATOM      1  C   UNL     1       9.353   0.015  24.257  0.00  0.00    +0.077 C 
ATOM      2  C   UNL     1       8.141  -0.416  25.035  0.00  0.00    +0.134 C 
ATOM      3  S   UNL     1       7.968  -2.124  25.434  0.00  0.00    -0.083 S 
ATOM      4  C   UNL     1       8.979  -2.900  24.243  0.00  0.00    +0.169 C 
ATOM      5  N   UNL     1       8.894  -4.168  23.984  0.00  0.00    -0.262 NA
ATOM      6  N   UNL     1       9.906  -2.119  23.603  0.00  0.00    -0.216 N 
ATOM      7  H   UNL     1      10.514  -2.677  23.003  0.00  0.00    +0.176 HD
ATOM      8  N   UNL     1      10.154  -0.779  23.609  0.00  0.00    -0.184 NA
ENDROOT
BRANCH   1  13
ATOM      9 CL   UNL     1      10.090   5.996  23.779  0.00  0.00    -0.084 Cl
ATOM     10  C   UNL     1       9.911   4.294  23.951  0.00  0.00    +0.041 A 
ATOM     11  C   UNL     1       8.800   3.788  24.610  0.00  0.00    +0.020 A 
ATOM     12  C   UNL     1       8.634   2.407  24.725  0.00  0.00    +0.011 A 
ATOM     13  C   UNL     1       9.576   1.512  24.186  0.00  0.00    -0.001 A 
ATOM     14  C   UNL     1      10.702   2.039  23.537  0.00  0.00    +0.011 A 
ATOM     15  C   UNL     1      10.865   3.427  23.419  0.00  0.00    +0.020 A 
ENDBRANCH   1  13
BRANCH   5  16
ATOM     16  C   UNL     1       7.848  -4.928  24.694  0.00  0.00    +0.148 C 
BRANCH  16  17
ATOM     17  C   UNL     1       6.697  -5.326  23.768  0.00  0.00    +0.050 C 
BRANCH  17  18
ATOM     18  C   UNL     1       7.263  -5.683  22.414  0.00  0.00    -0.033 C 
ATOM     19  C   UNL     1       6.545  -5.786  21.289  0.00  0.00    +0.004 C 
ENDBRANCH  17  18
ENDBRANCH  16  17
ENDBRANCH   5  16
TORSDOF 4
ENDMDL
MODEL 2
REMARK VINA RESULT:      -5.7      2.033      2.896
REMARK  Name = 
REMARK  4 active torsions:
REMARK  status: ('A' for Active; 'I' for Inactive)
REMARK    1  A    between atoms: C_5  and  C_8
REMARK    2  A    between atoms: N_14  and  C_15
REMARK    3  A    between atoms: C_15  and  C_16
REMARK    4  A    between atoms: C_16  and  C_17
REMARK                            x       y       z     vdW  Elec       q    Type
REMARK                         _______ _______ _______ _____ _____    ______ ____
ROOT
ATOM      1  C   UNL     1       8.521  -1.617  23.330  0.00  0.00    +0.077 C 
ATOM      2  C   UNL     1       7.149  -1.572  22.718  0.00  0.00    +0.134 C 
ATOM      3  S   UNL     1       6.063  -2.931  23.003  0.00  0.00    -0.083 S 
ATOM      4  C   UNL     1       7.163  -4.222  23.412  0.00  0.00    +0.169 C 
ATOM      5  N   UNL     1       6.805  -5.469  23.392  0.00  0.00    -0.262 NA
ATOM      6  N   UNL     1       8.431  -3.867  23.793  0.00  0.00    -0.216 N 
ATOM      7  H   UNL     1       8.967  -4.677  24.108  0.00  0.00    +0.176 HD
ATOM      8  N   UNL     1       9.093  -2.677  23.822  0.00  0.00    -0.184 NA
ENDROOT
BRANCH   1  13
ATOM      9 CL   UNL     1      11.428   3.682  23.248  0.00  0.00    -0.084 Cl
ATOM     10  C   UNL     1      10.635   2.157  23.245  0.00  0.00    +0.041 A 
ATOM     11  C   UNL     1      10.753   1.324  24.349  0.00  0.00    +0.020 A 
ATOM     12  C   UNL     1      10.086   0.098  24.364  0.00  0.00    +0.011 A 
ATOM     13  C   UNL     1       9.294  -0.315  23.277  0.00  0.00    -0.001 A 
ATOM     14  C   UNL     1       9.199   0.530  22.162  0.00  0.00    +0.011 A 
ATOM     15  C   UNL     1       9.866   1.763  22.150  0.00  0.00    +0.020 A 
ENDBRANCH   1  13
BRANCH   5  16
ATOM     16  C   UNL     1       5.434  -5.764  22.938  0.00  0.00    +0.148 C 
BRANCH  16  17
ATOM     17  C   UNL     1       4.663  -6.614  23.951  0.00  0.00    +0.050 C 
BRANCH  17  18
ATOM     18  C   UNL     1       4.864  -6.030  25.329  0.00  0.00    -0.033 C 
ATOM     19  C   UNL     1       4.910  -6.743  26.461  0.00  0.00    +0.004 C 
ENDBRANCH  17  18
ENDBRANCH  16  17
ENDBRANCH   5  16
TORSDOF 4
ENDMDL
MODEL 3
REMARK VINA RESULT:      -5.7      4.171      7.990
REMARK  Name = 
REMARK  4 active torsions:
REMARK  status: ('A' for Active; 'I' for Inactive)
REMARK    1  A    between atoms: C_5  and  C_8
REMARK    2  A    between atoms: N_14  and  C_15
REMARK    3  A    between atoms: C_15  and  C_16
REMARK    4  A    between atoms: C_16  and  C_17
REMARK                            x       y       z     vdW  Elec       q    Type
REMARK                         _______ _______ _______ _____ _____    ______ ____
ROOT
ATOM      1  C   UNL     1       7.432  -3.566  24.999  0.00  0.00    +0.077 C 
ATOM      2  C   UNL     1       8.171  -3.358  23.707  0.00  0.00    +0.134 C 
ATOM      3  S   UNL     1       9.548  -2.257  23.700  0.00  0.00    -0.083 S 
ATOM      4  C   UNL     1       9.242  -1.253  25.094  0.00  0.00    +0.169 C 
ATOM      5  N   UNL     1       9.845  -0.119  25.274  0.00  0.00    -0.262 NA
ATOM      6  N   UNL     1       8.353  -1.725  26.024  0.00  0.00    -0.216 N 
ATOM      7  H   UNL     1       8.316  -1.121  26.845  0.00  0.00    +0.176 HD
ATOM      8  N   UNL     1       7.529  -2.810  26.053  0.00  0.00    -0.184 NA
ENDROOT
BRANCH   1  13
ATOM      9 CL   UNL     1       3.313  -7.990  24.996  0.00  0.00    -0.084 Cl
ATOM     10  C   UNL     1       4.518  -6.764  25.001  0.00  0.00    +0.041 A 
ATOM     11  C   UNL     1       4.893  -6.172  23.803  0.00  0.00    +0.020 A 
ATOM     12  C   UNL     1       5.849  -5.155  23.804  0.00  0.00    +0.011 A 
ATOM     13  C   UNL     1       6.445  -4.716  25.001  0.00  0.00    -0.001 A 
ATOM     14  C   UNL     1       6.068  -5.336  26.200  0.00  0.00    +0.011 A 
ATOM     15  C   UNL     1       5.105  -6.355  26.198  0.00  0.00    +0.020 A 
ENDBRANCH   1  13
BRANCH   5  16
ATOM     16  C   UNL     1      10.761   0.330  24.209  0.00  0.00    +0.148 C 
BRANCH  16  17
ATOM     17  C   UNL     1      10.571   1.811  23.873  0.00  0.00    +0.050 C 
BRANCH  17  18
ATOM     18  C   UNL     1      10.121   1.930  22.436  0.00  0.00    -0.033 C 
ATOM     19  C   UNL     1       9.634   0.922  21.703  0.00  0.00    +0.004 C 
ENDBRANCH  17  18
ENDBRANCH  16  17
ENDBRANCH   5  16
TORSDOF 4
ENDMDL
MODEL 4
REMARK VINA RESULT:      -5.6      1.258      1.858
REMARK  Name = 
REMARK  4 active torsions:
REMARK  status: ('A' for Active; 'I' for Inactive)
REMARK    1  A    between atoms: C_5  and  C_8
REMARK    2  A    between atoms: N_14  and  C_15
REMARK    3  A    between atoms: C_15  and  C_16
REMARK    4  A    between atoms: C_16  and  C_17
REMARK                            x       y       z     vdW  Elec       q    Type
REMARK                         _______ _______ _______ _____ _____    ______ ____
ROOT
ATOM      1  C   UNL     1       9.484   0.362  24.273  0.00  0.00    +0.077 C 
ATOM      2  C   UNL     1       8.253  -0.105  25.000  0.00  0.00    +0.134 C 
ATOM      3  S   UNL     1       8.126  -1.813  25.415  0.00  0.00    -0.083 S 
ATOM      4  C   UNL     1       9.220  -2.565  24.283  0.00  0.00    +0.169 C 
ATOM      5  N   UNL     1       9.195  -3.838  24.038  0.00  0.00    -0.262 NA
ATOM      6  N   UNL     1      10.146  -1.757  23.675  0.00  0.00    -0.216 N 
ATOM      7  H   UNL     1      10.801  -2.299  23.111  0.00  0.00    +0.176 HD
ATOM      8  N   UNL     1      10.343  -0.409  23.673  0.00  0.00    -0.184 NA
ENDROOT
BRANCH   1  13
ATOM      9 CL   UNL     1      10.008   6.362  23.752  0.00  0.00    -0.084 Cl
ATOM     10  C   UNL     1       9.889   4.657  23.935  0.00  0.00    +0.041 A 
ATOM     11  C   UNL     1       8.795   4.116  24.596  0.00  0.00    +0.020 A 
ATOM     12  C   UNL     1       8.678   2.731  24.722  0.00  0.00    +0.011 A 
ATOM     13  C   UNL     1       9.653   1.865  24.191  0.00  0.00    -0.001 A 
ATOM     14  C   UNL     1      10.761   2.428  23.541  0.00  0.00    +0.011 A 
ATOM     15  C   UNL     1      10.875   3.820  23.412  0.00  0.00    +0.020 A 
ENDBRANCH   1  13
BRANCH   5  16
ATOM     16  C   UNL     1       8.147  -4.629  24.710  0.00  0.00    +0.148 C 
BRANCH  16  17
ATOM     17  C   UNL     1       8.667  -5.321  25.971  0.00  0.00    +0.050 C 
BRANCH  17  18
ATOM     18  C   UNL     1       7.569  -5.337  27.007  0.00  0.00    -0.033 C 
ATOM     19  C   UNL     1       6.269  -5.510  26.738  0.00  0.00    +0.004 C 
ENDBRANCH  17  18
ENDBRANCH  16  17
ENDBRANCH   5  16
TORSDOF 4
ENDMDL
MODEL 5
REMARK VINA RESULT:      -5.5      4.212      7.826
REMARK  Name = 
REMARK  4 active torsions:
REMARK  status: ('A' for Active; 'I' for Inactive)
REMARK    1  A    between atoms: C_5  and  C_8
REMARK    2  A    between atoms: N_14  and  C_15
REMARK    3  A    between atoms: C_15  and  C_16
REMARK    4  A    between atoms: C_16  and  C_17
REMARK                            x       y       z     vdW  Elec       q    Type
REMARK                         _______ _______ _______ _____ _____    ______ ____
ROOT
ATOM      1  C   UNL     1       7.675  -3.825  24.784  0.00  0.00    +0.077 C 
ATOM      2  C   UNL     1       6.847  -3.218  23.686  0.00  0.00    +0.134 C 
ATOM      3  S   UNL     1       7.682  -2.417  22.357  0.00  0.00    -0.083 S 
ATOM      4  C   UNL     1       9.234  -2.032  23.055  0.00  0.00    +0.169 C 
ATOM      5  N   UNL     1      10.039  -1.167  22.520  0.00  0.00    -0.262 NA
ATOM      6  N   UNL     1       9.595  -2.710  24.191  0.00  0.00    -0.216 N 
ATOM      7  H   UNL     1      10.554  -2.492  24.466  0.00  0.00    +0.176 HD
ATOM      8  N   UNL     1       8.934  -3.584  25.000  0.00  0.00    -0.184 NA
ENDROOT
BRANCH   1  13
ATOM      9 CL   UNL     1       4.473  -7.245  28.605  0.00  0.00    -0.084 Cl
ATOM     10  C   UNL     1       5.418  -6.304  27.520  0.00  0.00    +0.041 A 
ATOM     11  C   UNL     1       5.144  -6.349  26.160  0.00  0.00    +0.020 A 
ATOM     12  C   UNL     1       5.888  -5.563  25.279  0.00  0.00    +0.011 A 
ATOM     13  C   UNL     1       6.918  -4.723  25.741  0.00  0.00    -0.001 A 
ATOM     14  C   UNL     1       7.194  -4.702  27.116  0.00  0.00    +0.011 A 
ATOM     15  C   UNL     1       6.443  -5.488  28.001  0.00  0.00    +0.020 A 
ENDBRANCH   1  13
BRANCH   5  16
ATOM     16  C   UNL     1       9.558  -0.459  21.318  0.00  0.00    +0.148 C 
BRANCH  16  17
ATOM     17  C   UNL     1       9.056   0.949  21.642  0.00  0.00    +0.050 C 
BRANCH  17  18
ATOM     18  C   UNL     1      10.221   1.783  22.121  0.00  0.00    -0.033 C 
ATOM     19  C   UNL     1      10.323   2.323  23.341  0.00  0.00    +0.004 C 
ENDBRANCH  17  18
ENDBRANCH  16  17
ENDBRANCH   5  16
TORSDOF 4
ENDMDL
MODEL 6
REMARK VINA RESULT:      -5.4      1.621      1.777
REMARK  Name = 
REMARK  4 active torsions:
REMARK  status: ('A' for Active; 'I' for Inactive)
REMARK    1  A    between atoms: C_5  and  C_8
REMARK    2  A    between atoms: N_14  and  C_15
REMARK    3  A    between atoms: C_15  and  C_16
REMARK    4  A    between atoms: C_16  and  C_17
REMARK                            x       y       z     vdW  Elec       q    Type
REMARK                         _______ _______ _______ _____ _____    ______ ____
ROOT
ATOM      1  C   UNL     1       8.760   0.584  23.463  0.00  0.00    +0.077 C 
ATOM      2  C   UNL     1       9.719  -0.511  23.840  0.00  0.00    +0.134 C 
ATOM      3  S   UNL     1       9.340  -2.160  23.348  0.00  0.00    -0.083 S 
ATOM      4  C   UNL     1       7.614  -2.098  23.096  0.00  0.00    +0.169 C 
ATOM      5  N   UNL     1       6.886  -3.169  23.027  0.00  0.00    -0.262 NA
ATOM      6  N   UNL     1       7.049  -0.859  22.938  0.00  0.00    -0.216 N 
ATOM      7  H   UNL     1       6.059  -0.928  22.698  0.00  0.00    +0.176 HD
ATOM      8  N   UNL     1       7.540   0.407  23.048  0.00  0.00    -0.184 NA
ENDROOT
BRANCH   1  13
ATOM      9 CL   UNL     1      10.692   6.276  24.104  0.00  0.00    -0.084 Cl
ATOM     10  C   UNL     1      10.167   4.645  23.959  0.00  0.00    +0.041 A 
ATOM     11  C   UNL     1       8.895   4.297  24.393  0.00  0.00    +0.020 A 
ATOM     12  C   UNL     1       8.453   2.981  24.250  0.00  0.00    +0.011 A 
ATOM     13  C   UNL     1       9.274   1.993  23.674  0.00  0.00    -0.001 A 
ATOM     14  C   UNL     1      10.562   2.357  23.257  0.00  0.00    +0.011 A 
ATOM     15  C   UNL     1      11.004   3.681  23.398  0.00  0.00    +0.020 A 
ENDBRANCH   1  13
BRANCH   5  16
ATOM     16  C   UNL     1       7.570  -4.458  23.240  0.00  0.00    +0.148 C 
BRANCH  16  17
ATOM     17  C   UNL     1       7.229  -5.477  22.152  0.00  0.00    +0.050 C 
BRANCH  17  18
ATOM     18  C   UNL     1       5.787  -5.897  22.312  0.00  0.00    -0.033 C 
ATOM     19  C   UNL     1       5.207  -6.205  23.479  0.00  0.00    +0.004 C 
ENDBRANCH  17  18
ENDBRANCH  16  17
ENDBRANCH   5  16
TORSDOF 4
ENDMDL
MODEL 7
REMARK VINA RESULT:      -5.4      1.510      2.407
REMARK  Name = 
REMARK  4 active torsions:
REMARK  status: ('A' for Active; 'I' for Inactive)
REMARK    1  A    between atoms: C_5  and  C_8
REMARK    2  A    between atoms: N_14  and  C_15
REMARK    3  A    between atoms: C_15  and  C_16
REMARK    4  A    between atoms: C_16  and  C_17
REMARK                            x       y       z     vdW  Elec       q    Type
REMARK                         _______ _______ _______ _____ _____    ______ ____
ROOT
ATOM      1  C   UNL     1       8.933   0.195  23.415  0.00  0.00    +0.077 C 
ATOM      2  C   UNL     1       9.577  -0.695  24.441  0.00  0.00    +0.134 C 
ATOM      3  S   UNL     1       9.470  -2.440  24.217  0.00  0.00    -0.083 S 
ATOM      4  C   UNL     1       8.087  -2.608  23.167  0.00  0.00    +0.169 C 
ATOM      5  N   UNL     1       7.475  -3.740  23.005  0.00  0.00    -0.262 NA
ATOM      6  N   UNL     1       7.682  -1.492  22.482  0.00  0.00    -0.216 N 
ATOM      7  H   UNL     1       6.934  -1.711  21.822  0.00  0.00    +0.176 HD
ATOM      8  N   UNL     1       8.068  -0.186  22.521  0.00  0.00    -0.184 NA
ENDROOT
BRANCH   1  13
ATOM      9 CL   UNL     1      10.449   6.012  24.055  0.00  0.00    -0.084 Cl
ATOM     10  C   UNL     1      10.000   4.368  23.831  0.00  0.00    +0.041 A 
ATOM     11  C   UNL     1      10.964   3.443  23.453  0.00  0.00    +0.020 A 
ATOM     12  C   UNL     1      10.611   2.101  23.299  0.00  0.00    +0.011 A 
ATOM     13  C   UNL     1       9.291   1.664  23.519  0.00  0.00    -0.001 A 
ATOM     14  C   UNL     1       8.326   2.614  23.883  0.00  0.00    +0.011 A 
ATOM     15  C   UNL     1       8.683   3.960  24.041  0.00  0.00    +0.020 A 
ENDBRANCH   1  13
BRANCH   5  16
ATOM     16  C   UNL     1       7.956  -4.882  23.805  0.00  0.00    +0.148 C 
BRANCH  16  17
ATOM     17  C   UNL     1       6.960  -5.280  24.895  0.00  0.00    +0.050 C 
BRANCH  17  18
ATOM     18  C   UNL     1       7.682  -5.323  26.222  0.00  0.00    -0.033 C 
ATOM     19  C   UNL     1       7.082  -5.426  27.413  0.00  0.00    +0.004 C 
ENDBRANCH  17  18
ENDBRANCH  16  17
ENDBRANCH   5  16
TORSDOF 4
ENDMDL
MODEL 8
REMARK VINA RESULT:      -5.3      1.192      1.425
REMARK  Name = 
REMARK  4 active torsions:
REMARK  status: ('A' for Active; 'I' for Inactive)
REMARK    1  A    between atoms: C_5  and  C_8
REMARK    2  A    between atoms: N_14  and  C_15
REMARK    3  A    between atoms: C_15  and  C_16
REMARK    4  A    between atoms: C_16  and  C_17
REMARK                            x       y       z     vdW  Elec       q    Type
REMARK                         _______ _______ _______ _____ _____    ______ ____
ROOT
ATOM      1  C   UNL     1       8.664   0.415  23.660  0.00  0.00    +0.077 C 
ATOM      2  C   UNL     1       7.596  -0.153  24.553  0.00  0.00    +0.134 C 
ATOM      3  S   UNL     1       7.757  -1.824  25.089  0.00  0.00    -0.083 S 
ATOM      4  C   UNL     1       8.822  -2.511  23.890  0.00  0.00    +0.169 C 
ATOM      5  N   UNL     1       8.952  -3.791  23.732  0.00  0.00    -0.262 NA
ATOM      6  N   UNL     1       9.554  -1.637  23.128  0.00  0.00    -0.216 N 
ATOM      7  H   UNL     1      10.217  -2.129  22.529  0.00  0.00    +0.176 HD
ATOM      8  N   UNL     1       9.556  -0.279  23.016  0.00  0.00    -0.184 NA
ENDROOT
BRANCH   1  13
ATOM      9 CL   UNL     1       8.307   6.420  23.070  0.00  0.00    -0.084 Cl
ATOM     10  C   UNL     1       8.432   4.711  23.198  0.00  0.00    +0.041 A 
ATOM     11  C   UNL     1       9.374   4.158  24.055  0.00  0.00    +0.020 A 
ATOM     12  C   UNL     1       9.459   2.771  24.186  0.00  0.00    +0.011 A 
ATOM     13  C   UNL     1       8.608   1.916  23.461  0.00  0.00    -0.001 A 
ATOM     14  C   UNL     1       7.675   2.489  22.587  0.00  0.00    +0.011 A 
ATOM     15  C   UNL     1       7.587   3.883  22.459  0.00  0.00    +0.020 A 
ENDBRANCH   1  13
BRANCH   5  16
ATOM     16  C   UNL     1       8.103  -4.659  24.570  0.00  0.00    +0.148 C 
BRANCH  16  17
ATOM     17  C   UNL     1       6.893  -5.194  23.803  0.00  0.00    +0.050 C 
BRANCH  17  18
ATOM     18  C   UNL     1       7.347  -5.653  22.437  0.00  0.00    -0.033 C 
ATOM     19  C   UNL     1       6.538  -5.837  21.386  0.00  0.00    +0.004 C 
ENDBRANCH  17  18
ENDBRANCH  16  17
ENDBRANCH   5  16
TORSDOF 4
ENDMDL
MODEL 9
REMARK VINA RESULT:      -5.2      4.537      8.522
REMARK  Name = 
REMARK  4 active torsions:
REMARK  status: ('A' for Active; 'I' for Inactive)
REMARK    1  A    between atoms: C_5  and  C_8
REMARK    2  A    between atoms: N_14  and  C_15
REMARK    3  A    between atoms: C_15  and  C_16
REMARK    4  A    between atoms: C_16  and  C_17
REMARK                            x       y       z     vdW  Elec       q    Type
REMARK                         _______ _______ _______ _____ _____    ______ ____
ROOT
ATOM      1  C   UNL     1       6.209  -4.434  23.908  0.00  0.00    +0.077 C 
ATOM      2  C   UNL     1       5.813  -2.988  23.793  0.00  0.00    +0.134 C 
ATOM      3  S   UNL     1       7.027  -1.830  23.253  0.00  0.00    -0.083 S 
ATOM      4  C   UNL     1       8.525  -2.649  23.613  0.00  0.00    +0.169 C 
ATOM      5  N   UNL     1       9.661  -2.025  23.659  0.00  0.00    -0.262 NA
ATOM      6  N   UNL     1       8.465  -4.003  23.817  0.00  0.00    -0.216 N 
ATOM      7  H   UNL     1       9.397  -4.407  23.921  0.00  0.00    +0.176 HD
ATOM      8  N   UNL     1       7.429  -4.883  23.914  0.00  0.00    -0.184 NA
ENDROOT
BRANCH   1  13
ATOM      9 CL   UNL     1       1.768  -8.474  24.615  0.00  0.00    -0.084 Cl
ATOM     10  C   UNL     1       3.003  -7.292  24.432  0.00  0.00    +0.041 A 
ATOM     11  C   UNL     1       4.039  -7.240  25.354  0.00  0.00    +0.020 A 
ATOM     12  C   UNL     1       5.060  -6.302  25.193  0.00  0.00    +0.011 A 
ATOM     13  C   UNL     1       5.061  -5.402  24.111  0.00  0.00    -0.001 A 
ATOM     14  C   UNL     1       3.999  -5.457  23.198  0.00  0.00    +0.011 A 
ATOM     15  C   UNL     1       2.975  -6.402  23.358  0.00  0.00    +0.020 A 
ENDBRANCH   1  13
BRANCH   5  16
ATOM     16  C   UNL     1       9.631  -0.564  23.461  0.00  0.00    +0.148 C 
BRANCH  16  17
ATOM     17  C   UNL     1       9.966  -0.172  22.021  0.00  0.00    +0.050 C 
BRANCH  17  18
ATOM     18  C   UNL     1       9.698   1.304  21.843  0.00  0.00    -0.033 C 
ATOM     19  C   UNL     1      10.156   2.265  22.654  0.00  0.00    +0.004 C 
ENDBRANCH  17  18
ENDBRANCH  16  17
ENDBRANCH   5  16
TORSDOF 4
ENDMDL
