MODEL 1
REMARK VINA RESULT:      -7.6      0.000      0.000
REMARK  Name = 
REMARK  10 active torsions:
REMARK  status: ('A' for Active; 'I' for Inactive)
REMARK    1  A    between atoms: C_1  and  O_2
REMARK    2  A    between atoms: O_2  and  C_3
REMARK    3  A    between atoms: C_3  and  C_5
REMARK    4  A    between atoms: C_11  and  C_13
REMARK    5  A    between atoms: C_13  and  C_15
REMARK    6  A    between atoms: C_13  and  N_25
REMARK    7  A    between atoms: C_15  and  C_16
REMARK    8  A    between atoms: C_20  and  C_22
REMARK    9  A    between atoms: N_25  and  S_26
REMARK   10  A    between atoms: S_26  and  C_29
REMARK                            x       y       z     vdW  Elec       q    Type
REMARK                         _______ _______ _______ _____ _____    ______ ____
ROOT
ATOM      1  C   UNL     1       7.920  -3.319  23.687  0.00  0.00    +0.166 C 
ENDROOT
BRANCH   1   6
ATOM      2  C   UNL     1       8.947   1.876  24.014  0.00  0.00    +0.101 C 
ATOM      3  C   UNL     1      10.023   1.149  23.197  0.00  0.00    +0.033 C 
ATOM      4  C   UNL     1       9.460  -0.082  22.502  0.00  0.00    +0.108 C 
ATOM      5  N   UNL     1       8.769  -0.963  23.443  0.00  0.00    -0.300 N 
ATOM      6  C   UNL     1       9.058  -2.321  23.381  0.00  0.00    +0.235 C 
ATOM      7  O   UNL     1      10.165  -2.711  23.002  0.00  0.00    -0.274 OA
ATOM      8  C   UNL     1       7.709  -0.349  24.230  0.00  0.00    +0.108 C 
ATOM      9  C   UNL     1       8.239   0.891  24.958  0.00  0.00    +0.033 C 
BRANCH   2  10
ATOM     10  C   UNL     1       7.954   2.593  23.111  0.00  0.00    +0.310 C 
ATOM     11  O   UNL     1       8.121   2.808  21.918  0.00  0.00    -0.251 OA
BRANCH  10  13
ATOM     12  C   UNL     1       5.618   2.807  23.082  0.00  0.00    +0.280 C 
ATOM     13  O   UNL     1       6.839   2.939  23.813  0.00  0.00    -0.468 OA
ENDBRANCH  10  13
ENDBRANCH   2  10
ENDBRANCH   1   6
BRANCH   1  14
ATOM     14  N   UNL     1       7.719  -4.305  22.583  0.00  0.00    -0.178 NA
ATOM     15  H   UNL     1       8.130  -5.222  22.755  0.00  0.00    +0.149 HD
BRANCH  14  16
ATOM     16  S   UNL     1       6.201  -4.434  21.834  0.00  0.00    +0.059 S 
ATOM     17  O   UNL     1       6.302  -5.520  20.889  0.00  0.00    -0.153 OA
ATOM     18  O   UNL     1       5.686  -3.136  21.465  0.00  0.00    -0.153 OA
BRANCH  16  19
ATOM     19  C   UNL     1       5.183  -5.009  23.171  0.00  0.00    +0.106 A 
ATOM     20  C   UNL     1       4.192  -4.168  23.683  0.00  0.00    +0.037 A 
ATOM     21  C   UNL     1       3.373  -4.608  24.731  0.00  0.00    -0.016 A 
ATOM     22  C   UNL     1       3.539  -5.916  25.242  0.00  0.00    -0.018 A 
ATOM     23  C   UNL     1       2.725  -6.341  26.305  0.00  0.00    +0.008 A 
ATOM     24  C   UNL     1       1.770  -5.492  26.861  0.00  0.00    +0.001 A 
ATOM     25  C   UNL     1       1.609  -4.203  26.351  0.00  0.00    +0.001 A 
ATOM     26  C   UNL     1       4.507  -6.764  24.677  0.00  0.00    +0.010 A 
ATOM     27  C   UNL     1       2.391  -3.769  25.283  0.00  0.00    +0.008 A 
ATOM     28  C   UNL     1       5.329  -6.314  23.643  0.00  0.00    +0.029 A 
ENDBRANCH  16  19
ENDBRANCH  14  16
ENDBRANCH   1  14
BRANCH   1  29
ATOM     29  C   UNL     1       8.102  -4.045  25.051  0.00  0.00    +0.065 C 
BRANCH  29  30
ATOM     30  C   UNL     1       7.021  -4.073  26.122  0.00  0.00    -0.045 A 
ATOM     31  C   UNL     1       6.876  -5.241  26.909  0.00  0.00    +0.019 A 
ATOM     32  C   UNL     1       5.980  -5.282  27.991  0.00  0.00    +0.065 A 
ATOM     33  C   UNL     1       5.190  -4.170  28.278  0.00  0.00    +0.016 A 
ATOM     34  C   UNL     1       5.274  -3.039  27.471  0.00  0.00    +0.001 A 
ATOM     35  C   UNL     1       6.179  -2.994  26.406  0.00  0.00    +0.004 A 
BRANCH  32  36
ATOM     36  C   UNL     1       5.893  -6.477  28.884  0.00  0.00    +0.308 C 
ATOM     37  N   UNL     1       6.357  -6.486  30.092  0.00  0.00    -0.099 NA
ATOM     38  H   UNL     1       6.841  -5.611  30.309  0.00  0.00    +0.363 HD
ATOM     39  N   UNL     1       5.302  -7.623  28.441  0.00  0.00    -0.247 N 
ATOM     40  H   UNL     1       5.070  -8.257  29.201  0.00  0.00    +0.288 HD
ATOM     41  H   UNL     1       4.579  -7.542  27.738  0.00  0.00    +0.288 HD
ENDBRANCH  32  36
ENDBRANCH  29  30
ENDBRANCH   1  29
TORSDOF 9
ENDMDL
MODEL 2
REMARK VINA RESULT:      -7.1      1.628      2.038
REMARK  Name = 
REMARK  10 active torsions:
REMARK  status: ('A' for Active; 'I' for Inactive)
REMARK    1  A    between atoms: C_1  and  O_2
REMARK    2  A    between atoms: O_2  and  C_3
REMARK    3  A    between atoms: C_3  and  C_5
REMARK    4  A    between atoms: C_11  and  C_13
REMARK    5  A    between atoms: C_13  and  C_15
REMARK    6  A    between atoms: C_13  and  N_25
REMARK    7  A    between atoms: C_15  and  C_16
REMARK    8  A    between atoms: C_20  and  C_22
REMARK    9  A    between atoms: N_25  and  S_26
REMARK   10  A    between atoms: S_26  and  C_29
REMARK                            x       y       z     vdW  Elec       q    Type
REMARK                         _______ _______ _______ _____ _____    ______ ____
ROOT
ATOM      1  C   UNL     1       7.802  -3.700  24.133  0.00  0.00    +0.166 C 
ENDROOT
BRANCH   1   6
ATOM      2  C   UNL     1       9.593   1.291  24.301  0.00  0.00    +0.101 C 
ATOM      3  C   UNL     1      10.716   0.312  23.939  0.00  0.00    +0.033 C 
ATOM      4  C   UNL     1      10.176  -0.912  23.214  0.00  0.00    +0.108 C 
ATOM      5  N   UNL     1       9.091  -1.545  23.961  0.00  0.00    -0.300 N 
ATOM      6  C   UNL     1       9.138  -2.926  24.116  0.00  0.00    +0.235 C 
ATOM      7  O   UNL     1      10.220  -3.518  24.146  0.00  0.00    -0.274 OA
ATOM      8  C   UNL     1       7.971  -0.683  24.312  0.00  0.00    +0.108 C 
ATOM      9  C   UNL     1       8.471   0.559  25.056  0.00  0.00    +0.033 C 
BRANCH   2  10
ATOM     10  C   UNL     1       9.059   2.008  23.069  0.00  0.00    +0.310 C 
ATOM     11  O   UNL     1       9.605   2.018  21.975  0.00  0.00    -0.251 OA
BRANCH  10  13
ATOM     12  C   UNL     1       7.201   3.152  22.208  0.00  0.00    +0.280 C 
ATOM     13  O   UNL     1       7.872   2.614  23.350  0.00  0.00    -0.468 OA
ENDBRANCH  10  13
ENDBRANCH   2  10
ENDBRANCH   1   6
BRANCH   1  14
ATOM     14  N   UNL     1       7.511  -4.355  22.822  0.00  0.00    -0.178 NA
ATOM     15  H   UNL     1       7.812  -5.327  22.759  0.00  0.00    +0.149 HD
BRANCH  14  16
ATOM     16  S   UNL     1       6.002  -4.121  22.080  0.00  0.00    +0.059 S 
ATOM     17  O   UNL     1       5.977  -4.984  20.924  0.00  0.00    -0.153 OA
ATOM     18  O   UNL     1       5.667  -2.718  22.002  0.00  0.00    -0.153 OA
BRANCH  16  19
ATOM     19  C   UNL     1       4.896  -4.830  23.274  0.00  0.00    +0.106 A 
ATOM     20  C   UNL     1       3.980  -4.002  23.930  0.00  0.00    +0.037 A 
ATOM     21  C   UNL     1       3.092  -4.545  24.868  0.00  0.00    -0.016 A 
ATOM     22  C   UNL     1       3.112  -5.936  25.122  0.00  0.00    -0.018 A 
ATOM     23  C   UNL     1       2.230  -6.467  26.078  0.00  0.00    +0.008 A 
ATOM     24  C   UNL     1       1.351  -5.644  26.778  0.00  0.00    +0.001 A 
ATOM     25  C   UNL     1       1.334  -4.272  26.521  0.00  0.00    +0.001 A 
ATOM     26  C   UNL     1       4.005  -6.758  24.413  0.00  0.00    +0.010 A 
ATOM     27  C   UNL     1       2.185  -3.728  25.562  0.00  0.00    +0.008 A 
ATOM     28  C   UNL     1       4.896  -6.209  23.490  0.00  0.00    +0.029 A 
ENDBRANCH  16  19
ENDBRANCH  14  16
ENDBRANCH   1  14
BRANCH   1  29
ATOM     29  C   UNL     1       7.712  -4.727  25.297  0.00  0.00    +0.065 C 
BRANCH  29  30
ATOM     30  C   UNL     1       6.699  -4.609  26.427  0.00  0.00    -0.045 A 
ATOM     31  C   UNL     1       6.161  -3.334  26.724  0.00  0.00    +0.019 A 
ATOM     32  C   UNL     1       5.134  -3.181  27.673  0.00  0.00    +0.065 A 
ATOM     33  C   UNL     1       4.658  -4.295  28.363  0.00  0.00    +0.016 A 
ATOM     34  C   UNL     1       5.225  -5.544  28.127  0.00  0.00    +0.001 A 
ATOM     35  C   UNL     1       6.233  -5.697  27.171  0.00  0.00    +0.004 A 
BRANCH  32  36
ATOM     36  C   UNL     1       4.496  -1.853  27.921  0.00  0.00    +0.308 C 
ATOM     37  N   UNL     1       3.319  -1.727  28.444  0.00  0.00    -0.099 NA
ATOM     38  H   UNL     1       2.878  -2.638  28.586  0.00  0.00    +0.363 HD
ATOM     39  N   UNL     1       5.156  -0.704  27.600  0.00  0.00    -0.247 N 
ATOM     40  H   UNL     1       4.750   0.113  28.046  0.00  0.00    +0.288 HD
ATOM     41  H   UNL     1       6.168  -0.719  27.613  0.00  0.00    +0.288 HD
ENDBRANCH  32  36
ENDBRANCH  29  30
ENDBRANCH   1  29
TORSDOF 9
ENDMDL
MODEL 3
REMARK VINA RESULT:      -7.0      3.331      8.549
REMARK  Name = 
REMARK  10 active torsions:
REMARK  status: ('A' for Active; 'I' for Inactive)
REMARK    1  A    between atoms: C_1  and  O_2
REMARK    2  A    between atoms: O_2  and  C_3
REMARK    3  A    between atoms: C_3  and  C_5
REMARK    4  A    between atoms: C_11  and  C_13
REMARK    5  A    between atoms: C_13  and  C_15
REMARK    6  A    between atoms: C_13  and  N_25
REMARK    7  A    between atoms: C_15  and  C_16
REMARK    8  A    between atoms: C_20  and  C_22
REMARK    9  A    between atoms: N_25  and  S_26
REMARK   10  A    between atoms: S_26  and  C_29
REMARK                            x       y       z     vdW  Elec       q    Type
REMARK                         _______ _______ _______ _____ _____    ______ ____
ROOT
ATOM      1  C   UNL     1       8.471  -0.861  25.990  0.00  0.00    +0.166 C 
ENDROOT
BRANCH   1   6
ATOM      2  C   UNL     1       7.051  -4.652  22.562  0.00  0.00    +0.101 C 
ATOM      3  C   UNL     1       7.309  -5.235  23.956  0.00  0.00    +0.033 C 
ATOM      4  C   UNL     1       7.021  -4.216  25.050  0.00  0.00    +0.108 C 
ATOM      5  N   UNL     1       7.734  -2.962  24.818  0.00  0.00    -0.300 N 
ATOM      6  C   UNL     1       8.411  -2.400  25.894  0.00  0.00    +0.235 C 
ATOM      7  O   UNL     1       8.869  -3.115  26.790  0.00  0.00    -0.274 OA
ATOM      8  C   UNL     1       7.510  -2.330  23.525  0.00  0.00    +0.108 C 
ATOM      9  C   UNL     1       7.802  -3.321  22.394  0.00  0.00    +0.033 C 
BRANCH   2  10
ATOM     10  C   UNL     1       5.561  -4.488  22.294  0.00  0.00    +0.310 C 
ATOM     11  O   UNL     1       4.995  -3.416  22.130  0.00  0.00    -0.251 OA
BRANCH  10  13
ATOM     12  C   UNL     1       3.815  -5.838  23.089  0.00  0.00    +0.280 C 
ATOM     13  O   UNL     1       4.953  -5.705  22.234  0.00  0.00    -0.468 OA
ENDBRANCH  10  13
ENDBRANCH   2  10
ENDBRANCH   1   6
BRANCH   1  14
ATOM     14  N   UNL     1       8.209  -0.369  27.377  0.00  0.00    -0.178 NA
ATOM     15  H   UNL     1       9.025   0.019  27.849  0.00  0.00    +0.149 HD
BRANCH  14  16
ATOM     16  S   UNL     1       6.813   0.541  27.698  0.00  0.00    +0.059 S 
ATOM     17  O   UNL     1       7.010   1.150  28.991  0.00  0.00    -0.153 OA
ATOM     18  O   UNL     1       5.617  -0.198  27.369  0.00  0.00    -0.153 OA
BRANCH  16  19
ATOM     19  C   UNL     1       6.940   1.841  26.494  0.00  0.00    +0.106 A 
ATOM     20  C   UNL     1       6.595   1.575  25.167  0.00  0.00    +0.037 A 
ATOM     21  C   UNL     1       6.679   2.591  24.205  0.00  0.00    -0.016 A 
ATOM     22  C   UNL     1       7.087   3.887  24.595  0.00  0.00    -0.018 A 
ATOM     23  C   UNL     1       7.186   4.893  23.620  0.00  0.00    +0.008 A 
ATOM     24  C   UNL     1       6.897   4.626  22.282  0.00  0.00    +0.001 A 
ATOM     25  C   UNL     1       6.493   3.346  21.904  0.00  0.00    +0.001 A 
ATOM     26  C   UNL     1       7.380   4.145  25.945  0.00  0.00    +0.010 A 
ATOM     27  C   UNL     1       6.368   2.339  22.859  0.00  0.00    +0.008 A 
ATOM     28  C   UNL     1       7.306   3.126  26.895  0.00  0.00    +0.029 A 
ENDBRANCH  16  19
ENDBRANCH  14  16
ENDBRANCH   1  14
BRANCH   1  29
ATOM     29  C   UNL     1       9.799  -0.270  25.435  0.00  0.00    +0.065 C 
BRANCH  29  30
ATOM     30  C   UNL     1       9.853   0.634  24.212  0.00  0.00    -0.045 A 
ATOM     31  C   UNL     1      10.283   1.972  24.377  0.00  0.00    +0.019 A 
ATOM     32  C   UNL     1      10.470   2.818  23.269  0.00  0.00    +0.065 A 
ATOM     33  C   UNL     1      10.194   2.348  21.986  0.00  0.00    +0.016 A 
ATOM     34  C   UNL     1       9.707   1.056  21.816  0.00  0.00    +0.001 A 
ATOM     35  C   UNL     1       9.538   0.211  22.917  0.00  0.00    +0.004 A 
BRANCH  32  36
ATOM     36  C   UNL     1      11.016   4.199  23.428  0.00  0.00    +0.308 C 
ATOM     37  N   UNL     1      10.479   5.081  24.210  0.00  0.00    -0.099 NA
ATOM     38  H   UNL     1       9.615   4.727  24.627  0.00  0.00    +0.363 HD
ATOM     39  N   UNL     1      12.130   4.581  22.741  0.00  0.00    -0.247 N 
ATOM     40  H   UNL     1      12.549   5.425  23.121  0.00  0.00    +0.288 HD
ATOM     41  H   UNL     1      12.800   3.866  22.490  0.00  0.00    +0.288 HD
ENDBRANCH  32  36
ENDBRANCH  29  30
ENDBRANCH   1  29
TORSDOF 9
ENDMDL
MODEL 4
REMARK VINA RESULT:      -6.9      3.509      8.370
REMARK  Name = 
REMARK  10 active torsions:
REMARK  status: ('A' for Active; 'I' for Inactive)
REMARK    1  A    between atoms: C_1  and  O_2
REMARK    2  A    between atoms: O_2  and  C_3
REMARK    3  A    between atoms: C_3  and  C_5
REMARK    4  A    between atoms: C_11  and  C_13
REMARK    5  A    between atoms: C_13  and  C_15
REMARK    6  A    between atoms: C_13  and  N_25
REMARK    7  A    between atoms: C_15  and  C_16
REMARK    8  A    between atoms: C_20  and  C_22
REMARK    9  A    between atoms: N_25  and  S_26
REMARK   10  A    between atoms: S_26  and  C_29
REMARK                            x       y       z     vdW  Elec       q    Type
REMARK                         _______ _______ _______ _____ _____    ______ ____
ROOT
ATOM      1  C   UNL     1       8.660  -1.059  23.794  0.00  0.00    +0.166 C 
ENDROOT
BRANCH   1   6
ATOM      2  C   UNL     1       6.078  -5.298  21.921  0.00  0.00    +0.101 C 
ATOM      3  C   UNL     1       7.466  -5.683  22.447  0.00  0.00    +0.033 C 
ATOM      4  C   UNL     1       7.918  -4.752  23.563  0.00  0.00    +0.108 C 
ATOM      5  N   UNL     1       7.831  -3.349  23.162  0.00  0.00    -0.300 N 
ATOM      6  C   UNL     1       8.926  -2.536  23.434  0.00  0.00    +0.235 C 
ATOM      7  O   UNL     1      10.065  -3.009  23.473  0.00  0.00    -0.274 OA
ATOM      8  C   UNL     1       6.531  -2.901  22.684  0.00  0.00    +0.108 C 
ATOM      9  C   UNL     1       6.045  -3.807  21.548  0.00  0.00    +0.033 C 
BRANCH   2  10
ATOM     10  C   UNL     1       4.986  -5.645  22.923  0.00  0.00    +0.310 C 
ATOM     11  O   UNL     1       5.111  -6.440  23.845  0.00  0.00    -0.251 OA
BRANCH  10  13
ATOM     12  C   UNL     1       2.713  -5.338  23.415  0.00  0.00    +0.280 C 
ATOM     13  O   UNL     1       3.859  -4.926  22.666  0.00  0.00    -0.468 OA
ENDBRANCH  10  13
ENDBRANCH   2  10
ENDBRANCH   1   6
BRANCH   1  14
ATOM     14  N   UNL     1       9.043  -0.741  25.203  0.00  0.00    -0.178 NA
ATOM     15  H   UNL     1       9.688   0.042  25.300  0.00  0.00    +0.149 HD
BRANCH  14  16
ATOM     16  S   UNL     1       7.855  -0.723  26.415  0.00  0.00    +0.059 S 
ATOM     17  O   UNL     1       8.546  -0.507  27.662  0.00  0.00    -0.153 OA
ATOM     18  O   UNL     1       6.905  -1.796  26.236  0.00  0.00    -0.153 OA
BRANCH  16  19
ATOM     19  C   UNL     1       6.981   0.778  26.046  0.00  0.00    +0.106 A 
ATOM     20  C   UNL     1       7.533   2.001  26.436  0.00  0.00    +0.037 A 
ATOM     21  C   UNL     1       6.864   3.197  26.145  0.00  0.00    -0.016 A 
ATOM     22  C   UNL     1       5.644   3.156  25.429  0.00  0.00    -0.018 A 
ATOM     23  C   UNL     1       4.972   4.359  25.158  0.00  0.00    +0.008 A 
ATOM     24  C   UNL     1       5.485   5.580  25.590  0.00  0.00    +0.001 A 
ATOM     25  C   UNL     1       6.690   5.615  26.294  0.00  0.00    +0.001 A 
ATOM     26  C   UNL     1       5.134   1.919  25.000  0.00  0.00    +0.010 A 
ATOM     27  C   UNL     1       7.383   4.435  26.555  0.00  0.00    +0.008 A 
ATOM     28  C   UNL     1       5.799   0.731  25.306  0.00  0.00    +0.029 A 
ENDBRANCH  16  19
ENDBRANCH  14  16
ENDBRANCH   1  14
BRANCH   1  29
ATOM     29  C   UNL     1       9.328  -0.064  22.802  0.00  0.00    +0.065 C 
BRANCH  29  30
ATOM     30  C   UNL     1       9.271   1.447  22.983  0.00  0.00    -0.045 A 
ATOM     31  C   UNL     1       8.199   2.160  22.396  0.00  0.00    +0.019 A 
ATOM     32  C   UNL     1       8.027   3.536  22.629  0.00  0.00    +0.065 A 
ATOM     33  C   UNL     1       8.944   4.224  23.423  0.00  0.00    +0.016 A 
ATOM     34  C   UNL     1      10.039   3.547  23.952  0.00  0.00    +0.001 A 
ATOM     35  C   UNL     1      10.200   2.175  23.732  0.00  0.00    +0.004 A 
BRANCH  32  36
ATOM     36  C   UNL     1       6.845   4.274  22.092  0.00  0.00    +0.308 C 
ATOM     37  N   UNL     1       6.855   5.550  21.869  0.00  0.00    -0.099 NA
ATOM     38  H   UNL     1       7.734   5.972  22.177  0.00  0.00    +0.363 HD
ATOM     39  N   UNL     1       5.691   3.606  21.806  0.00  0.00    -0.247 N 
ATOM     40  H   UNL     1       5.067   4.147  21.214  0.00  0.00    +0.288 HD
ATOM     41  H   UNL     1       5.759   2.631  21.547  0.00  0.00    +0.288 HD
ENDBRANCH  32  36
ENDBRANCH  29  30
ENDBRANCH   1  29
TORSDOF 9
ENDMDL
MODEL 5
REMARK VINA RESULT:      -6.9      2.844      4.817
REMARK  Name = 
REMARK  10 active torsions:
REMARK  status: ('A' for Active; 'I' for Inactive)
REMARK    1  A    between atoms: C_1  and  O_2
REMARK    2  A    between atoms: O_2  and  C_3
REMARK    3  A    between atoms: C_3  and  C_5
REMARK    4  A    between atoms: C_11  and  C_13
REMARK    5  A    between atoms: C_13  and  C_15
REMARK    6  A    between atoms: C_13  and  N_25
REMARK    7  A    between atoms: C_15  and  C_16
REMARK    8  A    between atoms: C_20  and  C_22
REMARK    9  A    between atoms: N_25  and  S_26
REMARK   10  A    between atoms: S_26  and  C_29
REMARK                            x       y       z     vdW  Elec       q    Type
REMARK                         _______ _______ _______ _____ _____    ______ ____
ROOT
ATOM      1  C   UNL     1       7.466   0.619  25.921  0.00  0.00    +0.166 C 
ENDROOT
BRANCH   1   6
ATOM      2  C   UNL     1       6.091   5.380  24.025  0.00  0.00    +0.101 C 
ATOM      3  C   UNL     1       6.516   5.471  25.496  0.00  0.00    +0.033 C 
ATOM      4  C   UNL     1       7.529   4.393  25.852  0.00  0.00    +0.108 C 
ATOM      5  N   UNL     1       7.052   3.062  25.481  0.00  0.00    -0.300 N 
ATOM      6  C   UNL     1       7.176   2.049  26.425  0.00  0.00    +0.235 C 
ATOM      7  O   UNL     1       7.145   2.308  27.631  0.00  0.00    -0.274 OA
ATOM      8  C   UNL     1       6.663   2.890  24.088  0.00  0.00    +0.108 C 
ATOM      9  C   UNL     1       5.632   3.951  23.692  0.00  0.00    +0.033 C 
BRANCH   2  10
ATOM     10  C   UNL     1       7.205   5.838  23.094  0.00  0.00    +0.310 C 
ATOM     11  O   UNL     1       7.300   5.529  21.914  0.00  0.00    -0.251 OA
BRANCH  10  13
ATOM     12  C   UNL     1       9.446   6.421  23.468  0.00  0.00    +0.280 C 
ATOM     13  O   UNL     1       8.066   6.661  23.753  0.00  0.00    -0.468 OA
ENDBRANCH  10  13
ENDBRANCH   2  10
ENDBRANCH   1   6
BRANCH   1  14
ATOM     14  N   UNL     1       8.926   0.379  25.710  0.00  0.00    -0.178 NA
ATOM     15  H   UNL     1       9.358  -0.232  26.403  0.00  0.00    +0.149 HD
BRANCH  14  16
ATOM     16  S   UNL     1       9.510   0.062  24.148  0.00  0.00    +0.059 S 
ATOM     17  O   UNL     1      10.948   0.007  24.253  0.00  0.00    -0.153 OA
ATOM     18  O   UNL     1       8.839   0.875  23.161  0.00  0.00    -0.153 OA
BRANCH  16  19
ATOM     19  C   UNL     1       8.952  -1.603  23.882  0.00  0.00    +0.106 A 
ATOM     20  C   UNL     1       7.912  -1.836  22.977  0.00  0.00    +0.037 A 
ATOM     21  C   UNL     1       7.466  -3.144  22.747  0.00  0.00    -0.016 A 
ATOM     22  C   UNL     1       8.093  -4.222  23.413  0.00  0.00    -0.018 A 
ATOM     23  C   UNL     1       7.625  -5.527  23.188  0.00  0.00    +0.008 A 
ATOM     24  C   UNL     1       6.553  -5.767  22.330  0.00  0.00    +0.001 A 
ATOM     25  C   UNL     1       5.939  -4.699  21.674  0.00  0.00    +0.001 A 
ATOM     26  C   UNL     1       9.171  -3.969  24.278  0.00  0.00    +0.010 A 
ATOM     27  C   UNL     1       6.402  -3.399  21.866  0.00  0.00    +0.008 A 
ATOM     28  C   UNL     1       9.602  -2.664  24.514  0.00  0.00    +0.029 A 
ENDBRANCH  16  19
ENDBRANCH  14  16
ENDBRANCH   1  14
BRANCH   1  29
ATOM     29  C   UNL     1       6.850  -0.481  26.832  0.00  0.00    +0.065 C 
BRANCH  29  30
ATOM     30  C   UNL     1       6.219  -1.752  26.281  0.00  0.00    -0.045 A 
ATOM     31  C   UNL     1       6.712  -3.002  26.726  0.00  0.00    +0.019 A 
ATOM     32  C   UNL     1       6.091  -4.205  26.347  0.00  0.00    +0.065 A 
ATOM     33  C   UNL     1       4.992  -4.177  25.490  0.00  0.00    +0.016 A 
ATOM     34  C   UNL     1       4.539  -2.958  24.992  0.00  0.00    +0.001 A 
ATOM     35  C   UNL     1       5.147  -1.762  25.383  0.00  0.00    +0.004 A 
BRANCH  32  36
ATOM     36  C   UNL     1       6.547  -5.520  26.891  0.00  0.00    +0.308 C 
ATOM     37  N   UNL     1       5.730  -6.483  27.176  0.00  0.00    -0.099 NA
ATOM     38  H   UNL     1       4.757  -6.192  27.050  0.00  0.00    +0.363 HD
ATOM     39  N   UNL     1       7.873  -5.752  27.103  0.00  0.00    -0.247 N 
ATOM     40  H   UNL     1       8.080  -6.740  27.217  0.00  0.00    +0.288 HD
ATOM     41  H   UNL     1       8.540  -5.257  26.525  0.00  0.00    +0.288 HD
ENDBRANCH  32  36
ENDBRANCH  29  30
ENDBRANCH   1  29
TORSDOF 9
ENDMDL
MODEL 6
REMARK VINA RESULT:      -6.9      2.789      4.183
REMARK  Name = 
REMARK  10 active torsions:
REMARK  status: ('A' for Active; 'I' for Inactive)
REMARK    1  A    between atoms: C_1  and  O_2
REMARK    2  A    between atoms: O_2  and  C_3
REMARK    3  A    between atoms: C_3  and  C_5
REMARK    4  A    between atoms: C_11  and  C_13
REMARK    5  A    between atoms: C_13  and  C_15
REMARK    6  A    between atoms: C_13  and  N_25
REMARK    7  A    between atoms: C_15  and  C_16
REMARK    8  A    between atoms: C_20  and  C_22
REMARK    9  A    between atoms: N_25  and  S_26
REMARK   10  A    between atoms: S_26  and  C_29
REMARK                            x       y       z     vdW  Elec       q    Type
REMARK                         _______ _______ _______ _____ _____    ______ ____
ROOT
ATOM      1  C   UNL     1       6.111  -0.847  24.505  0.00  0.00    +0.166 C 
ENDROOT
BRANCH   1   6
ATOM      2  C   UNL     1       9.310   2.920  22.576  0.00  0.00    +0.101 C 
ATOM      3  C   UNL     1       8.087   3.534  23.269  0.00  0.00    +0.033 C 
ATOM      4  C   UNL     1       7.565   2.634  24.380  0.00  0.00    +0.108 C 
ATOM      5  N   UNL     1       7.324   1.274  23.903  0.00  0.00    -0.300 N 
ATOM      6  C   UNL     1       6.118   0.676  24.250  0.00  0.00    +0.235 C 
ATOM      7  O   UNL     1       5.109   1.360  24.437  0.00  0.00    -0.274 OA
ATOM      8  C   UNL     1       8.453   0.613  23.264  0.00  0.00    +0.108 C 
ATOM      9  C   UNL     1       9.002   1.482  22.128  0.00  0.00    +0.033 C 
BRANCH   2  10
ATOM     10  C   UNL     1      10.541   2.973  23.471  0.00  0.00    +0.310 C 
ATOM     11  O   UNL     1      11.123   1.994  23.916  0.00  0.00    -0.251 OA
BRANCH  10  13
ATOM     12  C   UNL     1      12.242   4.571  23.237  0.00  0.00    +0.280 C 
ATOM     13  O   UNL     1      10.919   4.264  23.682  0.00  0.00    -0.468 OA
ENDBRANCH  10  13
ENDBRANCH   2  10
ENDBRANCH   1   6
BRANCH   1  14
ATOM     14  N   UNL     1       4.970  -1.271  25.373  0.00  0.00    -0.178 NA
ATOM     15  H   UNL     1       4.129  -1.539  24.864  0.00  0.00    +0.149 HD
BRANCH  14  16
ATOM     16  S   UNL     1       5.253  -2.297  26.695  0.00  0.00    +0.059 S 
ATOM     17  O   UNL     1       4.327  -1.900  27.727  0.00  0.00    -0.153 OA
ATOM     18  O   UNL     1       6.667  -2.453  26.945  0.00  0.00    -0.153 OA
BRANCH  16  19
ATOM     19  C   UNL     1       4.686  -3.860  26.069  0.00  0.00    +0.106 A 
ATOM     20  C   UNL     1       3.740  -3.879  25.041  0.00  0.00    +0.037 A 
ATOM     21  C   UNL     1       3.289  -5.102  24.528  0.00  0.00    -0.016 A 
ATOM     22  C   UNL     1       3.818  -6.310  25.039  0.00  0.00    -0.018 A 
ATOM     23  C   UNL     1       3.345  -7.531  24.531  0.00  0.00    +0.008 A 
ATOM     24  C   UNL     1       2.362  -7.564  23.543  0.00  0.00    +0.001 A 
ATOM     25  C   UNL     1       1.845  -6.369  23.041  0.00  0.00    +0.001 A 
ATOM     26  C   UNL     1       4.807  -6.266  26.037  0.00  0.00    +0.010 A 
ATOM     27  C   UNL     1       2.316  -5.147  23.516  0.00  0.00    +0.008 A 
ATOM     28  C   UNL     1       5.242  -5.045  26.553  0.00  0.00    +0.029 A 
ENDBRANCH  16  19
ENDBRANCH  14  16
ENDBRANCH   1  14
BRANCH   1  29
ATOM     29  C   UNL     1       6.146  -1.681  23.192  0.00  0.00    +0.065 C 
BRANCH  29  30
ATOM     30  C   UNL     1       6.657  -3.114  23.138  0.00  0.00    -0.045 A 
ATOM     31  C   UNL     1       7.660  -3.512  24.054  0.00  0.00    +0.019 A 
ATOM     32  C   UNL     1       8.083  -4.850  24.132  0.00  0.00    +0.065 A 
ATOM     33  C   UNL     1       7.536  -5.801  23.271  0.00  0.00    +0.016 A 
ATOM     34  C   UNL     1       6.598  -5.409  22.321  0.00  0.00    +0.001 A 
ATOM     35  C   UNL     1       6.166  -4.081  22.256  0.00  0.00    +0.004 A 
BRANCH  32  36
ATOM     36  C   UNL     1       9.070  -5.294  25.162  0.00  0.00    +0.308 C 
ATOM     37  N   UNL     1      10.350  -5.269  24.965  0.00  0.00    -0.099 NA
ATOM     38  H   UNL     1      10.571  -4.982  24.009  0.00  0.00    +0.363 HD
ATOM     39  N   UNL     1       8.641  -5.747  26.374  0.00  0.00    -0.247 N 
ATOM     40  H   UNL     1       9.385  -5.766  27.065  0.00  0.00    +0.288 HD
ATOM     41  H   UNL     1       7.761  -5.394  26.727  0.00  0.00    +0.288 HD
ENDBRANCH  32  36
ENDBRANCH  29  30
ENDBRANCH   1  29
TORSDOF 9
ENDMDL
MODEL 7
REMARK VINA RESULT:      -6.8      3.058      4.702
REMARK  Name = 
REMARK  10 active torsions:
REMARK  status: ('A' for Active; 'I' for Inactive)
REMARK    1  A    between atoms: C_1  and  O_2
REMARK    2  A    between atoms: O_2  and  C_3
REMARK    3  A    between atoms: C_3  and  C_5
REMARK    4  A    between atoms: C_11  and  C_13
REMARK    5  A    between atoms: C_13  and  C_15
REMARK    6  A    between atoms: C_13  and  N_25
REMARK    7  A    between atoms: C_15  and  C_16
REMARK    8  A    between atoms: C_20  and  C_22
REMARK    9  A    between atoms: N_25  and  S_26
REMARK   10  A    between atoms: S_26  and  C_29
REMARK                            x       y       z     vdW  Elec       q    Type
REMARK                         _______ _______ _______ _____ _____    ______ ____
ROOT
ATOM      1  C   UNL     1       7.766   0.232  23.271  0.00  0.00    +0.166 C 
ENDROOT
BRANCH   1   6
ATOM      2  C   UNL     1       8.141   5.486  23.904  0.00  0.00    +0.101 C 
ATOM      3  C   UNL     1       7.765   5.128  22.461  0.00  0.00    +0.033 C 
ATOM      4  C   UNL     1       6.988   3.821  22.395  0.00  0.00    +0.108 C 
ATOM      5  N   UNL     1       7.693   2.740  23.083  0.00  0.00    -0.300 N 
ATOM      6  C   UNL     1       7.801   1.522  22.423  0.00  0.00    +0.235 C 
ATOM      7  O   UNL     1       7.830   1.476  21.190  0.00  0.00    -0.274 OA
ATOM      8  C   UNL     1       8.053   2.996  24.470  0.00  0.00    +0.108 C 
ATOM      9  C   UNL     1       8.848   4.300  24.580  0.00  0.00    +0.033 C 
BRANCH   2  10
ATOM     10  C   UNL     1       6.924   5.936  24.701  0.00  0.00    +0.310 C 
ATOM     11  O   UNL     1       6.714   5.655  25.873  0.00  0.00    -0.251 OA
BRANCH  10  13
ATOM     12  C   UNL     1       4.719   6.531  24.169  0.00  0.00    +0.280 C 
ATOM     13  O   UNL     1       6.116   6.718  23.934  0.00  0.00    -0.468 OA
ENDBRANCH  10  13
ENDBRANCH   2  10
ENDBRANCH   1   6
BRANCH   1  14
ATOM     14  N   UNL     1       6.380  -0.127  23.700  0.00  0.00    -0.178 NA
ATOM     15  H   UNL     1       5.987  -0.939  23.225  0.00  0.00    +0.149 HD
BRANCH  14  16
ATOM     16  S   UNL     1       5.979  -0.115  25.349  0.00  0.00    +0.059 S 
ATOM     17  O   UNL     1       4.677   0.497  25.449  0.00  0.00    -0.153 OA
ATOM     18  O   UNL     1       7.097   0.312  26.158  0.00  0.00    -0.153 OA
BRANCH  16  19
ATOM     19  C   UNL     1       5.759  -1.846  25.682  0.00  0.00    +0.106 A 
ATOM     20  C   UNL     1       4.951  -2.606  24.832  0.00  0.00    +0.037 A 
ATOM     21  C   UNL     1       4.775  -3.974  25.073  0.00  0.00    -0.016 A 
ATOM     22  C   UNL     1       5.442  -4.582  26.162  0.00  0.00    -0.018 A 
ATOM     23  C   UNL     1       5.243  -5.951  26.406  0.00  0.00    +0.008 A 
ATOM     24  C   UNL     1       4.396  -6.708  25.598  0.00  0.00    +0.001 A 
ATOM     25  C   UNL     1       3.742  -6.103  24.523  0.00  0.00    +0.001 A 
ATOM     26  C   UNL     1       6.291  -3.810  26.973  0.00  0.00    +0.010 A 
ATOM     27  C   UNL     1       3.942  -4.752  24.251  0.00  0.00    +0.008 A 
ATOM     28  C   UNL     1       6.452  -2.444  26.736  0.00  0.00    +0.029 A 
ENDBRANCH  16  19
ENDBRANCH  14  16
ENDBRANCH   1  14
BRANCH   1  29
ATOM     29  C   UNL     1       8.457  -0.972  22.570  0.00  0.00    +0.065 C 
BRANCH  29  30
ATOM     30  C   UNL     1       8.251  -2.415  23.012  0.00  0.00    -0.045 A 
ATOM     31  C   UNL     1       7.410  -3.248  22.235  0.00  0.00    +0.019 A 
ATOM     32  C   UNL     1       7.278  -4.618  22.523  0.00  0.00    +0.065 A 
ATOM     33  C   UNL     1       7.954  -5.165  23.612  0.00  0.00    +0.016 A 
ATOM     34  C   UNL     1       8.731  -4.342  24.423  0.00  0.00    +0.001 A 
ATOM     35  C   UNL     1       8.876  -2.984  24.125  0.00  0.00    +0.004 A 
BRANCH  32  36
ATOM     36  C   UNL     1       6.469  -5.521  21.650  0.00  0.00    +0.308 C 
ATOM     37  N   UNL     1       6.068  -5.179  20.467  0.00  0.00    -0.099 NA
ATOM     38  H   UNL     1       6.313  -4.208  20.260  0.00  0.00    +0.363 HD
ATOM     39  N   UNL     1       6.125  -6.767  22.083  0.00  0.00    -0.247 N 
ATOM     40  H   UNL     1       5.817  -7.368  21.324  0.00  0.00    +0.288 HD
ATOM     41  H   UNL     1       6.738  -7.224  22.746  0.00  0.00    +0.288 HD
ENDBRANCH  32  36
ENDBRANCH  29  30
ENDBRANCH   1  29
TORSDOF 9
ENDMDL
MODEL 8
REMARK VINA RESULT:      -6.8      2.867      8.743
REMARK  Name = 
REMARK  10 active torsions:
REMARK  status: ('A' for Active; 'I' for Inactive)
REMARK    1  A    between atoms: C_1  and  O_2
REMARK    2  A    between atoms: O_2  and  C_3
REMARK    3  A    between atoms: C_3  and  C_5
REMARK    4  A    between atoms: C_11  and  C_13
REMARK    5  A    between atoms: C_13  and  C_15
REMARK    6  A    between atoms: C_13  and  N_25
REMARK    7  A    between atoms: C_15  and  C_16
REMARK    8  A    between atoms: C_20  and  C_22
REMARK    9  A    between atoms: N_25  and  S_26
REMARK   10  A    between atoms: S_26  and  C_29
REMARK                            x       y       z     vdW  Elec       q    Type
REMARK                         _______ _______ _______ _____ _____    ______ ____
ROOT
ATOM      1  C   UNL     1       7.646  -2.704  24.203  0.00  0.00    +0.166 C 
ENDROOT
BRANCH   1   6
ATOM      2  C   UNL     1       3.490  -6.002  24.229  0.00  0.00    +0.101 C 
ATOM      3  C   UNL     1       4.762  -6.711  24.708  0.00  0.00    +0.033 C 
ATOM      4  C   UNL     1       5.728  -5.739  25.371  0.00  0.00    +0.108 C 
ATOM      5  N   UNL     1       6.008  -4.589  24.512  0.00  0.00    -0.300 N 
ATOM      6  C   UNL     1       7.337  -4.209  24.362  0.00  0.00    +0.235 C 
ATOM      7  O   UNL     1       8.242  -5.042  24.447  0.00  0.00    -0.274 OA
ATOM      8  C   UNL     1       4.847  -3.844  24.045  0.00  0.00    +0.108 C 
ATOM      9  C   UNL     1       3.854  -4.787  23.359  0.00  0.00    +0.033 C 
BRANCH   2  10
ATOM     10  C   UNL     1       2.601  -5.603  25.398  0.00  0.00    +0.310 C 
ATOM     11  O   UNL     1       2.365  -4.451  25.736  0.00  0.00    -0.251 OA
BRANCH  10  13
ATOM     12  C   UNL     1       1.257  -7.509  25.148  0.00  0.00    +0.280 C 
ATOM     13  O   UNL     1       2.081  -6.709  25.998  0.00  0.00    -0.468 OA
ENDBRANCH  10  13
ENDBRANCH   2  10
ENDBRANCH   1   6
BRANCH   1  14
ATOM     14  N   UNL     1       8.663  -2.228  25.189  0.00  0.00    -0.178 NA
ATOM     15  H   UNL     1       9.618  -2.205  24.833  0.00  0.00    +0.149 HD
BRANCH  14  16
ATOM     16  S   UNL     1       8.326  -0.878  26.161  0.00  0.00    +0.059 S 
ATOM     17  O   UNL     1       9.006  -1.096  27.414  0.00  0.00    -0.153 OA
ATOM     18  O   UNL     1       6.929  -0.517  26.093  0.00  0.00    -0.153 OA
BRANCH  16  19
ATOM     19  C   UNL     1       9.212   0.409  25.315  0.00  0.00    +0.106 A 
ATOM     20  C   UNL     1       8.655   1.688  25.247  0.00  0.00    +0.037 A 
ATOM     21  C   UNL     1       9.343   2.718  24.593  0.00  0.00    -0.016 A 
ATOM     22  C   UNL     1      10.615   2.458  24.030  0.00  0.00    -0.018 A 
ATOM     23  C   UNL     1      11.288   3.493  23.361  0.00  0.00    +0.008 A 
ATOM     24  C   UNL     1      10.718   4.759  23.239  0.00  0.00    +0.001 A 
ATOM     25  C   UNL     1       9.464   5.010  23.798  0.00  0.00    +0.001 A 
ATOM     26  C   UNL     1      11.180   1.177  24.156  0.00  0.00    +0.010 A 
ATOM     27  C   UNL     1       8.789   4.004  24.485  0.00  0.00    +0.008 A 
ATOM     28  C   UNL     1      10.482   0.153  24.797  0.00  0.00    +0.029 A 
ENDBRANCH  16  19
ENDBRANCH  14  16
ENDBRANCH   1  14
BRANCH   1  29
ATOM     29  C   UNL     1       8.060  -2.321  22.753  0.00  0.00    +0.065 C 
BRANCH  29  30
ATOM     30  C   UNL     1       8.054  -0.887  22.244  0.00  0.00    -0.045 A 
ATOM     31  C   UNL     1       6.980  -0.042  22.610  0.00  0.00    +0.019 A 
ATOM     32  C   UNL     1       6.980   1.323  22.272  0.00  0.00    +0.065 A 
ATOM     33  C   UNL     1       8.037   1.853  21.533  0.00  0.00    +0.016 A 
ATOM     34  C   UNL     1       9.067   1.018  21.111  0.00  0.00    +0.001 A 
ATOM     35  C   UNL     1       9.074  -0.335  21.462  0.00  0.00    +0.004 A 
BRANCH  32  36
ATOM     36  C   UNL     1       5.897   2.240  22.739  0.00  0.00    +0.308 C 
ATOM     37  N   UNL     1       5.018   1.894  23.624  0.00  0.00    -0.099 NA
ATOM     38  H   UNL     1       5.126   0.913  23.890  0.00  0.00    +0.363 HD
ATOM     39  N   UNL     1       5.802   3.503  22.235  0.00  0.00    -0.247 N 
ATOM     40  H   UNL     1       5.212   4.103  22.804  0.00  0.00    +0.288 HD
ATOM     41  H   UNL     1       6.651   3.949  21.912  0.00  0.00    +0.288 HD
ENDBRANCH  32  36
ENDBRANCH  29  30
ENDBRANCH   1  29
TORSDOF 9
ENDMDL
MODEL 9
REMARK VINA RESULT:      -6.7      2.320      3.552
REMARK  Name = 
REMARK  10 active torsions:
REMARK  status: ('A' for Active; 'I' for Inactive)
REMARK    1  A    between atoms: C_1  and  O_2
REMARK    2  A    between atoms: O_2  and  C_3
REMARK    3  A    between atoms: C_3  and  C_5
REMARK    4  A    between atoms: C_11  and  C_13
REMARK    5  A    between atoms: C_13  and  C_15
REMARK    6  A    between atoms: C_13  and  N_25
REMARK    7  A    between atoms: C_15  and  C_16
REMARK    8  A    between atoms: C_20  and  C_22
REMARK    9  A    between atoms: N_25  and  S_26
REMARK   10  A    between atoms: S_26  and  C_29
REMARK                            x       y       z     vdW  Elec       q    Type
REMARK                         _______ _______ _______ _____ _____    ______ ____
ROOT
ATOM      1  C   UNL     1       7.904  -2.533  23.792  0.00  0.00    +0.166 C 
ENDROOT
BRANCH   1   6
ATOM      2  C   UNL     1      10.181   2.250  23.497  0.00  0.00    +0.101 C 
ATOM      3  C   UNL     1       9.968   1.651  22.102  0.00  0.00    +0.033 C 
ATOM      4  C   UNL     1       8.769   0.714  22.073  0.00  0.00    +0.108 C 
ATOM      5  N   UNL     1       8.855  -0.302  23.120  0.00  0.00    -0.300 N 
ATOM      6  C   UNL     1       8.597  -1.619  22.758  0.00  0.00    +0.235 C 
ATOM      7  O   UNL     1       8.833  -2.014  21.613  0.00  0.00    -0.274 OA
ATOM      8  C   UNL     1       9.022   0.194  24.478  0.00  0.00    +0.108 C 
ATOM      9  C   UNL     1      10.230   1.134  24.553  0.00  0.00    +0.033 C 
BRANCH   2  10
ATOM     10  C   UNL     1       9.113   3.283  23.828  0.00  0.00    +0.310 C 
ATOM     11  O   UNL     1       8.828   3.657  24.958  0.00  0.00    -0.251 OA
BRANCH  10  13
ATOM     12  C   UNL     1       7.155   4.094  22.821  0.00  0.00    +0.280 C 
ATOM     13  O   UNL     1       8.537   3.753  22.687  0.00  0.00    -0.468 OA
ENDBRANCH  10  13
ENDBRANCH   2  10
ENDBRANCH   1   6
BRANCH   1  14
ATOM     14  N   UNL     1       8.878  -3.163  24.733  0.00  0.00    -0.178 NA
ATOM     15  H   UNL     1       9.001  -2.663  25.613  0.00  0.00    +0.149 HD
BRANCH  14  16
ATOM     16  S   UNL     1       8.853  -4.844  24.971  0.00  0.00    +0.059 S 
ATOM     17  O   UNL     1       9.983  -5.155  25.811  0.00  0.00    -0.153 OA
ATOM     18  O   UNL     1       8.593  -5.545  23.735  0.00  0.00    -0.153 OA
BRANCH  16  19
ATOM     19  C   UNL     1       7.399  -5.048  25.971  0.00  0.00    +0.106 A 
ATOM     20  C   UNL     1       6.431  -5.979  25.585  0.00  0.00    +0.037 A 
ATOM     21  C   UNL     1       5.283  -6.160  26.367  0.00  0.00    -0.016 A 
ATOM     22  C   UNL     1       5.128  -5.417  27.560  0.00  0.00    -0.018 A 
ATOM     23  C   UNL     1       3.964  -5.593  28.327  0.00  0.00    +0.008 A 
ATOM     24  C   UNL     1       2.967  -6.479  27.923  0.00  0.00    +0.001 A 
ATOM     25  C   UNL     1       3.126  -7.212  26.746  0.00  0.00    +0.001 A 
ATOM     26  C   UNL     1       6.138  -4.523  27.956  0.00  0.00    +0.010 A 
ATOM     27  C   UNL     1       4.283  -7.068  25.982  0.00  0.00    +0.008 A 
ATOM     28  C   UNL     1       7.273  -4.338  27.166  0.00  0.00    +0.029 A 
ENDBRANCH  16  19
ENDBRANCH  14  16
ENDBRANCH   1  14
BRANCH   1  29
ATOM     29  C   UNL     1       6.768  -1.811  24.573  0.00  0.00    +0.065 C 
BRANCH  29  30
ATOM     30  C   UNL     1       5.377  -2.405  24.745  0.00  0.00    -0.045 A 
ATOM     31  C   UNL     1       4.955  -3.414  23.847  0.00  0.00    +0.019 A 
ATOM     32  C   UNL     1       3.732  -4.084  24.028  0.00  0.00    +0.065 A 
ATOM     33  C   UNL     1       2.899  -3.728  25.088  0.00  0.00    +0.016 A 
ATOM     34  C   UNL     1       3.272  -2.692  25.939  0.00  0.00    +0.001 A 
ATOM     35  C   UNL     1       4.496  -2.039  25.767  0.00  0.00    +0.004 A 
BRANCH  32  36
ATOM     36  C   UNL     1       3.327  -5.215  23.141  0.00  0.00    +0.308 C 
ATOM     37  N   UNL     1       2.089  -5.501  22.890  0.00  0.00    -0.099 NA
ATOM     38  H   UNL     1       1.455  -4.907  23.429  0.00  0.00    +0.363 HD
ATOM     39  N   UNL     1       4.274  -5.998  22.550  0.00  0.00    -0.247 N 
ATOM     40  H   UNL     1       3.897  -6.547  21.783  0.00  0.00    +0.288 HD
ATOM     41  H   UNL     1       5.176  -5.584  22.355  0.00  0.00    +0.288 HD
ENDBRANCH  32  36
ENDBRANCH  29  30
ENDBRANCH   1  29
TORSDOF 9
ENDMDL
