MODEL 1
REMARK VINA RESULT:      -4.0      0.000      0.000
REMARK  Name = 
REMARK  7 active torsions:
REMARK  status: ('A' for Active; 'I' for Inactive)
REMARK    1  A    between atoms: N_1  and  O_2
REMARK    2  A    between atoms: O_2  and  C_3
REMARK    3  A    between atoms: C_3  and  C_4
REMARK    4  A    between atoms: C_4  and  CA_5
REMARK    5  A    between atoms: CA_5  and  N_7
REMARK    6  A    between atoms: CA_5  and  C_8
REMARK    7  A    between atoms: C_8  and  O_9
REMARK                            x       y       z     vdW  Elec       q    Type
REMARK                         _______ _______ _______ _____ _____    ______ ____
ROOT
ATOM      1  CA  UNL     1       7.815  -5.000  26.258  0.00  0.00    +0.163 C 
ENDROOT
BRANCH   1   2
ATOM      2  N   UNL     1       8.047  -5.892  27.432  0.00  0.00    -0.318 NA
ATOM      3  H1  UNL     1       7.382  -6.672  27.361  0.00  0.00    +0.119 HD
ATOM      4  H2  UNL     1       8.957  -6.346  27.309  0.00  0.00    +0.119 HD
ENDBRANCH   1   2
BRANCH   1   5
ATOM      5  C   UNL     1       8.869  -5.330  25.194  0.00  0.00    +0.322 C 
ATOM      6  OXT UNL     1       8.677  -5.347  23.988  0.00  0.00    -0.249 OA
BRANCH   5   7
ATOM      7  O   UNL     1      10.064  -5.641  25.766  0.00  0.00    -0.480 OA
ATOM      8  H   UNL     1      10.121  -5.099  26.591  0.00  0.00    +0.295 HD
ENDBRANCH   5   7
ENDBRANCH   1   5
BRANCH   1   9
ATOM      9  C   UNL     1       6.428  -5.218  25.641  0.00  0.00    +0.060 C 
BRANCH   9  10
ATOM     10  C   UNL     1       5.355  -5.610  26.649  0.00  0.00    +0.187 C 
BRANCH  10  11
ATOM     11  O   UNL     1       5.332  -7.036  26.778  0.00  0.00    -0.302 OA
BRANCH  11  12
ATOM     12  N   UNL     1       5.367  -7.367  28.195  0.00  0.00    -0.215 NA
ATOM     13  H   UNL     1       4.407  -7.168  28.477  0.00  0.00    +0.150 HD
ATOM     14  H   UNL     1       5.437  -8.387  28.158  0.00  0.00    +0.150 HD
ENDBRANCH  11  12
ENDBRANCH  10  11
ENDBRANCH   9  10
ENDBRANCH   1   9
TORSDOF 7
ENDMDL
MODEL 2
REMARK VINA RESULT:      -3.9      6.648      8.023
REMARK  Name = 
REMARK  7 active torsions:
REMARK  status: ('A' for Active; 'I' for Inactive)
REMARK    1  A    between atoms: N_1  and  O_2
REMARK    2  A    between atoms: O_2  and  C_3
REMARK    3  A    between atoms: C_3  and  C_4
REMARK    4  A    between atoms: C_4  and  CA_5
REMARK    5  A    between atoms: CA_5  and  N_7
REMARK    6  A    between atoms: CA_5  and  C_8
REMARK    7  A    between atoms: C_8  and  O_9
REMARK                            x       y       z     vdW  Elec       q    Type
REMARK                         _______ _______ _______ _____ _____    ______ ____
ROOT
ATOM      1  CA  UNL     1       9.608  -0.480  23.864  0.00  0.00    +0.163 C 
ENDROOT
BRANCH   1   2
ATOM      2  N   UNL     1       8.290   0.058  23.413  0.00  0.00    -0.318 NA
ATOM      3  H1  UNL     1       7.575  -0.307  24.053  0.00  0.00    +0.119 HD
ATOM      4  H2  UNL     1       8.280   1.066  23.599  0.00  0.00    +0.119 HD
ENDBRANCH   1   2
BRANCH   1   5
ATOM      5  C   UNL     1      10.101  -1.478  22.809  0.00  0.00    +0.322 C 
ATOM      6  OXT UNL     1      10.556  -2.587  23.041  0.00  0.00    -0.249 OA
BRANCH   5   7
ATOM      7  O   UNL     1      10.000  -0.958  21.555  0.00  0.00    -0.480 OA
ATOM      8  H   UNL     1      10.903  -1.028  21.158  0.00  0.00    +0.295 HD
ENDBRANCH   5   7
ENDBRANCH   1   5
BRANCH   1   9
ATOM      9  C   UNL     1      10.659   0.627  24.004  0.00  0.00    +0.060 C 
BRANCH   9  10
ATOM     10  C   UNL     1      10.229   1.969  23.426  0.00  0.00    +0.187 C 
BRANCH  10  11
ATOM     11  O   UNL     1      10.400   1.943  22.004  0.00  0.00    -0.302 OA
BRANCH  11  12
ATOM     12  N   UNL     1       9.090   2.062  21.383  0.00  0.00    -0.215 NA
ATOM     13  H   UNL     1       9.128   1.327  20.676  0.00  0.00    +0.150 HD
ATOM     14  H   UNL     1       8.486   1.700  22.125  0.00  0.00    +0.150 HD
ENDBRANCH  11  12
ENDBRANCH  10  11
ENDBRANCH   9  10
ENDBRANCH   1   9
TORSDOF 7
ENDMDL
MODEL 3
REMARK VINA RESULT:      -3.8      2.197      3.835
REMARK  Name = 
REMARK  7 active torsions:
REMARK  status: ('A' for Active; 'I' for Inactive)
REMARK    1  A    between atoms: N_1  and  O_2
REMARK    2  A    between atoms: O_2  and  C_3
REMARK    3  A    between atoms: C_3  and  C_4
REMARK    4  A    between atoms: C_4  and  CA_5
REMARK    5  A    between atoms: CA_5  and  N_7
REMARK    6  A    between atoms: CA_5  and  C_8
REMARK    7  A    between atoms: C_8  and  O_9
REMARK                            x       y       z     vdW  Elec       q    Type
REMARK                         _______ _______ _______ _____ _____    ______ ____
ROOT
ATOM      1  CA  UNL     1       6.841  -4.375  26.079  0.00  0.00    +0.163 C 
ENDROOT
BRANCH   1   2
ATOM      2  N   UNL     1       6.335  -5.294  25.017  0.00  0.00    -0.318 NA
ATOM      3  H1  UNL     1       5.626  -5.899  25.448  0.00  0.00    +0.119 HD
ATOM      4  H2  UNL     1       5.794  -4.736  24.348  0.00  0.00    +0.119 HD
ENDBRANCH   1   2
BRANCH   1   5
ATOM      5  C   UNL     1       7.062  -5.197  27.354  0.00  0.00    +0.322 C 
ATOM      6  OXT UNL     1       6.446  -5.062  28.400  0.00  0.00    -0.249 OA
BRANCH   5   7
ATOM      7  O   UNL     1       8.072  -6.095  27.192  0.00  0.00    -0.480 OA
ATOM      8  H   UNL     1       8.705  -5.931  27.934  0.00  0.00    +0.295 HD
ENDBRANCH   5   7
ENDBRANCH   1   5
BRANCH   1   9
ATOM      9  C   UNL     1       8.176  -3.730  25.688  0.00  0.00    +0.060 C 
BRANCH   9  10
ATOM     10  C   UNL     1       8.697  -4.160  24.323  0.00  0.00    +0.187 C 
BRANCH  10  11
ATOM     11  O   UNL     1       9.225  -5.487  24.420  0.00  0.00    -0.302 OA
BRANCH  11  12
ATOM     12  N   UNL     1      10.326  -5.474  25.372  0.00  0.00    -0.215 NA
ATOM     13  H   UNL     1      10.038  -6.198  26.031  0.00  0.00    +0.150 HD
ATOM     14  H   UNL     1      11.074  -5.891  24.814  0.00  0.00    +0.150 HD
ENDBRANCH  11  12
ENDBRANCH  10  11
ENDBRANCH   9  10
ENDBRANCH   1   9
TORSDOF 7
ENDMDL
MODEL 4
REMARK VINA RESULT:      -3.7      6.690      7.742
REMARK  Name = 
REMARK  7 active torsions:
REMARK  status: ('A' for Active; 'I' for Inactive)
REMARK    1  A    between atoms: N_1  and  O_2
REMARK    2  A    between atoms: O_2  and  C_3
REMARK    3  A    between atoms: C_3  and  C_4
REMARK    4  A    between atoms: C_4  and  CA_5
REMARK    5  A    between atoms: CA_5  and  N_7
REMARK    6  A    between atoms: CA_5  and  C_8
REMARK    7  A    between atoms: C_8  and  O_9
REMARK                            x       y       z     vdW  Elec       q    Type
REMARK                         _______ _______ _______ _____ _____    ______ ____
ROOT
ATOM      1  CA  UNL     1      10.097   0.878  22.426  0.00  0.00    +0.163 C 
ENDROOT
BRANCH   1   2
ATOM      2  N   UNL     1       9.905   2.134  21.641  0.00  0.00    -0.318 NA
ATOM      3  H1  UNL     1       9.077   2.609  22.021  0.00  0.00    +0.119 HD
ATOM      4  H2  UNL     1      10.671   2.773  21.874  0.00  0.00    +0.119 HD
ENDBRANCH   1   2
BRANCH   1   5
ATOM      5  C   UNL     1      10.173   1.253  23.911  0.00  0.00    +0.322 C 
ATOM      6  OXT UNL     1       9.764   2.294  24.401  0.00  0.00    -0.249 OA
BRANCH   5   7
ATOM      7  O   UNL     1      10.794   0.279  24.632  0.00  0.00    -0.480 OA
ATOM      8  H   UNL     1      10.093  -0.129  25.199  0.00  0.00    +0.295 HD
ENDBRANCH   5   7
ENDBRANCH   1   5
BRANCH   1   9
ATOM      9  C   UNL     1       8.929  -0.097  22.236  0.00  0.00    +0.060 C 
BRANCH   9  10
ATOM     10  C   UNL     1       9.346  -1.482  21.762  0.00  0.00    +0.187 C 
BRANCH  10  11
ATOM     11  O   UNL     1      10.549  -1.866  22.437  0.00  0.00    -0.302 OA
BRANCH  11  12
ATOM     12  N   UNL     1      10.185  -2.616  23.630  0.00  0.00    -0.215 NA
ATOM     13  H   UNL     1      10.784  -2.187  24.335  0.00  0.00    +0.150 HD
ATOM     14  H   UNL     1       9.245  -2.255  23.811  0.00  0.00    +0.150 HD
ENDBRANCH  11  12
ENDBRANCH  10  11
ENDBRANCH   9  10
ENDBRANCH   1   9
TORSDOF 7
ENDMDL
MODEL 5
REMARK VINA RESULT:      -3.6      8.579      9.158
REMARK  Name = 
REMARK  7 active torsions:
REMARK  status: ('A' for Active; 'I' for Inactive)
REMARK    1  A    between atoms: N_1  and  O_2
REMARK    2  A    between atoms: O_2  and  C_3
REMARK    3  A    between atoms: C_3  and  C_4
REMARK    4  A    between atoms: C_4  and  CA_5
REMARK    5  A    between atoms: CA_5  and  N_7
REMARK    6  A    between atoms: CA_5  and  C_8
REMARK    7  A    between atoms: C_8  and  O_9
REMARK                            x       y       z     vdW  Elec       q    Type
REMARK                         _______ _______ _______ _____ _____    ______ ____
ROOT
ATOM      1  CA  UNL     1       9.984   1.156  22.513  0.00  0.00    +0.163 C 
ENDROOT
BRANCH   1   2
ATOM      2  N   UNL     1      10.338   2.379  21.733  0.00  0.00    -0.318 NA
ATOM      3  H1  UNL     1       9.570   2.555  21.074  0.00  0.00    +0.119 HD
ATOM      4  H2  UNL     1      10.292   3.183  22.368  0.00  0.00    +0.119 HD
ENDBRANCH   1   2
BRANCH   1   5
ATOM      5  C   UNL     1      10.264   1.439  23.994  0.00  0.00    +0.322 C 
ATOM      6  OXT UNL     1      10.895   0.712  24.746  0.00  0.00    -0.249 OA
BRANCH   5   7
ATOM      7  O   UNL     1       9.686   2.606  24.390  0.00  0.00    -0.480 OA
ATOM      8  H   UNL     1       9.449   2.482  25.343  0.00  0.00    +0.295 HD
ENDBRANCH   5   7
ENDBRANCH   1   5
BRANCH   1   9
ATOM      9  C   UNL     1       8.501   0.796  22.366  0.00  0.00    +0.060 C 
BRANCH   9  10
ATOM     10  C   UNL     1       7.662   1.876  21.697  0.00  0.00    +0.187 C 
BRANCH  10  11
ATOM     11  O   UNL     1       7.330   2.878  22.665  0.00  0.00    -0.302 OA
BRANCH  11  12
ATOM     12  N   UNL     1       7.914   4.140  22.237  0.00  0.00    -0.215 NA
ATOM     13  H   UNL     1       7.087   4.732  22.151  0.00  0.00    +0.150 HD
ATOM     14  H   UNL     1       8.382   4.443  23.094  0.00  0.00    +0.150 HD
ENDBRANCH  11  12
ENDBRANCH  10  11
ENDBRANCH   9  10
ENDBRANCH   1   9
TORSDOF 7
ENDMDL
MODEL 6
REMARK VINA RESULT:      -3.5      6.829      7.963
REMARK  Name = 
REMARK  7 active torsions:
REMARK  status: ('A' for Active; 'I' for Inactive)
REMARK    1  A    between atoms: N_1  and  O_2
REMARK    2  A    between atoms: O_2  and  C_3
REMARK    3  A    between atoms: C_3  and  C_4
REMARK    4  A    between atoms: C_4  and  CA_5
REMARK    5  A    between atoms: CA_5  and  N_7
REMARK    6  A    between atoms: CA_5  and  C_8
REMARK    7  A    between atoms: C_8  and  O_9
REMARK                            x       y       z     vdW  Elec       q    Type
REMARK                         _______ _______ _______ _____ _____    ______ ____
ROOT
ATOM      1  CA  UNL     1       9.149   0.926  22.914  0.00  0.00    +0.163 C 
ENDROOT
BRANCH   1   2
ATOM      2  N   UNL     1       9.592   0.159  24.116  0.00  0.00    -0.318 NA
ATOM      3  H1  UNL     1       8.760  -0.290  24.517  0.00  0.00    +0.119 HD
ATOM      4  H2  UNL     1      10.157  -0.633  23.795  0.00  0.00    +0.119 HD
ENDBRANCH   1   2
BRANCH   1   5
ATOM      5  C   UNL     1       9.976   2.216  22.841  0.00  0.00    +0.322 C 
ATOM      6  OXT UNL     1      10.179   2.980  23.772  0.00  0.00    -0.249 OA
BRANCH   5   7
ATOM      7  O   UNL     1      10.439   2.433  21.580  0.00  0.00    -0.480 OA
ATOM      8  H   UNL     1      11.421   2.326  21.629  0.00  0.00    +0.295 HD
ENDBRANCH   5   7
ENDBRANCH   1   5
BRANCH   1   9
ATOM      9  C   UNL     1       9.377   0.137  21.619  0.00  0.00    +0.060 C 
BRANCH   9  10
ATOM     10  C   UNL     1       9.310  -1.374  21.792  0.00  0.00    +0.187 C 
BRANCH  10  11
ATOM     11  O   UNL     1      10.572  -1.847  22.276  0.00  0.00    -0.302 OA
BRANCH  11  12
ATOM     12  N   UNL     1      10.326  -2.746  23.393  0.00  0.00    -0.215 NA
ATOM     13  H   UNL     1       9.676  -2.199  23.959  0.00  0.00    +0.150 HD
ATOM     14  H   UNL     1       9.759  -3.469  22.944  0.00  0.00    +0.150 HD
ENDBRANCH  11  12
ENDBRANCH  10  11
ENDBRANCH   9  10
ENDBRANCH   1   9
TORSDOF 7
ENDMDL
MODEL 7
REMARK VINA RESULT:      -3.5      6.053      7.469
REMARK  Name = 
REMARK  7 active torsions:
REMARK  status: ('A' for Active; 'I' for Inactive)
REMARK    1  A    between atoms: N_1  and  O_2
REMARK    2  A    between atoms: O_2  and  C_3
REMARK    3  A    between atoms: C_3  and  C_4
REMARK    4  A    between atoms: C_4  and  CA_5
REMARK    5  A    between atoms: CA_5  and  N_7
REMARK    6  A    between atoms: CA_5  and  C_8
REMARK    7  A    between atoms: C_8  and  O_9
REMARK                            x       y       z     vdW  Elec       q    Type
REMARK                         _______ _______ _______ _____ _____    ______ ____
ROOT
ATOM      1  CA  UNL     1       9.362  -1.151  22.982  0.00  0.00    +0.163 C 
ENDROOT
BRANCH   1   2
ATOM      2  N   UNL     1       9.985  -1.109  21.626  0.00  0.00    -0.318 NA
ATOM      3  H1  UNL     1      10.913  -1.542  21.701  0.00  0.00    +0.119 HD
ATOM      4  H2  UNL     1       9.470  -1.758  21.021  0.00  0.00    +0.119 HD
ENDBRANCH   1   2
BRANCH   1   5
ATOM      5  C   UNL     1       9.259  -2.619  23.413  0.00  0.00    +0.322 C 
ATOM      6  OXT UNL     1      10.097  -3.227  24.062  0.00  0.00    -0.249 OA
BRANCH   5   7
ATOM      7  O   UNL     1       8.114  -3.190  22.949  0.00  0.00    -0.480 OA
ATOM      8  H   UNL     1       7.573  -3.405  23.749  0.00  0.00    +0.295 HD
ENDBRANCH   5   7
ENDBRANCH   1   5
BRANCH   1   9
ATOM      9  C   UNL     1      10.207  -0.405  24.021  0.00  0.00    +0.060 C 
BRANCH   9  10
ATOM     10  C   UNL     1      10.422   1.069  23.705  0.00  0.00    +0.187 C 
BRANCH  10  11
ATOM     11  O   UNL     1       9.391   1.513  22.815  0.00  0.00    -0.302 OA
BRANCH  11  12
ATOM     12  N   UNL     1      10.020   2.134  21.659  0.00  0.00    -0.215 NA
ATOM     13  H   UNL     1      10.187   3.081  21.999  0.00  0.00    +0.150 HD
ATOM     14  H   UNL     1      10.934   1.675  21.661  0.00  0.00    +0.150 HD
ENDBRANCH  11  12
ENDBRANCH  10  11
ENDBRANCH   9  10
ENDBRANCH   1   9
TORSDOF 7
ENDMDL
MODEL 8
REMARK VINA RESULT:      -3.5      8.322      9.324
REMARK  Name = 
REMARK  7 active torsions:
REMARK  status: ('A' for Active; 'I' for Inactive)
REMARK    1  A    between atoms: N_1  and  O_2
REMARK    2  A    between atoms: O_2  and  C_3
REMARK    3  A    between atoms: C_3  and  C_4
REMARK    4  A    between atoms: C_4  and  CA_5
REMARK    5  A    between atoms: CA_5  and  N_7
REMARK    6  A    between atoms: CA_5  and  C_8
REMARK    7  A    between atoms: C_8  and  O_9
REMARK                            x       y       z     vdW  Elec       q    Type
REMARK                         _______ _______ _______ _____ _____    ______ ____
ROOT
ATOM      1  CA  UNL     1       8.376   1.162  22.926  0.00  0.00    +0.163 C 
ENDROOT
BRANCH   1   2
ATOM      2  N   UNL     1       7.459   2.229  22.427  0.00  0.00    -0.318 NA
ATOM      3  H1  UNL     1       7.943   2.714  21.661  0.00  0.00    +0.119 HD
ATOM      4  H2  UNL     1       6.670   1.774  21.956  0.00  0.00    +0.119 HD
ENDBRANCH   1   2
BRANCH   1   5
ATOM      5  C   UNL     1       9.482   0.958  21.884  0.00  0.00    +0.322 C 
ATOM      6  OXT UNL     1       9.866  -0.121  21.460  0.00  0.00    -0.249 OA
BRANCH   5   7
ATOM      7  O   UNL     1      10.023   2.147  21.501  0.00  0.00    -0.480 OA
ATOM      8  H   UNL     1       9.548   2.842  22.021  0.00  0.00    +0.295 HD
ENDBRANCH   5   7
ENDBRANCH   1   5
BRANCH   1   9
ATOM      9  C   UNL     1       9.035   1.553  24.255  0.00  0.00    +0.060 C 
BRANCH   9  10
ATOM     10  C   UNL     1       8.837   3.012  24.641  0.00  0.00    +0.187 C 
BRANCH  10  11
ATOM     11  O   UNL     1       9.773   3.820  23.920  0.00  0.00    -0.302 OA
BRANCH  11  12
ATOM     12  N   UNL     1       9.029   4.732  23.066  0.00  0.00    -0.215 NA
ATOM     13  H   UNL     1       8.080   4.623  23.424  0.00  0.00    +0.150 HD
ATOM     14  H   UNL     1       9.352   5.638  23.415  0.00  0.00    +0.150 HD
ENDBRANCH  11  12
ENDBRANCH  10  11
ENDBRANCH   9  10
ENDBRANCH   1   9
TORSDOF 7
ENDMDL
MODEL 9
REMARK VINA RESULT:      -3.4      8.202      9.184
REMARK  Name = 
REMARK  7 active torsions:
REMARK  status: ('A' for Active; 'I' for Inactive)
REMARK    1  A    between atoms: N_1  and  O_2
REMARK    2  A    between atoms: O_2  and  C_3
REMARK    3  A    between atoms: C_3  and  C_4
REMARK    4  A    between atoms: C_4  and  CA_5
REMARK    5  A    between atoms: CA_5  and  N_7
REMARK    6  A    between atoms: CA_5  and  C_8
REMARK    7  A    between atoms: C_8  and  O_9
REMARK                            x       y       z     vdW  Elec       q    Type
REMARK                         _______ _______ _______ _____ _____    ______ ____
ROOT
ATOM      1  CA  UNL     1      10.474   2.416  23.195  0.00  0.00    +0.163 C 
ENDROOT
BRANCH   1   2
ATOM      2  N   UNL     1      10.043   2.250  21.775  0.00  0.00    -0.318 NA
ATOM      3  H1  UNL     1       9.205   1.655  21.777  0.00  0.00    +0.119 HD
ATOM      4  H2  UNL     1       9.689   3.153  21.444  0.00  0.00    +0.119 HD
ENDBRANCH   1   2
BRANCH   1   5
ATOM      5  C   UNL     1       9.716   3.611  23.786  0.00  0.00    +0.322 C 
ATOM      6  OXT UNL     1       8.869   3.549  24.663  0.00  0.00    -0.249 OA
BRANCH   5   7
ATOM      7  O   UNL     1      10.082   4.774  23.180  0.00  0.00    -0.480 OA
ATOM      8  H   UNL     1       9.600   4.795  22.317  0.00  0.00    +0.295 HD
ENDBRANCH   5   7
ENDBRANCH   1   5
BRANCH   1   9
ATOM      9  C   UNL     1      10.150   1.178  24.039  0.00  0.00    +0.060 C 
BRANCH   9  10
ATOM     10  C   UNL     1      10.450  -0.144  23.344  0.00  0.00    +0.187 C 
BRANCH  10  11
ATOM     11  O   UNL     1       9.288  -0.569  22.623  0.00  0.00    -0.302 OA
BRANCH  11  12
ATOM     12  N   UNL     1       9.681  -0.864  21.254  0.00  0.00    -0.215 NA
ATOM     13  H   UNL     1       8.783  -0.837  20.770  0.00  0.00    +0.150 HD
ATOM     14  H   UNL     1      10.159   0.002  20.994  0.00  0.00    +0.150 HD
ENDBRANCH  11  12
ENDBRANCH  10  11
ENDBRANCH   9  10
ENDBRANCH   1   9
TORSDOF 7
ENDMDL
