MODEL 1
REMARK VINA RESULT:     -14.4      0.000      0.000
REMARK  Name = 
REMARK  1 active torsions:
REMARK  status: ('A' for Active; 'I' for Inactive)
REMARK    1  A    between atoms: C_25  and  C_27
REMARK                            x       y       z     vdW  Elec       q    Type
REMARK                         _______ _______ _______ _____ _____    ______ ____
ROOT
ATOM      1  C   UNL     1      13.265   5.579  22.159  0.00  0.00    +0.148 C 
ATOM      2  O   UNL     1      13.265   5.579  22.159  0.00  0.00    -0.368 OA
ATOM      3  C   UNL     1      13.265   5.579  22.159  0.00  0.00    +0.151 C 
ATOM      4  C   UNL     1      13.265   5.579  22.159  0.00  0.00    +0.078 C 
ATOM      5  C   UNL     1      13.265   5.579  22.159  0.00  0.00    +0.176 C 
ATOM      6  C   UNL     1      13.265   5.579  22.159  0.00  0.00    +0.052 C 
ATOM      7  O   UNL     1      13.265   5.579  22.159  0.00  0.00    -0.461 OA
ATOM      8  C   UNL     1      13.265   5.579  22.159  0.00  0.00    +0.318 C 
ATOM      9  O   UNL     1      13.265   5.579  22.159  0.00  0.00    -0.250 OA
ATOM     10  C   UNL     1      13.265   5.579  22.159  0.00  0.00    +0.169 C 
ATOM     11  C   UNL     1      13.265   5.579  22.159  0.00  0.00    +0.042 C 
ATOM     12  C   UNL     1      13.265   5.579  22.159  0.00  0.00    +0.151 C 
ATOM     13 CL   UNL     1      13.265   5.579  22.159  0.00  0.00    -0.113 Cl
ATOM     14  C   UNL     1      13.265   5.579  22.159  0.00  0.00    +0.158 C 
ATOM     15  O   UNL     1      13.265   5.579  22.159  0.00  0.00    -0.295 OA
ATOM     16  C   UNL     1      13.265   5.579  22.159  0.00  0.00    +0.151 C 
ATOM     17  C   UNL     1      13.265   5.579  22.159  0.00  0.00    +0.081 C 
ATOM     18  C   UNL     1      13.265   5.579  22.159  0.00  0.00    +0.134 C 
ATOM     19  O   UNL     1      13.265   5.579  22.159  0.00  0.00    -0.297 OA
ATOM     20  C   UNL     1      13.265   5.579  22.159  0.00  0.00    +0.074 C 
ATOM     21  C   UNL     1      13.265   5.579  22.159  0.00  0.00    +0.008 C 
ATOM     22  C   UNL     1      13.265   5.579  22.159  0.00  0.00    +0.003 C 
ATOM     23  C   UNL     1      13.265   5.579  22.159  0.00  0.00    +0.154 C 
ATOM     24  O   UNL     1      13.265   5.579  22.159  0.00  0.00    -0.296 OA
ATOM     25  C   UNL     1      13.265   5.579  22.159  0.00  0.00    +0.034 C 
ENDROOT
TORSDOF 0
ENDMDL
MODEL 2
REMARK VINA RESULT:     -13.8     13.334     13.334
REMARK  Name = 
REMARK  1 active torsions:
REMARK  status: ('A' for Active; 'I' for Inactive)
REMARK    1  A    between atoms: C_25  and  C_27
REMARK                            x       y       z     vdW  Elec       q    Type
REMARK                         _______ _______ _______ _____ _____    ______ ____
ROOT
ATOM      1  C   UNL     1       6.242  -5.694  20.996  0.00  0.00    +0.148 C 
ATOM      2  O   UNL     1       6.242  -5.694  20.996  0.00  0.00    -0.368 OA
ATOM      3  C   UNL     1       6.242  -5.694  20.996  0.00  0.00    +0.151 C 
ATOM      4  C   UNL     1       6.242  -5.694  20.996  0.00  0.00    +0.078 C 
ATOM      5  C   UNL     1       6.242  -5.694  20.996  0.00  0.00    +0.176 C 
ATOM      6  C   UNL     1       6.242  -5.694  20.996  0.00  0.00    +0.052 C 
ATOM      7  O   UNL     1       6.242  -5.694  20.996  0.00  0.00    -0.461 OA
ATOM      8  C   UNL     1       6.242  -5.694  20.996  0.00  0.00    +0.318 C 
ATOM      9  O   UNL     1       6.242  -5.694  20.996  0.00  0.00    -0.250 OA
ATOM     10  C   UNL     1       6.242  -5.694  20.996  0.00  0.00    +0.169 C 
ATOM     11  C   UNL     1       6.242  -5.694  20.996  0.00  0.00    +0.042 C 
ATOM     12  C   UNL     1       6.242  -5.694  20.996  0.00  0.00    +0.151 C 
ATOM     13 CL   UNL     1       6.242  -5.694  20.996  0.00  0.00    -0.113 Cl
ATOM     14  C   UNL     1       6.242  -5.694  20.996  0.00  0.00    +0.158 C 
ATOM     15  O   UNL     1       6.242  -5.694  20.996  0.00  0.00    -0.295 OA
ATOM     16  C   UNL     1       6.242  -5.694  20.996  0.00  0.00    +0.151 C 
ATOM     17  C   UNL     1       6.242  -5.694  20.996  0.00  0.00    +0.081 C 
ATOM     18  C   UNL     1       6.242  -5.694  20.996  0.00  0.00    +0.134 C 
ATOM     19  O   UNL     1       6.242  -5.694  20.996  0.00  0.00    -0.297 OA
ATOM     20  C   UNL     1       6.242  -5.694  20.996  0.00  0.00    +0.074 C 
ATOM     21  C   UNL     1       6.242  -5.694  20.996  0.00  0.00    +0.008 C 
ATOM     22  C   UNL     1       6.242  -5.694  20.996  0.00  0.00    +0.003 C 
ATOM     23  C   UNL     1       6.242  -5.694  20.996  0.00  0.00    +0.154 C 
ATOM     24  O   UNL     1       6.242  -5.694  20.996  0.00  0.00    -0.296 OA
ATOM     25  C   UNL     1       6.242  -5.694  20.996  0.00  0.00    +0.034 C 
ENDROOT
TORSDOF 0
ENDMDL
MODEL 3
REMARK VINA RESULT:     -13.7     10.588     10.588
REMARK  Name = 
REMARK  1 active torsions:
REMARK  status: ('A' for Active; 'I' for Inactive)
REMARK    1  A    between atoms: C_25  and  C_27
REMARK                            x       y       z     vdW  Elec       q    Type
REMARK                         _______ _______ _______ _____ _____    ______ ____
ROOT
ATOM      1  C   UNL     1      20.535  -1.557  25.044  0.00  0.00    +0.148 C 
ATOM      2  O   UNL     1      20.535  -1.557  25.044  0.00  0.00    -0.368 OA
ATOM      3  C   UNL     1      20.535  -1.557  25.044  0.00  0.00    +0.151 C 
ATOM      4  C   UNL     1      20.535  -1.557  25.044  0.00  0.00    +0.078 C 
ATOM      5  C   UNL     1      20.535  -1.557  25.044  0.00  0.00    +0.176 C 
ATOM      6  C   UNL     1      20.535  -1.557  25.044  0.00  0.00    +0.052 C 
ATOM      7  O   UNL     1      20.535  -1.557  25.044  0.00  0.00    -0.461 OA
ATOM      8  C   UNL     1      20.535  -1.557  25.044  0.00  0.00    +0.318 C 
ATOM      9  O   UNL     1      20.535  -1.557  25.044  0.00  0.00    -0.250 OA
ATOM     10  C   UNL     1      20.535  -1.557  25.044  0.00  0.00    +0.169 C 
ATOM     11  C   UNL     1      20.535  -1.557  25.044  0.00  0.00    +0.042 C 
ATOM     12  C   UNL     1      20.535  -1.557  25.044  0.00  0.00    +0.151 C 
ATOM     13 CL   UNL     1      20.535  -1.557  25.044  0.00  0.00    -0.113 Cl
ATOM     14  C   UNL     1      20.535  -1.557  25.044  0.00  0.00    +0.158 C 
ATOM     15  O   UNL     1      20.535  -1.557  25.044  0.00  0.00    -0.295 OA
ATOM     16  C   UNL     1      20.535  -1.557  25.044  0.00  0.00    +0.151 C 
ATOM     17  C   UNL     1      20.535  -1.557  25.044  0.00  0.00    +0.081 C 
ATOM     18  C   UNL     1      20.535  -1.557  25.044  0.00  0.00    +0.134 C 
ATOM     19  O   UNL     1      20.535  -1.557  25.044  0.00  0.00    -0.297 OA
ATOM     20  C   UNL     1      20.535  -1.557  25.044  0.00  0.00    +0.074 C 
ATOM     21  C   UNL     1      20.535  -1.557  25.044  0.00  0.00    +0.008 C 
ATOM     22  C   UNL     1      20.535  -1.557  25.044  0.00  0.00    +0.003 C 
ATOM     23  C   UNL     1      20.535  -1.557  25.044  0.00  0.00    +0.154 C 
ATOM     24  O   UNL     1      20.535  -1.557  25.044  0.00  0.00    -0.296 OA
ATOM     25  C   UNL     1      20.535  -1.557  25.044  0.00  0.00    +0.034 C 
ENDROOT
TORSDOF 0
ENDMDL
MODEL 4
REMARK VINA RESULT:     -13.5      5.172      5.172
REMARK  Name = 
REMARK  1 active torsions:
REMARK  status: ('A' for Active; 'I' for Inactive)
REMARK    1  A    between atoms: C_25  and  C_27
REMARK                            x       y       z     vdW  Elec       q    Type
REMARK                         _______ _______ _______ _____ _____    ______ ____
ROOT
ATOM      1  C   UNL     1       9.964   1.602  22.002  0.00  0.00    +0.148 C 
ATOM      2  O   UNL     1       9.964   1.602  22.002  0.00  0.00    -0.368 OA
ATOM      3  C   UNL     1       9.964   1.602  22.002  0.00  0.00    +0.151 C 
ATOM      4  C   UNL     1       9.964   1.602  22.002  0.00  0.00    +0.078 C 
ATOM      5  C   UNL     1       9.964   1.602  22.002  0.00  0.00    +0.176 C 
ATOM      6  C   UNL     1       9.964   1.602  22.002  0.00  0.00    +0.052 C 
ATOM      7  O   UNL     1       9.964   1.602  22.002  0.00  0.00    -0.461 OA
ATOM      8  C   UNL     1       9.964   1.602  22.002  0.00  0.00    +0.318 C 
ATOM      9  O   UNL     1       9.964   1.602  22.002  0.00  0.00    -0.250 OA
ATOM     10  C   UNL     1       9.964   1.602  22.002  0.00  0.00    +0.169 C 
ATOM     11  C   UNL     1       9.964   1.602  22.002  0.00  0.00    +0.042 C 
ATOM     12  C   UNL     1       9.964   1.602  22.002  0.00  0.00    +0.151 C 
ATOM     13 CL   UNL     1       9.964   1.602  22.002  0.00  0.00    -0.113 Cl
ATOM     14  C   UNL     1       9.964   1.602  22.002  0.00  0.00    +0.158 C 
ATOM     15  O   UNL     1       9.964   1.602  22.002  0.00  0.00    -0.295 OA
ATOM     16  C   UNL     1       9.964   1.602  22.002  0.00  0.00    +0.151 C 
ATOM     17  C   UNL     1       9.964   1.602  22.002  0.00  0.00    +0.081 C 
ATOM     18  C   UNL     1       9.964   1.602  22.002  0.00  0.00    +0.134 C 
ATOM     19  O   UNL     1       9.964   1.602  22.002  0.00  0.00    -0.297 OA
ATOM     20  C   UNL     1       9.964   1.602  22.002  0.00  0.00    +0.074 C 
ATOM     21  C   UNL     1       9.964   1.602  22.002  0.00  0.00    +0.008 C 
ATOM     22  C   UNL     1       9.964   1.602  22.002  0.00  0.00    +0.003 C 
ATOM     23  C   UNL     1       9.964   1.602  22.002  0.00  0.00    +0.154 C 
ATOM     24  O   UNL     1       9.964   1.602  22.002  0.00  0.00    -0.296 OA
ATOM     25  C   UNL     1       9.964   1.602  22.002  0.00  0.00    +0.034 C 
ENDROOT
TORSDOF 0
ENDMDL
MODEL 5
REMARK VINA RESULT:     -13.5      6.129      6.129
REMARK  Name = 
REMARK  1 active torsions:
REMARK  status: ('A' for Active; 'I' for Inactive)
REMARK    1  A    between atoms: C_25  and  C_27
REMARK                            x       y       z     vdW  Elec       q    Type
REMARK                         _______ _______ _______ _____ _____    ______ ____
ROOT
ATOM      1  C   UNL     1      10.812   0.577  24.711  0.00  0.00    +0.148 C 
ATOM      2  O   UNL     1      10.812   0.577  24.711  0.00  0.00    -0.368 OA
ATOM      3  C   UNL     1      10.812   0.577  24.711  0.00  0.00    +0.151 C 
ATOM      4  C   UNL     1      10.812   0.577  24.711  0.00  0.00    +0.078 C 
ATOM      5  C   UNL     1      10.812   0.577  24.711  0.00  0.00    +0.176 C 
ATOM      6  C   UNL     1      10.812   0.577  24.711  0.00  0.00    +0.052 C 
ATOM      7  O   UNL     1      10.812   0.577  24.711  0.00  0.00    -0.461 OA
ATOM      8  C   UNL     1      10.812   0.577  24.711  0.00  0.00    +0.318 C 
ATOM      9  O   UNL     1      10.812   0.577  24.711  0.00  0.00    -0.250 OA
ATOM     10  C   UNL     1      10.812   0.577  24.711  0.00  0.00    +0.169 C 
ATOM     11  C   UNL     1      10.812   0.577  24.711  0.00  0.00    +0.042 C 
ATOM     12  C   UNL     1      10.812   0.577  24.711  0.00  0.00    +0.151 C 
ATOM     13 CL   UNL     1      10.812   0.577  24.711  0.00  0.00    -0.113 Cl
ATOM     14  C   UNL     1      10.812   0.577  24.711  0.00  0.00    +0.158 C 
ATOM     15  O   UNL     1      10.812   0.577  24.711  0.00  0.00    -0.295 OA
ATOM     16  C   UNL     1      10.812   0.577  24.711  0.00  0.00    +0.151 C 
ATOM     17  C   UNL     1      10.812   0.577  24.711  0.00  0.00    +0.081 C 
ATOM     18  C   UNL     1      10.812   0.577  24.711  0.00  0.00    +0.134 C 
ATOM     19  O   UNL     1      10.812   0.577  24.711  0.00  0.00    -0.297 OA
ATOM     20  C   UNL     1      10.812   0.577  24.711  0.00  0.00    +0.074 C 
ATOM     21  C   UNL     1      10.812   0.577  24.711  0.00  0.00    +0.008 C 
ATOM     22  C   UNL     1      10.812   0.577  24.711  0.00  0.00    +0.003 C 
ATOM     23  C   UNL     1      10.812   0.577  24.711  0.00  0.00    +0.154 C 
ATOM     24  O   UNL     1      10.812   0.577  24.711  0.00  0.00    -0.296 OA
ATOM     25  C   UNL     1      10.812   0.577  24.711  0.00  0.00    +0.034 C 
ENDROOT
TORSDOF 0
ENDMDL
MODEL 6
REMARK VINA RESULT:     -13.3      6.811      6.811
REMARK  Name = 
REMARK  1 active torsions:
REMARK  status: ('A' for Active; 'I' for Inactive)
REMARK    1  A    between atoms: C_25  and  C_27
REMARK                            x       y       z     vdW  Elec       q    Type
REMARK                         _______ _______ _______ _____ _____    ______ ____
ROOT
ATOM      1  C   UNL     1       9.443  -0.017  21.485  0.00  0.00    +0.148 C 
ATOM      2  O   UNL     1       9.443  -0.017  21.485  0.00  0.00    -0.368 OA
ATOM      3  C   UNL     1       9.443  -0.017  21.485  0.00  0.00    +0.151 C 
ATOM      4  C   UNL     1       9.443  -0.017  21.485  0.00  0.00    +0.078 C 
ATOM      5  C   UNL     1       9.443  -0.017  21.485  0.00  0.00    +0.176 C 
ATOM      6  C   UNL     1       9.443  -0.017  21.485  0.00  0.00    +0.052 C 
ATOM      7  O   UNL     1       9.443  -0.017  21.485  0.00  0.00    -0.461 OA
ATOM      8  C   UNL     1       9.443  -0.017  21.485  0.00  0.00    +0.318 C 
ATOM      9  O   UNL     1       9.443  -0.017  21.485  0.00  0.00    -0.250 OA
ATOM     10  C   UNL     1       9.443  -0.017  21.485  0.00  0.00    +0.169 C 
ATOM     11  C   UNL     1       9.443  -0.017  21.485  0.00  0.00    +0.042 C 
ATOM     12  C   UNL     1       9.443  -0.017  21.485  0.00  0.00    +0.151 C 
ATOM     13 CL   UNL     1       9.443  -0.017  21.485  0.00  0.00    -0.113 Cl
ATOM     14  C   UNL     1       9.443  -0.017  21.485  0.00  0.00    +0.158 C 
ATOM     15  O   UNL     1       9.443  -0.017  21.485  0.00  0.00    -0.295 OA
ATOM     16  C   UNL     1       9.443  -0.017  21.485  0.00  0.00    +0.151 C 
ATOM     17  C   UNL     1       9.443  -0.017  21.485  0.00  0.00    +0.081 C 
ATOM     18  C   UNL     1       9.443  -0.017  21.485  0.00  0.00    +0.134 C 
ATOM     19  O   UNL     1       9.443  -0.017  21.485  0.00  0.00    -0.297 OA
ATOM     20  C   UNL     1       9.443  -0.017  21.485  0.00  0.00    +0.074 C 
ATOM     21  C   UNL     1       9.443  -0.017  21.485  0.00  0.00    +0.008 C 
ATOM     22  C   UNL     1       9.443  -0.017  21.485  0.00  0.00    +0.003 C 
ATOM     23  C   UNL     1       9.443  -0.017  21.485  0.00  0.00    +0.154 C 
ATOM     24  O   UNL     1       9.443  -0.017  21.485  0.00  0.00    -0.296 OA
ATOM     25  C   UNL     1       9.443  -0.017  21.485  0.00  0.00    +0.034 C 
ENDROOT
TORSDOF 0
ENDMDL
MODEL 7
REMARK VINA RESULT:     -13.3      8.891      8.891
REMARK  Name = 
REMARK  1 active torsions:
REMARK  status: ('A' for Active; 'I' for Inactive)
REMARK    1  A    between atoms: C_25  and  C_27
REMARK                            x       y       z     vdW  Elec       q    Type
REMARK                         _______ _______ _______ _____ _____    ______ ____
ROOT
ATOM      1  C   UNL     1       9.889  -2.482  23.788  0.00  0.00    +0.148 C 
ATOM      2  O   UNL     1       9.889  -2.482  23.788  0.00  0.00    -0.368 OA
ATOM      3  C   UNL     1       9.889  -2.482  23.788  0.00  0.00    +0.151 C 
ATOM      4  C   UNL     1       9.889  -2.482  23.788  0.00  0.00    +0.078 C 
ATOM      5  C   UNL     1       9.889  -2.482  23.788  0.00  0.00    +0.176 C 
ATOM      6  C   UNL     1       9.889  -2.482  23.788  0.00  0.00    +0.052 C 
ATOM      7  O   UNL     1       9.889  -2.482  23.788  0.00  0.00    -0.461 OA
ATOM      8  C   UNL     1       9.889  -2.482  23.788  0.00  0.00    +0.318 C 
ATOM      9  O   UNL     1       9.889  -2.482  23.788  0.00  0.00    -0.250 OA
ATOM     10  C   UNL     1       9.889  -2.482  23.788  0.00  0.00    +0.169 C 
ATOM     11  C   UNL     1       9.889  -2.482  23.788  0.00  0.00    +0.042 C 
ATOM     12  C   UNL     1       9.889  -2.482  23.788  0.00  0.00    +0.151 C 
ATOM     13 CL   UNL     1       9.889  -2.482  23.788  0.00  0.00    -0.113 Cl
ATOM     14  C   UNL     1       9.889  -2.482  23.788  0.00  0.00    +0.158 C 
ATOM     15  O   UNL     1       9.889  -2.482  23.788  0.00  0.00    -0.295 OA
ATOM     16  C   UNL     1       9.889  -2.482  23.788  0.00  0.00    +0.151 C 
ATOM     17  C   UNL     1       9.889  -2.482  23.788  0.00  0.00    +0.081 C 
ATOM     18  C   UNL     1       9.889  -2.482  23.788  0.00  0.00    +0.134 C 
ATOM     19  O   UNL     1       9.889  -2.482  23.788  0.00  0.00    -0.297 OA
ATOM     20  C   UNL     1       9.889  -2.482  23.788  0.00  0.00    +0.074 C 
ATOM     21  C   UNL     1       9.889  -2.482  23.788  0.00  0.00    +0.008 C 
ATOM     22  C   UNL     1       9.889  -2.482  23.788  0.00  0.00    +0.003 C 
ATOM     23  C   UNL     1       9.889  -2.482  23.788  0.00  0.00    +0.154 C 
ATOM     24  O   UNL     1       9.889  -2.482  23.788  0.00  0.00    -0.296 OA
ATOM     25  C   UNL     1       9.889  -2.482  23.788  0.00  0.00    +0.034 C 
ENDROOT
TORSDOF 0
ENDMDL
MODEL 8
REMARK VINA RESULT:     -13.2      7.731      7.731
REMARK  Name = 
REMARK  1 active torsions:
REMARK  status: ('A' for Active; 'I' for Inactive)
REMARK    1  A    between atoms: C_25  and  C_27
REMARK                            x       y       z     vdW  Elec       q    Type
REMARK                         _______ _______ _______ _____ _____    ______ ____
ROOT
ATOM      1  C   UNL     1      10.304  -1.550  22.563  0.00  0.00    +0.148 C 
ATOM      2  O   UNL     1      10.304  -1.550  22.563  0.00  0.00    -0.368 OA
ATOM      3  C   UNL     1      10.304  -1.550  22.563  0.00  0.00    +0.151 C 
ATOM      4  C   UNL     1      10.304  -1.550  22.563  0.00  0.00    +0.078 C 
ATOM      5  C   UNL     1      10.304  -1.550  22.563  0.00  0.00    +0.176 C 
ATOM      6  C   UNL     1      10.304  -1.550  22.563  0.00  0.00    +0.052 C 
ATOM      7  O   UNL     1      10.304  -1.550  22.563  0.00  0.00    -0.461 OA
ATOM      8  C   UNL     1      10.304  -1.550  22.563  0.00  0.00    +0.318 C 
ATOM      9  O   UNL     1      10.304  -1.550  22.563  0.00  0.00    -0.250 OA
ATOM     10  C   UNL     1      10.304  -1.550  22.563  0.00  0.00    +0.169 C 
ATOM     11  C   UNL     1      10.304  -1.550  22.563  0.00  0.00    +0.042 C 
ATOM     12  C   UNL     1      10.304  -1.550  22.563  0.00  0.00    +0.151 C 
ATOM     13 CL   UNL     1      10.304  -1.550  22.563  0.00  0.00    -0.113 Cl
ATOM     14  C   UNL     1      10.304  -1.550  22.563  0.00  0.00    +0.158 C 
ATOM     15  O   UNL     1      10.304  -1.550  22.563  0.00  0.00    -0.295 OA
ATOM     16  C   UNL     1      10.304  -1.550  22.563  0.00  0.00    +0.151 C 
ATOM     17  C   UNL     1      10.304  -1.550  22.563  0.00  0.00    +0.081 C 
ATOM     18  C   UNL     1      10.304  -1.550  22.563  0.00  0.00    +0.134 C 
ATOM     19  O   UNL     1      10.304  -1.550  22.563  0.00  0.00    -0.297 OA
ATOM     20  C   UNL     1      10.304  -1.550  22.563  0.00  0.00    +0.074 C 
ATOM     21  C   UNL     1      10.304  -1.550  22.563  0.00  0.00    +0.008 C 
ATOM     22  C   UNL     1      10.304  -1.550  22.563  0.00  0.00    +0.003 C 
ATOM     23  C   UNL     1      10.304  -1.550  22.563  0.00  0.00    +0.154 C 
ATOM     24  O   UNL     1      10.304  -1.550  22.563  0.00  0.00    -0.296 OA
ATOM     25  C   UNL     1      10.304  -1.550  22.563  0.00  0.00    +0.034 C 
ENDROOT
TORSDOF 0
ENDMDL
MODEL 9
REMARK VINA RESULT:     -12.2     11.692     11.692
REMARK  Name = 
REMARK  1 active torsions:
REMARK  status: ('A' for Active; 'I' for Inactive)
REMARK    1  A    between atoms: C_25  and  C_27
REMARK                            x       y       z     vdW  Elec       q    Type
REMARK                         _______ _______ _______ _____ _____    ______ ____
ROOT
ATOM      1  C   UNL     1       9.702  -5.058  25.454  0.00  0.00    +0.148 C 
ATOM      2  O   UNL     1       9.702  -5.058  25.454  0.00  0.00    -0.368 OA
ATOM      3  C   UNL     1       9.702  -5.058  25.454  0.00  0.00    +0.151 C 
ATOM      4  C   UNL     1       9.702  -5.058  25.454  0.00  0.00    +0.078 C 
ATOM      5  C   UNL     1       9.702  -5.058  25.454  0.00  0.00    +0.176 C 
ATOM      6  C   UNL     1       9.702  -5.058  25.454  0.00  0.00    +0.052 C 
ATOM      7  O   UNL     1       9.702  -5.058  25.454  0.00  0.00    -0.461 OA
ATOM      8  C   UNL     1       9.702  -5.058  25.454  0.00  0.00    +0.318 C 
ATOM      9  O   UNL     1       9.702  -5.058  25.454  0.00  0.00    -0.250 OA
ATOM     10  C   UNL     1       9.702  -5.058  25.454  0.00  0.00    +0.169 C 
ATOM     11  C   UNL     1       9.702  -5.058  25.454  0.00  0.00    +0.042 C 
ATOM     12  C   UNL     1       9.702  -5.058  25.454  0.00  0.00    +0.151 C 
ATOM     13 CL   UNL     1       9.702  -5.058  25.454  0.00  0.00    -0.113 Cl
ATOM     14  C   UNL     1       9.702  -5.058  25.454  0.00  0.00    +0.158 C 
ATOM     15  O   UNL     1       9.702  -5.058  25.454  0.00  0.00    -0.295 OA
ATOM     16  C   UNL     1       9.702  -5.058  25.454  0.00  0.00    +0.151 C 
ATOM     17  C   UNL     1       9.702  -5.058  25.454  0.00  0.00    +0.081 C 
ATOM     18  C   UNL     1       9.702  -5.058  25.454  0.00  0.00    +0.134 C 
ATOM     19  O   UNL     1       9.702  -5.058  25.454  0.00  0.00    -0.297 OA
ATOM     20  C   UNL     1       9.702  -5.058  25.454  0.00  0.00    +0.074 C 
ATOM     21  C   UNL     1       9.702  -5.058  25.454  0.00  0.00    +0.008 C 
ATOM     22  C   UNL     1       9.702  -5.058  25.454  0.00  0.00    +0.003 C 
ATOM     23  C   UNL     1       9.702  -5.058  25.454  0.00  0.00    +0.154 C 
ATOM     24  O   UNL     1       9.702  -5.058  25.454  0.00  0.00    -0.296 OA
ATOM     25  C   UNL     1       9.702  -5.058  25.454  0.00  0.00    +0.034 C 
ENDROOT
TORSDOF 0
ENDMDL
