MODEL 1
REMARK VINA RESULT:      -6.3      0.000      0.000
REMARK  Name = 
REMARK  6 active torsions:
REMARK  status: ('A' for Active; 'I' for Inactive)
REMARK    1  A    between atoms: C_1  and  C_2
REMARK    2  A    between atoms: C_4  and  C_10
REMARK    3  A    between atoms: C_6  and  C_7
REMARK    4  A    between atoms: C_8  and  O_9
REMARK    5  A    between atoms: N_12  and  C_13
REMARK    6  A    between atoms: C_17  and  O_18
REMARK                            x       y       z     vdW  Elec       q    Type
REMARK                         _______ _______ _______ _____ _____    ______ ____
ROOT
ATOM      1  C   UNL     1       9.712   0.864  23.271  0.00  0.00    +0.248 C 
ATOM      2  N   UNL     1       8.927   0.115  24.138  0.00  0.00    -0.281 N 
ATOM      3  H   UNL     1       8.549   0.580  24.954  0.00  0.00    +0.155 HD
ATOM      4  O   UNL     1      10.215   0.456  22.229  0.00  0.00    -0.270 OA
ENDROOT
BRANCH   1  11
ATOM      5  C   UNL     1       7.799   5.036  25.156  0.00  0.00    +0.047 C 
ATOM      6  C   UNL     1       8.964   4.340  24.509  0.00  0.00    -0.008 A 
ATOM      7  C   UNL     1      10.126   5.034  24.157  0.00  0.00    +0.123 A 
ATOM      8  C   UNL     1      11.204   4.382  23.529  0.00  0.00    -0.008 A 
ATOM      9  C   UNL     1      12.444   5.129  23.122  0.00  0.00    +0.047 C 
ATOM     10  C   UNL     1      11.103   3.002  23.257  0.00  0.00    +0.020 A 
ATOM     11  C   UNL     1       9.945   2.296  23.604  0.00  0.00    +0.038 A 
ATOM     12  C   UNL     1       8.886   2.974  24.226  0.00  0.00    +0.020 A 
BRANCH   7  13
ATOM     13  O   UNL     1      10.151   6.372  24.441  0.00  0.00    -0.506 OA
ATOM     14  H   UNL     1      10.345   6.882  23.641  0.00  0.00    +0.292 HD
ENDBRANCH   7  13
ENDBRANCH   1  11
BRANCH   2  15
ATOM     15  C   UNL     1       8.541  -1.239  23.941  0.00  0.00    +0.036 A 
ATOM     16  C   UNL     1       9.207  -2.231  24.674  0.00  0.00    +0.042 A 
ATOM     17  C   UNL     1       8.862  -3.583  24.524  0.00  0.00    +0.062 A 
ATOM     18 BR   UNL     1       9.810  -4.876  25.540  0.00  0.00    -0.046 Br
ATOM     19  C   UNL     1       7.846  -3.962  23.646  0.00  0.00    +0.145 A 
ATOM     20  C   UNL     1       7.178  -2.981  22.918  0.00  0.00    +0.062 A 
ATOM     21 BR   UNL     1       5.781  -3.438  21.719  0.00  0.00    -0.046 Br
ATOM     22  C   UNL     1       7.525  -1.633  23.064  0.00  0.00    +0.042 A 
BRANCH  19  23
ATOM     23  O   UNL     1       7.514  -5.283  23.507  0.00  0.00    -0.505 OA
ATOM     24  H   UNL     1       7.647  -5.718  24.369  0.00  0.00    +0.292 HD
ENDBRANCH  19  23
ENDBRANCH   2  15
TORSDOF 4
ENDMDL
MODEL 2
REMARK VINA RESULT:      -6.3      0.153      2.796
REMARK  Name = 
REMARK  6 active torsions:
REMARK  status: ('A' for Active; 'I' for Inactive)
REMARK    1  A    between atoms: C_1  and  C_2
REMARK    2  A    between atoms: C_4  and  C_10
REMARK    3  A    between atoms: C_6  and  C_7
REMARK    4  A    between atoms: C_8  and  O_9
REMARK    5  A    between atoms: N_12  and  C_13
REMARK    6  A    between atoms: C_17  and  O_18
REMARK                            x       y       z     vdW  Elec       q    Type
REMARK                         _______ _______ _______ _____ _____    ______ ____
ROOT
ATOM      1  C   UNL     1       9.595   0.889  23.335  0.00  0.00    +0.248 C 
ATOM      2  N   UNL     1       8.775   0.144  24.174  0.00  0.00    -0.281 N 
ATOM      3  H   UNL     1       8.293   0.632  24.918  0.00  0.00    +0.155 HD
ATOM      4  O   UNL     1      10.218   0.450  22.373  0.00  0.00    -0.270 OA
ENDROOT
BRANCH   1  11
ATOM      5  C   UNL     1      12.502   4.905  23.143  0.00  0.00    +0.047 C 
ATOM      6  C   UNL     1      11.177   4.300  23.515  0.00  0.00    -0.008 A 
ATOM      7  C   UNL     1      10.185   5.050  24.155  0.00  0.00    +0.123 A 
ATOM      8  C   UNL     1       8.955   4.473  24.523  0.00  0.00    -0.008 A 
ATOM      9  C   UNL     1       7.897   5.267  25.236  0.00  0.00    +0.047 C 
ATOM     10  C   UNL     1       8.726   3.111  24.233  0.00  0.00    +0.020 A 
ATOM     11  C   UNL     1       9.711   2.350  23.593  0.00  0.00    +0.038 A 
ATOM     12  C   UNL     1      10.928   2.953  23.242  0.00  0.00    +0.020 A 
BRANCH   7  13
ATOM     13  O   UNL     1      10.479   6.361  24.414  0.00  0.00    -0.506 OA
ATOM     14  H   UNL     1       9.688   6.909  24.314  0.00  0.00    +0.292 HD
ENDBRANCH   7  13
ENDBRANCH   1  11
BRANCH   2  15
ATOM     15  C   UNL     1       8.489  -1.241  24.032  0.00  0.00    +0.036 A 
ATOM     16  C   UNL     1       7.491  -1.621  23.124  0.00  0.00    +0.042 A 
ATOM     17  C   UNL     1       7.172  -2.975  22.939  0.00  0.00    +0.062 A 
ATOM     18 BR   UNL     1       5.804  -3.421  21.700  0.00  0.00    -0.046 Br
ATOM     19  C   UNL     1       7.848  -3.967  23.652  0.00  0.00    +0.145 A 
ATOM     20  C   UNL     1       8.842  -3.595  24.552  0.00  0.00    +0.062 A 
ATOM     21 BR   UNL     1       9.801  -4.902  25.540  0.00  0.00    -0.046 Br
ATOM     22  C   UNL     1       9.158  -2.245  24.740  0.00  0.00    +0.042 A 
BRANCH  19  23
ATOM     23  O   UNL     1       7.531  -5.286  23.463  0.00  0.00    -0.505 OA
ATOM     24  H   UNL     1       6.797  -5.506  24.065  0.00  0.00    +0.292 HD
ENDBRANCH  19  23
ENDBRANCH   2  15
TORSDOF 4
ENDMDL
MODEL 3
REMARK VINA RESULT:      -6.3      0.325      2.082
REMARK  Name = 
REMARK  6 active torsions:
REMARK  status: ('A' for Active; 'I' for Inactive)
REMARK    1  A    between atoms: C_1  and  C_2
REMARK    2  A    between atoms: C_4  and  C_10
REMARK    3  A    between atoms: C_6  and  C_7
REMARK    4  A    between atoms: C_8  and  O_9
REMARK    5  A    between atoms: N_12  and  C_13
REMARK    6  A    between atoms: C_17  and  O_18
REMARK                            x       y       z     vdW  Elec       q    Type
REMARK                         _______ _______ _______ _____ _____    ______ ____
ROOT
ATOM      1  C   UNL     1       9.660   0.868  23.227  0.00  0.00    +0.248 C 
ATOM      2  N   UNL     1       8.903   0.145  24.141  0.00  0.00    -0.281 N 
ATOM      3  H   UNL     1       8.512   0.644  24.930  0.00  0.00    +0.155 HD
ATOM      4  O   UNL     1      10.172   0.416  22.208  0.00  0.00    -0.270 OA
ENDROOT
BRANCH   1  11
ATOM      5  C   UNL     1       7.470   5.204  24.239  0.00  0.00    +0.047 C 
ATOM      6  C   UNL     1       8.734   4.447  23.943  0.00  0.00    -0.008 A 
ATOM      7  C   UNL     1       9.964   5.100  23.807  0.00  0.00    +0.123 A 
ATOM      8  C   UNL     1      11.140   4.389  23.506  0.00  0.00    -0.008 A 
ATOM      9  C   UNL     1      12.458   5.090  23.331  0.00  0.00    +0.047 C 
ATOM     10  C   UNL     1      11.070   2.990  23.343  0.00  0.00    +0.020 A 
ATOM     11  C   UNL     1       9.845   2.324  23.476  0.00  0.00    +0.038 A 
ATOM     12  C   UNL     1       8.689   3.060  23.773  0.00  0.00    +0.020 A 
BRANCH   7  13
ATOM     13  O   UNL     1       9.956   6.459  23.968  0.00  0.00    -0.506 OA
ATOM     14  H   UNL     1       9.048   6.781  24.060  0.00  0.00    +0.292 HD
ENDBRANCH   7  13
ENDBRANCH   1  11
BRANCH   2  15
ATOM     15  C   UNL     1       8.562  -1.230  24.025  0.00  0.00    +0.036 A 
ATOM     16  C   UNL     1       7.510  -1.581  23.168  0.00  0.00    +0.042 A 
ATOM     17  C   UNL     1       7.135  -2.924  23.010  0.00  0.00    +0.062 A 
ATOM     18 BR   UNL     1       5.696  -3.329  21.840  0.00  0.00    -0.046 Br
ATOM     19  C   UNL     1       7.808  -3.934  23.699  0.00  0.00    +0.145 A 
ATOM     20  C   UNL     1       8.856  -3.592  24.550  0.00  0.00    +0.062 A 
ATOM     21 BR   UNL     1       9.813  -4.924  25.503  0.00  0.00    -0.046 Br
ATOM     22  C   UNL     1       9.227  -2.252  24.711  0.00  0.00    +0.042 A 
BRANCH  19  23
ATOM     23  O   UNL     1       7.437  -5.242  23.538  0.00  0.00    -0.505 OA
ATOM     24  H   UNL     1       7.369  -5.418  22.582  0.00  0.00    +0.292 HD
ENDBRANCH  19  23
ENDBRANCH   2  15
TORSDOF 4
ENDMDL
MODEL 4
REMARK VINA RESULT:      -6.2      3.248      7.905
REMARK  Name = 
REMARK  6 active torsions:
REMARK  status: ('A' for Active; 'I' for Inactive)
REMARK    1  A    between atoms: C_1  and  C_2
REMARK    2  A    between atoms: C_4  and  C_10
REMARK    3  A    between atoms: C_6  and  C_7
REMARK    4  A    between atoms: C_8  and  O_9
REMARK    5  A    between atoms: N_12  and  C_13
REMARK    6  A    between atoms: C_17  and  O_18
REMARK                            x       y       z     vdW  Elec       q    Type
REMARK                         _______ _______ _______ _____ _____    ______ ____
ROOT
ATOM      1  C   UNL     1       9.403  -0.110  24.309  0.00  0.00    +0.248 C 
ATOM      2  N   UNL     1       8.990   0.887  23.434  0.00  0.00    -0.281 N 
ATOM      3  H   UNL     1       8.390   0.622  22.664  0.00  0.00    +0.155 HD
ATOM      4  O   UNL     1      10.103   0.056  25.302  0.00  0.00    -0.270 OA
ENDROOT
BRANCH   1  11
ATOM      5  C   UNL     1       6.062  -2.995  22.042  0.00  0.00    +0.047 C 
ATOM      6  C   UNL     1       7.258  -2.889  22.946  0.00  0.00    -0.008 A 
ATOM      7  C   UNL     1       7.804  -4.015  23.572  0.00  0.00    +0.123 A 
ATOM      8  C   UNL     1       8.909  -3.906  24.437  0.00  0.00    -0.008 A 
ATOM      9  C   UNL     1       9.481  -5.108  25.135  0.00  0.00    +0.047 C 
ATOM     10  C   UNL     1       9.472  -2.634  24.669  0.00  0.00    +0.020 A 
ATOM     11  C   UNL     1       8.935  -1.500  24.049  0.00  0.00    +0.038 A 
ATOM     12  C   UNL     1       7.832  -1.639  23.194  0.00  0.00    +0.020 A 
BRANCH   7  13
ATOM     13  O   UNL     1       7.200  -5.214  23.310  0.00  0.00    -0.506 OA
ATOM     14  H   UNL     1       6.284  -5.204  23.621  0.00  0.00    +0.292 HD
ENDBRANCH   7  13
ENDBRANCH   1  11
BRANCH   2  15
ATOM     15  C   UNL     1       9.277   2.273  23.569  0.00  0.00    +0.036 A 
ATOM     16  C   UNL     1       8.240   3.128  23.964  0.00  0.00    +0.042 A 
ATOM     17  C   UNL     1       8.468   4.504  24.119  0.00  0.00    +0.062 A 
ATOM     18 BR   UNL     1       7.017   5.608  24.648  0.00  0.00    -0.046 Br
ATOM     19  C   UNL     1       9.735   5.043  23.888  0.00  0.00    +0.145 A 
ATOM     20  C   UNL     1      10.770   4.198  23.499  0.00  0.00    +0.062 A 
ATOM     21 BR   UNL     1      12.515   4.874  23.183  0.00  0.00    -0.046 Br
ATOM     22  C   UNL     1      10.542   2.827  23.340  0.00  0.00    +0.042 A 
BRANCH  19  23
ATOM     23  O   UNL     1       9.949   6.387  24.044  0.00  0.00    -0.505 OA
ATOM     24  H   UNL     1      10.670   6.647  23.441  0.00  0.00    +0.292 HD
ENDBRANCH  19  23
ENDBRANCH   2  15
TORSDOF 4
ENDMDL
MODEL 5
REMARK VINA RESULT:      -6.2      3.313      7.998
REMARK  Name = 
REMARK  6 active torsions:
REMARK  status: ('A' for Active; 'I' for Inactive)
REMARK    1  A    between atoms: C_1  and  C_2
REMARK    2  A    between atoms: C_4  and  C_10
REMARK    3  A    between atoms: C_6  and  C_7
REMARK    4  A    between atoms: C_8  and  O_9
REMARK    5  A    between atoms: N_12  and  C_13
REMARK    6  A    between atoms: C_17  and  O_18
REMARK                            x       y       z     vdW  Elec       q    Type
REMARK                         _______ _______ _______ _____ _____    ______ ____
ROOT
ATOM      1  C   UNL     1       9.416   0.012  24.365  0.00  0.00    +0.248 C 
ATOM      2  N   UNL     1       8.968   1.076  23.593  0.00  0.00    -0.281 N 
ATOM      3  H   UNL     1       8.272   0.884  22.884  0.00  0.00    +0.155 HD
ATOM      4  O   UNL     1      10.230   0.087  25.280  0.00  0.00    -0.270 OA
ENDROOT
BRANCH   1  11
ATOM      5  C   UNL     1       9.745  -4.867  25.205  0.00  0.00    +0.047 C 
ATOM      6  C   UNL     1       9.054  -3.733  24.501  0.00  0.00    -0.008 A 
ATOM      7  C   UNL     1       8.026  -3.962  23.580  0.00  0.00    +0.123 A 
ATOM      8  C   UNL     1       7.399  -2.898  22.906  0.00  0.00    -0.008 A 
ATOM      9  C   UNL     1       6.314  -3.140  21.894  0.00  0.00    +0.047 C 
ATOM     10  C   UNL     1       7.818  -1.578  23.173  0.00  0.00    +0.020 A 
ATOM     11  C   UNL     1       8.845  -1.336  24.093  0.00  0.00    +0.038 A 
ATOM     12  C   UNL     1       9.454  -2.417  24.747  0.00  0.00    +0.020 A 
BRANCH   7  13
ATOM     13  O   UNL     1       7.678  -5.267  23.362  0.00  0.00    -0.506 OA
ATOM     14  H   UNL     1       8.470  -5.809  23.237  0.00  0.00    +0.292 HD
ENDBRANCH   7  13
ENDBRANCH   1  11
BRANCH   2  15
ATOM     15  C   UNL     1       9.346   2.435  23.762  0.00  0.00    +0.036 A 
ATOM     16  C   UNL     1       8.427   3.309  24.359  0.00  0.00    +0.042 A 
ATOM     17  C   UNL     1       8.750   4.660  24.557  0.00  0.00    +0.062 A 
ATOM     18 BR   UNL     1       7.456   5.790  25.364  0.00  0.00    -0.046 Br
ATOM     19  C   UNL     1       9.995   5.156  24.167  0.00  0.00    +0.145 A 
ATOM     20  C   UNL     1      10.913   4.293  23.575  0.00  0.00    +0.062 A 
ATOM     21 BR   UNL     1      12.624   4.910  23.036  0.00  0.00    -0.046 Br
ATOM     22  C   UNL     1      10.590   2.946  23.375  0.00  0.00    +0.042 A 
BRANCH  19  23
ATOM     23  O   UNL     1      10.302   6.476  24.365  0.00  0.00    -0.505 OA
ATOM     24  H   UNL     1      10.270   6.650  25.323  0.00  0.00    +0.292 HD
ENDBRANCH  19  23
ENDBRANCH   2  15
TORSDOF 4
ENDMDL
MODEL 6
REMARK VINA RESULT:      -6.2      0.493      1.947
REMARK  Name = 
REMARK  6 active torsions:
REMARK  status: ('A' for Active; 'I' for Inactive)
REMARK    1  A    between atoms: C_1  and  C_2
REMARK    2  A    between atoms: C_4  and  C_10
REMARK    3  A    between atoms: C_6  and  C_7
REMARK    4  A    between atoms: C_8  and  O_9
REMARK    5  A    between atoms: N_12  and  C_13
REMARK    6  A    between atoms: C_17  and  O_18
REMARK                            x       y       z     vdW  Elec       q    Type
REMARK                         _______ _______ _______ _____ _____    ______ ____
ROOT
ATOM      1  C   UNL     1       9.626   0.836  23.679  0.00  0.00    +0.248 C 
ATOM      2  N   UNL     1       8.469   0.226  24.146  0.00  0.00    -0.281 N 
ATOM      3  H   UNL     1       7.752   0.818  24.547  0.00  0.00    +0.155 HD
ATOM      4  O   UNL     1      10.569   0.263  23.142  0.00  0.00    -0.270 OA
ENDROOT
BRANCH   1  11
ATOM      5  C   UNL     1      12.462   4.852  23.005  0.00  0.00    +0.047 C 
ATOM      6  C   UNL     1      11.164   4.268  23.490  0.00  0.00    -0.008 A 
ATOM      7  C   UNL     1      10.192   5.059  24.110  0.00  0.00    +0.123 A 
ATOM      8  C   UNL     1       8.990   4.503  24.584  0.00  0.00    -0.008 A 
ATOM      9  C   UNL     1       7.954   5.344  25.276  0.00  0.00    +0.047 C 
ATOM     10  C   UNL     1       8.768   3.119  24.424  0.00  0.00    +0.020 A 
ATOM     11  C   UNL     1       9.733   2.316  23.805  0.00  0.00    +0.038 A 
ATOM     12  C   UNL     1      10.923   2.899  23.346  0.00  0.00    +0.020 A 
BRANCH   7  13
ATOM     13  O   UNL     1      10.479   6.391  24.241  0.00  0.00    -0.506 OA
ATOM     14  H   UNL     1       9.773   6.840  24.729  0.00  0.00    +0.292 HD
ENDBRANCH   7  13
ENDBRANCH   1  11
BRANCH   2  15
ATOM     15  C   UNL     1       8.166  -1.158  24.041  0.00  0.00    +0.036 A 
ATOM     16  C   UNL     1       8.650  -2.020  25.035  0.00  0.00    +0.042 A 
ATOM     17  C   UNL     1       8.375  -3.395  24.986  0.00  0.00    +0.062 A 
ATOM     18 BR   UNL     1       9.068  -4.506  26.359  0.00  0.00    -0.046 Br
ATOM     19  C   UNL     1       7.609  -3.928  23.947  0.00  0.00    +0.145 A 
ATOM     20  C   UNL     1       7.123  -3.076  22.958  0.00  0.00    +0.062 A 
ATOM     21 BR   UNL     1       6.068  -3.744  21.529  0.00  0.00    -0.046 Br
ATOM     22  C   UNL     1       7.400  -1.706  23.006  0.00  0.00    +0.042 A 
BRANCH  19  23
ATOM     23  O   UNL     1       7.345  -5.270  23.906  0.00  0.00    -0.505 OA
ATOM     24  H   UNL     1       7.674  -5.666  24.734  0.00  0.00    +0.292 HD
ENDBRANCH  19  23
ENDBRANCH   2  15
TORSDOF 4
ENDMDL
MODEL 7
REMARK VINA RESULT:      -6.0      3.273      7.773
REMARK  Name = 
REMARK  6 active torsions:
REMARK  status: ('A' for Active; 'I' for Inactive)
REMARK    1  A    between atoms: C_1  and  C_2
REMARK    2  A    between atoms: C_4  and  C_10
REMARK    3  A    between atoms: C_6  and  C_7
REMARK    4  A    between atoms: C_8  and  O_9
REMARK    5  A    between atoms: N_12  and  C_13
REMARK    6  A    between atoms: C_17  and  O_18
REMARK                            x       y       z     vdW  Elec       q    Type
REMARK                         _______ _______ _______ _____ _____    ______ ____
ROOT
ATOM      1  C   UNL     1       8.972   0.020  24.426  0.00  0.00    +0.248 C 
ATOM      2  N   UNL     1       9.016   0.914  23.363  0.00  0.00    -0.281 N 
ATOM      3  H   UNL     1       8.861   0.548  22.432  0.00  0.00    +0.155 HD
ATOM      4  O   UNL     1       9.109   0.312  25.610  0.00  0.00    -0.270 OA
ENDROOT
BRANCH   1  11
ATOM      5  C   UNL     1       6.229  -3.221  21.860  0.00  0.00    +0.047 C 
ATOM      6  C   UNL     1       7.318  -2.981  22.867  0.00  0.00    -0.008 A 
ATOM      7  C   UNL     1       7.943  -4.040  23.534  0.00  0.00    +0.123 A 
ATOM      8  C   UNL     1       8.946  -3.809  24.494  0.00  0.00    -0.008 A 
ATOM      9  C   UNL     1       9.600  -4.941  25.235  0.00  0.00    +0.047 C 
ATOM     10  C   UNL     1       9.324  -2.480  24.781  0.00  0.00    +0.020 A 
ATOM     11  C   UNL     1       8.706  -1.412  24.120  0.00  0.00    +0.038 A 
ATOM     12  C   UNL     1       7.708  -1.674  23.170  0.00  0.00    +0.020 A 
BRANCH   7  13
ATOM     13  O   UNL     1       7.519  -5.301  23.215  0.00  0.00    -0.506 OA
ATOM     14  H   UNL     1       8.039  -5.653  22.478  0.00  0.00    +0.292 HD
ENDBRANCH   7  13
ENDBRANCH   1  11
BRANCH   2  15
ATOM     15  C   UNL     1       9.183   2.321  23.474  0.00  0.00    +0.036 A 
ATOM     16  C   UNL     1      10.481   2.843  23.385  0.00  0.00    +0.042 A 
ATOM     17  C   UNL     1      10.704   4.225  23.481  0.00  0.00    +0.062 A 
ATOM     18 BR   UNL     1      12.487   4.864  23.360  0.00  0.00    -0.046 Br
ATOM     19  C   UNL     1       9.635   5.104  23.662  0.00  0.00    +0.145 A 
ATOM     20  C   UNL     1       8.343   4.592  23.748  0.00  0.00    +0.062 A 
ATOM     21 BR   UNL     1       6.852   5.742  23.982  0.00  0.00    -0.046 Br
ATOM     22  C   UNL     1       8.121   3.214  23.656  0.00  0.00    +0.042 A 
BRANCH  19  23
ATOM     23  O   UNL     1       9.861   6.452  23.753  0.00  0.00    -0.505 OA
ATOM     24  H   UNL     1       9.553   6.748  24.629  0.00  0.00    +0.292 HD
ENDBRANCH  19  23
ENDBRANCH   2  15
TORSDOF 4
ENDMDL
MODEL 8
REMARK VINA RESULT:      -6.0      2.527      3.626
REMARK  Name = 
REMARK  6 active torsions:
REMARK  status: ('A' for Active; 'I' for Inactive)
REMARK    1  A    between atoms: C_1  and  C_2
REMARK    2  A    between atoms: C_4  and  C_10
REMARK    3  A    between atoms: C_6  and  C_7
REMARK    4  A    between atoms: C_8  and  O_9
REMARK    5  A    between atoms: N_12  and  C_13
REMARK    6  A    between atoms: C_17  and  O_18
REMARK                            x       y       z     vdW  Elec       q    Type
REMARK                         _______ _______ _______ _____ _____    ______ ____
ROOT
ATOM      1  C   UNL     1       7.539  -0.668  23.236  0.00  0.00    +0.248 C 
ATOM      2  N   UNL     1       6.249  -1.157  23.068  0.00  0.00    -0.281 N 
ATOM      3  H   UNL     1       5.521  -0.495  22.834  0.00  0.00    +0.155 HD
ATOM      4  O   UNL     1       8.531  -1.344  23.490  0.00  0.00    -0.270 OA
ENDROOT
BRANCH   1  11
ATOM      5  C   UNL     1      10.791   3.077  23.389  0.00  0.00    +0.047 C 
ATOM      6  C   UNL     1       9.374   2.619  23.180  0.00  0.00    -0.008 A 
ATOM      7  C   UNL     1       8.338   3.530  22.953  0.00  0.00    +0.123 A 
ATOM      8  C   UNL     1       7.010   3.098  22.781  0.00  0.00    -0.008 A 
ATOM      9  C   UNL     1       5.888   4.074  22.565  0.00  0.00    +0.047 C 
ATOM     10  C   UNL     1       6.728   1.717  22.838  0.00  0.00    +0.020 A 
ATOM     11  C   UNL     1       7.756   0.795  23.065  0.00  0.00    +0.038 A 
ATOM     12  C   UNL     1       9.070   1.256  23.235  0.00  0.00    +0.020 A 
BRANCH   7  13
ATOM     13  O   UNL     1       8.682   4.854  22.920  0.00  0.00    -0.506 OA
ATOM     14  H   UNL     1       8.839   5.138  22.008  0.00  0.00    +0.292 HD
ENDBRANCH   7  13
ENDBRANCH   1  11
BRANCH   2  15
ATOM     15  C   UNL     1       5.873  -2.526  23.120  0.00  0.00    +0.036 A 
ATOM     16  C   UNL     1       5.121  -2.965  24.218  0.00  0.00    +0.042 A 
ATOM     17  C   UNL     1       4.716  -4.305  24.317  0.00  0.00    +0.062 A 
ATOM     18 BR   UNL     1       3.708  -4.835  25.835  0.00  0.00    -0.046 Br
ATOM     19  C   UNL     1       5.051  -5.223  23.320  0.00  0.00    +0.145 A 
ATOM     20  C   UNL     1       5.795  -4.792  22.225  0.00  0.00    +0.062 A 
ATOM     21 BR   UNL     1       6.268  -5.993  20.834  0.00  0.00    -0.046 Br
ATOM     22  C   UNL     1       6.202  -3.457  22.128  0.00  0.00    +0.042 A 
BRANCH  19  23
ATOM     23  O   UNL     1       4.651  -6.528  23.424  0.00  0.00    -0.505 OA
ATOM     24  H   UNL     1       3.874  -6.650  22.847  0.00  0.00    +0.292 HD
ENDBRANCH  19  23
ENDBRANCH   2  15
TORSDOF 4
ENDMDL
MODEL 9
REMARK VINA RESULT:      -6.0      2.651      3.458
REMARK  Name = 
REMARK  6 active torsions:
REMARK  status: ('A' for Active; 'I' for Inactive)
REMARK    1  A    between atoms: C_1  and  C_2
REMARK    2  A    between atoms: C_4  and  C_10
REMARK    3  A    between atoms: C_6  and  C_7
REMARK    4  A    between atoms: C_8  and  O_9
REMARK    5  A    between atoms: N_12  and  C_13
REMARK    6  A    between atoms: C_17  and  O_18
REMARK                            x       y       z     vdW  Elec       q    Type
REMARK                         _______ _______ _______ _____ _____    ______ ____
ROOT
ATOM      1  C   UNL     1       7.419  -0.765  23.813  0.00  0.00    +0.248 C 
ATOM      2  N   UNL     1       6.201  -1.217  23.321  0.00  0.00    -0.281 N 
ATOM      3  H   UNL     1       5.613  -0.553  22.834  0.00  0.00    +0.155 HD
ATOM      4  O   UNL     1       8.253  -1.452  24.395  0.00  0.00    -0.270 OA
ENDROOT
BRANCH   1  11
ATOM      5  C   UNL     1       5.808   3.730  22.467  0.00  0.00    +0.047 C 
ATOM      6  C   UNL     1       6.953   2.857  22.898  0.00  0.00    -0.008 A 
ATOM      7  C   UNL     1       8.260   3.349  22.974  0.00  0.00    +0.123 A 
ATOM      8  C   UNL     1       9.332   2.521  23.355  0.00  0.00    -0.008 A 
ATOM      9  C   UNL     1      10.742   3.038  23.411  0.00  0.00    +0.047 C 
ATOM     10  C   UNL     1       9.073   1.170  23.667  0.00  0.00    +0.020 A 
ATOM     11  C   UNL     1       7.770   0.665  23.595  0.00  0.00    +0.038 A 
ATOM     12  C   UNL     1       6.722   1.514  23.209  0.00  0.00    +0.020 A 
BRANCH   7  13
ATOM     13  O   UNL     1       8.438   4.666  22.646  0.00  0.00    -0.506 OA
ATOM     14  H   UNL     1       8.223   4.812  21.714  0.00  0.00    +0.292 HD
ENDBRANCH   7  13
ENDBRANCH   1  11
BRANCH   2  15
ATOM     15  C   UNL     1       5.737  -2.560  23.372  0.00  0.00    +0.036 A 
ATOM     16  C   UNL     1       6.133  -3.436  22.352  0.00  0.00    +0.042 A 
ATOM     17  C   UNL     1       5.710  -4.775  22.356  0.00  0.00    +0.062 A 
ATOM     18 BR   UNL     1       6.275  -5.905  20.941  0.00  0.00    -0.046 Br
ATOM     19  C   UNL     1       4.893  -5.257  23.380  0.00  0.00    +0.145 A 
ATOM     20  C   UNL     1       4.500  -4.392  24.397  0.00  0.00    +0.062 A 
ATOM     21 BR   UNL     1       3.399  -4.996  25.820  0.00  0.00    -0.046 Br
ATOM     22  C   UNL     1       4.918  -3.057  24.391  0.00  0.00    +0.042 A 
BRANCH  19  23
ATOM     23  O   UNL     1       4.487  -6.565  23.377  0.00  0.00    -0.505 OA
ATOM     24  H   UNL     1       3.523  -6.578  23.234  0.00  0.00    +0.292 HD
ENDBRANCH  19  23
ENDBRANCH   2  15
TORSDOF 4
ENDMDL
