MODEL 1
REMARK VINA RESULT:      -4.9      0.000      0.000
REMARK  Name = 
REMARK  5 active torsions:
REMARK  status: ('A' for Active; 'I' for Inactive)
REMARK    1  A    between atoms: N_1  and  C_2
REMARK    2  A    between atoms: C_5  and  C_6
REMARK    3  A    between atoms: C_6  and  O_7
REMARK    4  A    between atoms: C_9  and  O_11
REMARK    5  A    between atoms: C_12  and  O_14
REMARK                            x       y       z     vdW  Elec       q    Type
REMARK                         _______ _______ _______ _____ _____    ______ ____
ROOT
ATOM      1  C   UNL     1      10.308   2.741  23.201  0.00  0.00    +0.105 C 
ATOM      2  C   UNL     1       9.016   3.392  23.784  0.00  0.00    +0.164 C 
ATOM      3  C   UNL     1       8.972   4.934  23.740  0.00  0.00    +0.149 C 
ATOM      4  C   UNL     1      10.309   5.640  24.024  0.00  0.00    +0.066 C 
ATOM      5  C   UNL     1      11.552   4.916  23.563  0.00  0.00    -0.044 C 
ATOM      6  C   UNL     1      11.525   3.622  23.206  0.00  0.00    -0.005 C 
ENDROOT
BRANCH   1   7
ATOM      7  N   UNL     1      10.127   2.258  21.828  0.00  0.00    -0.322 NA
ATOM      8  H   UNL     1      11.024   2.189  21.355  0.00  0.00    +0.119 HD
ATOM      9  H   UNL     1       9.744   1.312  21.852  0.00  0.00    +0.119 HD
ENDBRANCH   1   7
BRANCH   2  10
ATOM     10  O   UNL     1       8.821   2.950  25.142  0.00  0.00    -0.387 OA
ATOM     11  H   UNL     1       9.275   3.579  25.722  0.00  0.00    +0.210 HD
ENDBRANCH   2  10
BRANCH   3  12
ATOM     12  O   UNL     1       8.446   5.408  22.494  0.00  0.00    -0.389 OA
ATOM     13  H   UNL     1       7.585   4.983  22.349  0.00  0.00    +0.210 HD
ENDBRANCH   3  12
BRANCH   5  14
ATOM     14  C   UNL     1      12.796   5.776  23.534  0.00  0.00    +0.186 C 
BRANCH  14  15
ATOM     15  O   UNL     1      13.958   5.020  23.230  0.00  0.00    -0.391 OA
ATOM     16  H   UNL     1      14.702   5.454  23.679  0.00  0.00    +0.210 HD
ENDBRANCH  14  15
ENDBRANCH   5  14
TORSDOF 5
ENDMDL
MODEL 2
REMARK VINA RESULT:      -4.5      8.938     10.507
REMARK  Name = 
REMARK  5 active torsions:
REMARK  status: ('A' for Active; 'I' for Inactive)
REMARK    1  A    between atoms: N_1  and  C_2
REMARK    2  A    between atoms: C_5  and  C_6
REMARK    3  A    between atoms: C_6  and  O_7
REMARK    4  A    between atoms: C_9  and  O_11
REMARK    5  A    between atoms: C_12  and  O_14
REMARK                            x       y       z     vdW  Elec       q    Type
REMARK                         _______ _______ _______ _____ _____    ______ ____
ROOT
ATOM      1  C   UNL     1       8.999  -4.433  24.946  0.00  0.00    +0.105 C 
ATOM      2  C   UNL     1       8.623  -4.027  26.404  0.00  0.00    +0.164 C 
ATOM      3  C   UNL     1       7.387  -4.738  26.993  0.00  0.00    +0.149 C 
ATOM      4  C   UNL     1       6.231  -4.978  26.006  0.00  0.00    +0.066 C 
ATOM      5  C   UNL     1       6.627  -5.236  24.572  0.00  0.00    -0.044 C 
ATOM      6  C   UNL     1       7.867  -4.981  24.124  0.00  0.00    -0.005 C 
ENDROOT
BRANCH   1   7
ATOM      7  N   UNL     1      10.087  -5.415  24.895  0.00  0.00    -0.322 NA
ATOM      8  H   UNL     1      10.362  -5.690  25.833  0.00  0.00    +0.119 HD
ATOM      9  H   UNL     1       9.754  -6.263  24.435  0.00  0.00    +0.119 HD
ENDBRANCH   1   7
BRANCH   2  10
ATOM     10  O   UNL     1       8.429  -2.600  26.475  0.00  0.00    -0.387 OA
ATOM     11  H   UNL     1       8.770  -2.219  25.653  0.00  0.00    +0.210 HD
ENDBRANCH   2  10
BRANCH   3  12
ATOM     12  O   UNL     1       7.742  -5.982  27.610  0.00  0.00    -0.389 OA
ATOM     13  H   UNL     1       7.887  -6.636  26.907  0.00  0.00    +0.210 HD
ENDBRANCH   3  12
BRANCH   5  14
ATOM     14  C   UNL     1       5.519  -5.809  23.716  0.00  0.00    +0.186 C 
BRANCH  14  15
ATOM     15  O   UNL     1       6.022  -6.448  22.553  0.00  0.00    -0.391 OA
ATOM     16  H   UNL     1       5.302  -6.997  22.200  0.00  0.00    +0.210 HD
ENDBRANCH  14  15
ENDBRANCH   5  14
TORSDOF 5
ENDMDL
MODEL 3
REMARK VINA RESULT:      -4.5      7.213      8.620
REMARK  Name = 
REMARK  5 active torsions:
REMARK  status: ('A' for Active; 'I' for Inactive)
REMARK    1  A    between atoms: N_1  and  C_2
REMARK    2  A    between atoms: C_5  and  C_6
REMARK    3  A    between atoms: C_6  and  O_7
REMARK    4  A    between atoms: C_9  and  O_11
REMARK    5  A    between atoms: C_12  and  O_14
REMARK                            x       y       z     vdW  Elec       q    Type
REMARK                         _______ _______ _______ _____ _____    ______ ____
ROOT
ATOM      1  C   UNL     1       9.094  -4.261  25.092  0.00  0.00    +0.105 C 
ATOM      2  C   UNL     1       7.728  -4.966  24.829  0.00  0.00    +0.164 C 
ATOM      3  C   UNL     1       7.161  -4.803  23.404  0.00  0.00    +0.149 C 
ATOM      4  C   UNL     1       7.379  -3.422  22.761  0.00  0.00    +0.066 C 
ATOM      5  C   UNL     1       8.653  -2.707  23.143  0.00  0.00    -0.044 C 
ATOM      6  C   UNL     1       9.398  -3.100  24.189  0.00  0.00    -0.005 C 
ENDROOT
BRANCH   1   7
ATOM      7  N   UNL     1      10.232  -5.184  25.008  0.00  0.00    -0.322 NA
ATOM      8  H   UNL     1      10.501  -5.329  24.040  0.00  0.00    +0.119 HD
ATOM      9  H   UNL     1      11.039  -4.764  25.470  0.00  0.00    +0.119 HD
ENDBRANCH   1   7
BRANCH   2  10
ATOM     10  O   UNL     1       6.753  -4.503  25.785  0.00  0.00    -0.387 OA
ATOM     11  H   UNL     1       6.639  -5.201  26.447  0.00  0.00    +0.210 HD
ENDBRANCH   2  10
BRANCH   3  12
ATOM     12  O   UNL     1       7.661  -5.815  22.521  0.00  0.00    -0.389 OA
ATOM     13  H   UNL     1       7.355  -6.677  22.847  0.00  0.00    +0.210 HD
ENDBRANCH   3  12
BRANCH   5  14
ATOM     14  C   UNL     1       9.004  -1.542  22.244  0.00  0.00    +0.186 C 
BRANCH  14  15
ATOM     15  O   UNL     1      10.291  -1.688  21.663  0.00  0.00    -0.391 OA
ATOM     16  H   UNL     1      10.863  -1.020  22.075  0.00  0.00    +0.210 HD
ENDBRANCH  14  15
ENDBRANCH   5  14
TORSDOF 5
ENDMDL
MODEL 4
REMARK VINA RESULT:      -4.5     10.140     10.954
REMARK  Name = 
REMARK  5 active torsions:
REMARK  status: ('A' for Active; 'I' for Inactive)
REMARK    1  A    between atoms: N_1  and  C_2
REMARK    2  A    between atoms: C_5  and  C_6
REMARK    3  A    between atoms: C_6  and  O_7
REMARK    4  A    between atoms: C_9  and  O_11
REMARK    5  A    between atoms: C_12  and  O_14
REMARK                            x       y       z     vdW  Elec       q    Type
REMARK                         _______ _______ _______ _____ _____    ______ ____
ROOT
ATOM      1  C   UNL     1       4.886  -5.884  24.183  0.00  0.00    +0.105 C 
ATOM      2  C   UNL     1       5.341  -5.271  22.822  0.00  0.00    +0.164 C 
ATOM      3  C   UNL     1       6.863  -5.085  22.655  0.00  0.00    +0.149 C 
ATOM      4  C   UNL     1       7.616  -4.635  23.920  0.00  0.00    +0.066 C 
ATOM      5  C   UNL     1       7.066  -5.139  25.233  0.00  0.00    -0.044 C 
ATOM      6  C   UNL     1       5.844  -5.689  25.323  0.00  0.00    -0.005 C 
ENDROOT
BRANCH   1   7
ATOM      7  N   UNL     1       4.608  -7.321  24.091  0.00  0.00    -0.322 NA
ATOM      8  H   UNL     1       4.675  -7.636  23.127  0.00  0.00    +0.119 HD
ATOM      9  H   UNL     1       5.320  -7.835  24.611  0.00  0.00    +0.119 HD
ENDBRANCH   1   7
BRANCH   2  10
ATOM     10  O   UNL     1       4.681  -4.007  22.616  0.00  0.00    -0.387 OA
ATOM     11  H   UNL     1       4.086  -4.109  21.859  0.00  0.00    +0.210 HD
ENDBRANCH   2  10
BRANCH   3  12
ATOM     12  O   UNL     1       7.483  -6.269  22.137  0.00  0.00    -0.389 OA
ATOM     13  H   UNL     1       7.234  -7.014  22.709  0.00  0.00    +0.210 HD
ENDBRANCH   3  12
BRANCH   5  14
ATOM     14  C   UNL     1       8.011  -4.979  26.403  0.00  0.00    +0.186 C 
BRANCH  14  15
ATOM     15  O   UNL     1       7.724  -5.896  27.447  0.00  0.00    -0.391 OA
ATOM     16  H   UNL     1       7.143  -6.578  27.071  0.00  0.00    +0.210 HD
ENDBRANCH  14  15
ENDBRANCH   5  14
TORSDOF 5
ENDMDL
MODEL 5
REMARK VINA RESULT:      -4.4      3.752      5.711
REMARK  Name = 
REMARK  5 active torsions:
REMARK  status: ('A' for Active; 'I' for Inactive)
REMARK    1  A    between atoms: N_1  and  C_2
REMARK    2  A    between atoms: C_5  and  C_6
REMARK    3  A    between atoms: C_6  and  O_7
REMARK    4  A    between atoms: C_9  and  O_11
REMARK    5  A    between atoms: C_12  and  O_14
REMARK                            x       y       z     vdW  Elec       q    Type
REMARK                         _______ _______ _______ _____ _____    ______ ____
ROOT
ATOM      1  C   UNL     1       9.298  -0.247  21.797  0.00  0.00    +0.105 C 
ATOM      2  C   UNL     1      10.146   1.003  22.186  0.00  0.00    +0.164 C 
ATOM      3  C   UNL     1      10.136   1.372  23.683  0.00  0.00    +0.149 C 
ATOM      4  C   UNL     1       8.787   1.182  24.400  0.00  0.00    +0.066 C 
ATOM      5  C   UNL     1       7.929   0.041  23.908  0.00  0.00    -0.044 C 
ATOM      6  C   UNL     1       8.177  -0.577  22.741  0.00  0.00    -0.005 C 
ENDROOT
BRANCH   1   7
ATOM      7  N   UNL     1      10.111  -1.459  21.650  0.00  0.00    -0.322 NA
ATOM      8  H   UNL     1       9.516  -2.275  21.539  0.00  0.00    +0.119 HD
ATOM      9  H   UNL     1      10.666  -1.390  20.796  0.00  0.00    +0.119 HD
ENDBRANCH   1   7
BRANCH   2  10
ATOM     10  O   UNL     1       9.714   2.140  21.412  0.00  0.00    -0.387 OA
ATOM     11  H   UNL     1      10.358   2.849  21.552  0.00  0.00    +0.210 HD
ENDBRANCH   2  10
BRANCH   3  12
ATOM     12  O   UNL     1      11.153   0.667  24.405  0.00  0.00    -0.389 OA
ATOM     13  H   UNL     1      10.873   0.600  25.333  0.00  0.00    +0.210 HD
ENDBRANCH   3  12
BRANCH   5  14
ATOM     14  C   UNL     1       6.801  -0.335  24.842  0.00  0.00    +0.186 C 
BRANCH  14  15
ATOM     15  O   UNL     1       5.533   0.019  24.313  0.00  0.00    -0.391 OA
ATOM     16  H   UNL     1       5.386   0.953  24.535  0.00  0.00    +0.210 HD
ENDBRANCH  14  15
ENDBRANCH   5  14
TORSDOF 5
ENDMDL
MODEL 6
REMARK VINA RESULT:      -4.4      3.277      4.689
REMARK  Name = 
REMARK  5 active torsions:
REMARK  status: ('A' for Active; 'I' for Inactive)
REMARK    1  A    between atoms: N_1  and  C_2
REMARK    2  A    between atoms: C_5  and  C_6
REMARK    3  A    between atoms: C_6  and  O_7
REMARK    4  A    between atoms: C_9  and  O_11
REMARK    5  A    between atoms: C_12  and  O_14
REMARK                            x       y       z     vdW  Elec       q    Type
REMARK                         _______ _______ _______ _____ _____    ______ ____
ROOT
ATOM      1  C   UNL     1       9.517   2.021  24.560  0.00  0.00    +0.105 C 
ATOM      2  C   UNL     1       9.236   2.919  23.316  0.00  0.00    +0.164 C 
ATOM      3  C   UNL     1       8.816   2.167  22.037  0.00  0.00    +0.149 C 
ATOM      4  C   UNL     1       9.533   0.827  21.794  0.00  0.00    +0.066 C 
ATOM      5  C   UNL     1       9.912   0.044  23.029  0.00  0.00    -0.044 C 
ATOM      6  C   UNL     1       9.899   0.602  24.250  0.00  0.00    -0.005 C 
ENDROOT
BRANCH   1   7
ATOM      7  N   UNL     1       8.384   1.972  25.490  0.00  0.00    -0.322 NA
ATOM      8  H   UNL     1       8.426   1.131  26.058  0.00  0.00    +0.119 HD
ATOM      9  H   UNL     1       8.446   2.758  26.138  0.00  0.00    +0.119 HD
ENDBRANCH   1   7
BRANCH   2  10
ATOM     10  O   UNL     1      10.393   3.730  23.033  0.00  0.00    -0.387 OA
ATOM     11  H   UNL     1      10.385   4.476  23.651  0.00  0.00    +0.210 HD
ENDBRANCH   2  10
BRANCH   3  12
ATOM     12  O   UNL     1       7.399   1.955  21.994  0.00  0.00    -0.389 OA
ATOM     13  H   UNL     1       7.182   1.245  22.621  0.00  0.00    +0.210 HD
ENDBRANCH   3  12
BRANCH   5  14
ATOM     14  C   UNL     1      10.283  -1.397  22.760  0.00  0.00    +0.186 C 
BRANCH  14  15
ATOM     15  O   UNL     1      10.127  -1.740  21.392  0.00  0.00    -0.391 OA
ATOM     16  H   UNL     1      10.509  -1.012  20.874  0.00  0.00    +0.210 HD
ENDBRANCH  14  15
ENDBRANCH   5  14
TORSDOF 5
ENDMDL
MODEL 7
REMARK VINA RESULT:      -4.4      2.991      4.726
REMARK  Name = 
REMARK  5 active torsions:
REMARK  status: ('A' for Active; 'I' for Inactive)
REMARK    1  A    between atoms: N_1  and  C_2
REMARK    2  A    between atoms: C_5  and  C_6
REMARK    3  A    between atoms: C_6  and  O_7
REMARK    4  A    between atoms: C_9  and  O_11
REMARK    5  A    between atoms: C_12  and  O_14
REMARK                            x       y       z     vdW  Elec       q    Type
REMARK                         _______ _______ _______ _____ _____    ______ ____
ROOT
ATOM      1  C   UNL     1       9.658   2.879  23.141  0.00  0.00    +0.105 C 
ATOM      2  C   UNL     1       9.167   2.431  24.553  0.00  0.00    +0.164 C 
ATOM      3  C   UNL     1       9.316   0.927  24.860  0.00  0.00    +0.149 C 
ATOM      4  C   UNL     1       9.032  -0.019  23.680  0.00  0.00    +0.066 C 
ATOM      5  C   UNL     1       9.397   0.502  22.310  0.00  0.00    -0.044 C 
ATOM      6  C   UNL     1       9.669   1.800  22.097  0.00  0.00    -0.005 C 
ENDROOT
BRANCH   1   7
ATOM      7  N   UNL     1      11.001   3.467  23.171  0.00  0.00    -0.322 NA
ATOM      8  H   UNL     1      11.697   2.756  23.376  0.00  0.00    +0.119 HD
ATOM      9  H   UNL     1      11.229   3.831  22.244  0.00  0.00    +0.119 HD
ENDBRANCH   1   7
BRANCH   2  10
ATOM     10  O   UNL     1       7.791   2.819  24.732  0.00  0.00    -0.387 OA
ATOM     11  H   UNL     1       7.319   2.609  23.912  0.00  0.00    +0.210 HD
ENDBRANCH   2  10
BRANCH   3  12
ATOM     12  O   UNL     1      10.609   0.627  25.400  0.00  0.00    -0.389 OA
ATOM     13  H   UNL     1      10.484   0.085  26.197  0.00  0.00    +0.210 HD
ENDBRANCH   3  12
BRANCH   5  14
ATOM     14  C   UNL     1       9.439  -0.560  21.233  0.00  0.00    +0.186 C 
BRANCH  14  15
ATOM     15  O   UNL     1      10.267  -1.653  21.597  0.00  0.00    -0.391 OA
ATOM     16  H   UNL     1       9.689  -2.322  22.001  0.00  0.00    +0.210 HD
ENDBRANCH  14  15
ENDBRANCH   5  14
TORSDOF 5
ENDMDL
MODEL 8
REMARK VINA RESULT:      -4.4      4.386      5.653
REMARK  Name = 
REMARK  5 active torsions:
REMARK  status: ('A' for Active; 'I' for Inactive)
REMARK    1  A    between atoms: N_1  and  C_2
REMARK    2  A    between atoms: C_5  and  C_6
REMARK    3  A    between atoms: C_6  and  O_7
REMARK    4  A    between atoms: C_9  and  O_11
REMARK    5  A    between atoms: C_12  and  O_14
REMARK                            x       y       z     vdW  Elec       q    Type
REMARK                         _______ _______ _______ _____ _____    ______ ____
ROOT
ATOM      1  C   UNL     1       9.969  -0.298  23.886  0.00  0.00    +0.105 C 
ATOM      2  C   UNL     1      10.273  -0.210  22.358  0.00  0.00    +0.164 C 
ATOM      3  C   UNL     1       9.446   0.832  21.577  0.00  0.00    +0.149 C 
ATOM      4  C   UNL     1       7.977   0.972  22.015  0.00  0.00    +0.066 C 
ATOM      5  C   UNL     1       7.699   0.747  23.482  0.00  0.00    -0.044 C 
ATOM      6  C   UNL     1       8.604   0.175  24.294  0.00  0.00    -0.005 C 
ENDROOT
BRANCH   1   7
ATOM      7  N   UNL     1      10.944   0.436  24.699  0.00  0.00    -0.322 NA
ATOM      8  H   UNL     1      10.522   1.273  25.091  0.00  0.00    +0.119 HD
ATOM      9  H   UNL     1      11.223  -0.142  25.493  0.00  0.00    +0.119 HD
ENDBRANCH   1   7
BRANCH   2  10
ATOM     10  O   UNL     1      10.097  -1.507  21.754  0.00  0.00    -0.387 OA
ATOM     11  H   UNL     1      10.971  -1.920  21.693  0.00  0.00    +0.210 HD
ENDBRANCH   2  10
BRANCH   3  12
ATOM     12  O   UNL     1      10.068   2.123  21.604  0.00  0.00    -0.389 OA
ATOM     13  H   UNL     1      10.835   2.100  21.009  0.00  0.00    +0.210 HD
ENDBRANCH   3  12
BRANCH   5  14
ATOM     14  C   UNL     1       6.339   1.230  23.937  0.00  0.00    +0.186 C 
BRANCH  14  15
ATOM     15  O   UNL     1       5.502   0.158  24.340  0.00  0.00    -0.391 OA
ATOM     16  H   UNL     1       6.085  -0.544  24.674  0.00  0.00    +0.210 HD
ENDBRANCH  14  15
ENDBRANCH   5  14
TORSDOF 5
ENDMDL
MODEL 9
REMARK VINA RESULT:      -4.3      6.353      8.049
REMARK  Name = 
REMARK  5 active torsions:
REMARK  status: ('A' for Active; 'I' for Inactive)
REMARK    1  A    between atoms: N_1  and  C_2
REMARK    2  A    between atoms: C_5  and  C_6
REMARK    3  A    between atoms: C_6  and  O_7
REMARK    4  A    between atoms: C_9  and  O_11
REMARK    5  A    between atoms: C_12  and  O_14
REMARK                            x       y       z     vdW  Elec       q    Type
REMARK                         _______ _______ _______ _____ _____    ______ ____
ROOT
ATOM      1  C   UNL     1       9.870  -1.625  23.807  0.00  0.00    +0.105 C 
ATOM      2  C   UNL     1       9.030  -1.419  22.508  0.00  0.00    +0.164 C 
ATOM      3  C   UNL     1       7.746  -2.268  22.408  0.00  0.00    +0.149 C 
ATOM      4  C   UNL     1       7.857  -3.701  22.958  0.00  0.00    +0.066 C 
ATOM      5  C   UNL     1       8.784  -3.889  24.135  0.00  0.00    -0.044 C 
ATOM      6  C   UNL     1       9.675  -2.948  24.490  0.00  0.00    -0.005 C 
ENDROOT
BRANCH   1   7
ATOM      7  N   UNL     1       9.628  -0.580  24.808  0.00  0.00    -0.322 NA
ATOM      8  H   UNL     1       8.665  -0.260  24.762  0.00  0.00    +0.119 HD
ATOM      9  H   UNL     1       9.755  -0.973  25.741  0.00  0.00    +0.119 HD
ENDBRANCH   1   7
BRANCH   2  10
ATOM     10  O   UNL     1       9.856  -1.668  21.353  0.00  0.00    -0.387 OA
ATOM     11  H   UNL     1       9.415  -2.346  20.820  0.00  0.00    +0.210 HD
ENDBRANCH   2  10
BRANCH   3  12
ATOM     12  O   UNL     1       6.634  -1.612  23.029  0.00  0.00    -0.389 OA
ATOM     13  H   UNL     1       6.724  -0.656  22.877  0.00  0.00    +0.210 HD
ENDBRANCH   3  12
BRANCH   5  14
ATOM     14  C   UNL     1       8.604  -5.202  24.863  0.00  0.00    +0.186 C 
BRANCH  14  15
ATOM     15  O   UNL     1       9.846  -5.836  25.131  0.00  0.00    -0.391 OA
ATOM     16  H   UNL     1       9.778  -6.742  24.788  0.00  0.00    +0.210 HD
ENDBRANCH  14  15
ENDBRANCH   5  14
TORSDOF 5
ENDMDL
