MODEL 1
REMARK VINA RESULT:      -7.7      0.000      0.000
REMARK  Name = 
REMARK  7 active torsions:
REMARK  status: ('A' for Active; 'I' for Inactive)
REMARK    1  A    between atoms: C_2  and  C_3
REMARK    2  A    between atoms: C_3  and  C_4
REMARK    3  A    between atoms: C_3  and  C_5
REMARK    4  A    between atoms: N_6  and  C_7
REMARK    5  A    between atoms: C_7  and  C_8
REMARK    6  A    between atoms: C_16  and  C_19
REMARK    7  A    between atoms: C_17  and  O_18
REMARK                            x       y       z     vdW  Elec       q    Type
REMARK                         _______ _______ _______ _____ _____    ______ ____
ROOT
ATOM      1  C   UNL     1       9.235   0.603  22.199  0.00  0.00    +0.145 C 
ATOM      2  C   UNL     1       9.236  -0.909  22.278  0.00  0.00    +0.129 C 
ATOM      3  C   UNL     1       8.302  -1.413  23.105  0.00  0.00    +0.103 C 
ATOM      4  C   UNL     1       7.400  -0.282  23.387  0.00  0.00    +0.253 C 
ATOM      5  O   UNL     1       6.337  -0.365  23.974  0.00  0.00    -0.270 OA
ATOM      6  N   UNL     1       7.923   0.840  22.771  0.00  0.00    -0.283 N 
ENDROOT
BRANCH   3   7
ATOM      7  C   UNL     1       8.187  -2.833  23.483  0.00  0.00    +0.110 C 
ATOM      8  C   UNL     1       7.409  -3.807  22.669  0.00  0.00    +0.030 A 
ATOM      9  C   UNL     1       6.657  -3.681  21.512  0.00  0.00    +0.012 A 
ATOM     10  C   UNL     1       5.996  -4.814  21.004  0.00  0.00    +0.001 A 
ATOM     11  C   UNL     1       6.061  -6.052  21.665  0.00  0.00    +0.002 A 
ATOM     12  C   UNL     1       6.792  -6.176  22.843  0.00  0.00    +0.030 A 
ATOM     13  C   UNL     1       7.446  -5.041  23.301  0.00  0.00    +0.122 A 
ATOM     14  S   UNL     1       8.386  -4.893  24.757  0.00  0.00    +0.100 S 
ATOM     15  O   UNL     1       7.484  -5.094  25.871  0.00  0.00    -0.146 OA
ATOM     16  O   UNL     1       9.590  -5.664  24.571  0.00  0.00    -0.146 OA
ATOM     17  N   UNL     1       8.710  -3.291  24.587  0.00  0.00    -0.128 NA
ENDBRANCH   3   7
BRANCH   1  18
ATOM     18  C   UNL     1      10.386   1.202  23.074  0.00  0.00    +0.011 C 
ATOM     19  C   UNL     1      10.638   2.688  22.784  0.00  0.00    +0.009 C 
ATOM     20  C   UNL     1      10.155   1.051  24.582  0.00  0.00    +0.009 C 
ENDBRANCH   1  18
BRANCH   2  21
ATOM     21  O   UNL     1      10.129  -1.625  21.519  0.00  0.00    -0.508 OA
ATOM     22  H   UNL     1       9.614  -2.175  20.889  0.00  0.00    +0.292 HD
ENDBRANCH   2  21
BRANCH   6  23
ATOM     23  C   UNL     1       7.141   2.036  22.527  0.00  0.00    +0.144 C 
BRANCH  23  24
ATOM     24  C   UNL     1       7.303   3.135  23.554  0.00  0.00    -0.030 A 
ATOM     25  C   UNL     1       7.611   4.446  23.159  0.00  0.00    +0.005 A 
ATOM     26  C   UNL     1       7.951   5.412  24.110  0.00  0.00    +0.000 A 
ATOM     27  C   UNL     1       7.966   5.086  25.465  0.00  0.00    +0.000 A 
ATOM     28  C   UNL     1       7.602   3.805  25.873  0.00  0.00    +0.000 A 
ATOM     29  C   UNL     1       7.263   2.836  24.924  0.00  0.00    +0.005 A 
ENDBRANCH  23  24
ENDBRANCH   6  23
TORSDOF 5
ENDMDL
MODEL 2
REMARK VINA RESULT:      -7.6      1.804      2.389
REMARK  Name = 
REMARK  7 active torsions:
REMARK  status: ('A' for Active; 'I' for Inactive)
REMARK    1  A    between atoms: C_2  and  C_3
REMARK    2  A    between atoms: C_3  and  C_4
REMARK    3  A    between atoms: C_3  and  C_5
REMARK    4  A    between atoms: N_6  and  C_7
REMARK    5  A    between atoms: C_7  and  C_8
REMARK    6  A    between atoms: C_16  and  C_19
REMARK    7  A    between atoms: C_17  and  O_18
REMARK                            x       y       z     vdW  Elec       q    Type
REMARK                         _______ _______ _______ _____ _____    ______ ____
ROOT
ATOM      1  C   UNL     1       9.552   0.806  22.211  0.00  0.00    +0.145 C 
ATOM      2  C   UNL     1       9.193  -0.662  22.121  0.00  0.00    +0.129 C 
ATOM      3  C   UNL     1       8.006  -0.970  22.675  0.00  0.00    +0.103 C 
ATOM      4  C   UNL     1       7.344   0.330  22.890  0.00  0.00    +0.253 C 
ATOM      5  O   UNL     1       6.186   0.475  23.233  0.00  0.00    -0.270 OA
ATOM      6  N   UNL     1       8.233   1.323  22.524  0.00  0.00    -0.283 N 
ENDROOT
BRANCH   3   7
ATOM      7  C   UNL     1       7.490  -2.337  22.862  0.00  0.00    +0.110 C 
ATOM      8  C   UNL     1       7.604  -3.054  24.162  0.00  0.00    +0.030 A 
ATOM      9  C   UNL     1       8.168  -2.714  25.381  0.00  0.00    +0.012 A 
ATOM     10  C   UNL     1       8.146  -3.654  26.427  0.00  0.00    +0.001 A 
ATOM     11  C   UNL     1       7.595  -4.932  26.245  0.00  0.00    +0.002 A 
ATOM     12  C   UNL     1       7.054  -5.289  25.013  0.00  0.00    +0.030 A 
ATOM     13  C   UNL     1       7.076  -4.328  24.013  0.00  0.00    +0.122 A 
ATOM     14  S   UNL     1       6.517  -4.510  22.375  0.00  0.00    +0.100 S 
ATOM     15  O   UNL     1       7.356  -5.506  21.745  0.00  0.00    -0.146 OA
ATOM     16  O   UNL     1       5.079  -4.609  22.422  0.00  0.00    -0.146 OA
ATOM     17  N   UNL     1       6.964  -3.010  21.876  0.00  0.00    -0.128 NA
ENDBRANCH   3   7
BRANCH   1  18
ATOM     18  C   UNL     1      10.580   1.052  23.367  0.00  0.00    +0.011 C 
ATOM     19  C   UNL     1      11.065   2.507  23.426  0.00  0.00    +0.009 C 
ATOM     20  C   UNL     1      10.047   0.677  24.754  0.00  0.00    +0.009 C 
ENDBRANCH   1  18
BRANCH   2  21
ATOM     21  O   UNL     1      10.049  -1.529  21.486  0.00  0.00    -0.508 OA
ATOM     22  H   UNL     1      10.825  -1.013  21.177  0.00  0.00    +0.292 HD
ENDBRANCH   2  21
BRANCH   6  23
ATOM     23  C   UNL     1       7.818   2.687  22.259  0.00  0.00    +0.144 C 
BRANCH  23  24
ATOM     24  C   UNL     1       7.910   3.632  23.437  0.00  0.00    -0.030 A 
ATOM     25  C   UNL     1       8.437   4.923  23.282  0.00  0.00    +0.005 A 
ATOM     26  C   UNL     1       8.702   5.721  24.398  0.00  0.00    +0.000 A 
ATOM     27  C   UNL     1       8.424   5.247  25.678  0.00  0.00    +0.000 A 
ATOM     28  C   UNL     1       7.844   3.991  25.842  0.00  0.00    +0.000 A 
ATOM     29  C   UNL     1       7.580   3.190  24.727  0.00  0.00    +0.005 A 
ENDBRANCH  23  24
ENDBRANCH   6  23
TORSDOF 5
ENDMDL
MODEL 3
REMARK VINA RESULT:      -7.4      1.876      2.954
REMARK  Name = 
REMARK  7 active torsions:
REMARK  status: ('A' for Active; 'I' for Inactive)
REMARK    1  A    between atoms: C_2  and  C_3
REMARK    2  A    between atoms: C_3  and  C_4
REMARK    3  A    between atoms: C_3  and  C_5
REMARK    4  A    between atoms: N_6  and  C_7
REMARK    5  A    between atoms: C_7  and  C_8
REMARK    6  A    between atoms: C_16  and  C_19
REMARK    7  A    between atoms: C_17  and  O_18
REMARK                            x       y       z     vdW  Elec       q    Type
REMARK                         _______ _______ _______ _____ _____    ______ ____
ROOT
ATOM      1  C   UNL     1       8.274   1.449  25.235  0.00  0.00    +0.145 C 
ATOM      2  C   UNL     1       8.436   0.006  25.664  0.00  0.00    +0.129 C 
ATOM      3  C   UNL     1       8.102  -0.887  24.715  0.00  0.00    +0.103 C 
ATOM      4  C   UNL     1       7.999  -0.097  23.475  0.00  0.00    +0.253 C 
ATOM      5  O   UNL     1       7.866  -0.562  22.359  0.00  0.00    -0.270 OA
ATOM      6  N   UNL     1       8.196   1.232  23.802  0.00  0.00    -0.283 N 
ENDROOT
BRANCH   3   7
ATOM      7  C   UNL     1       8.018  -2.344  24.919  0.00  0.00    +0.110 C 
ATOM      8  C   UNL     1       6.815  -3.129  24.526  0.00  0.00    +0.030 A 
ATOM      9  C   UNL     1       5.597  -2.773  23.969  0.00  0.00    +0.012 A 
ATOM     10  C   UNL     1       4.631  -3.772  23.753  0.00  0.00    +0.001 A 
ATOM     11  C   UNL     1       4.868  -5.107  24.119  0.00  0.00    +0.002 A 
ATOM     12  C   UNL     1       6.080  -5.463  24.706  0.00  0.00    +0.030 A 
ATOM     13  C   UNL     1       7.014  -4.454  24.885  0.00  0.00    +0.122 A 
ATOM     14  S   UNL     1       8.581  -4.600  25.628  0.00  0.00    +0.100 S 
ATOM     15  O   UNL     1       8.365  -4.950  27.015  0.00  0.00    -0.146 OA
ATOM     16  O   UNL     1       9.406  -5.379  24.738  0.00  0.00    -0.146 OA
ATOM     17  N   UNL     1       8.972  -3.008  25.511  0.00  0.00    -0.128 NA
ENDBRANCH   3   7
BRANCH   1  18
ATOM     18  C   UNL     1       6.953   2.053  25.821  0.00  0.00    +0.011 C 
ATOM     19  C   UNL     1       7.210   3.261  26.733  0.00  0.00    +0.009 C 
ATOM     20  C   UNL     1       5.944   2.480  24.749  0.00  0.00    +0.009 C 
ENDBRANCH   1  18
BRANCH   2  21
ATOM     21  O   UNL     1       8.914  -0.275  26.920  0.00  0.00    -0.508 OA
ATOM     22  H   UNL     1       9.596   0.396  27.140  0.00  0.00    +0.292 HD
ENDBRANCH   2  21
BRANCH   6  23
ATOM     23  C   UNL     1       8.521   2.242  22.815  0.00  0.00    +0.144 C 
BRANCH  23  24
ATOM     24  C   UNL     1       9.473   3.321  23.282  0.00  0.00    -0.030 A 
ATOM     25  C   UNL     1       8.990   4.564  23.719  0.00  0.00    +0.005 A 
ATOM     26  C   UNL     1       9.869   5.622  23.964  0.00  0.00    +0.000 A 
ATOM     27  C   UNL     1      11.241   5.444  23.796  0.00  0.00    +0.000 A 
ATOM     28  C   UNL     1      11.738   4.198  23.422  0.00  0.00    +0.000 A 
ATOM     29  C   UNL     1      10.859   3.138  23.175  0.00  0.00    +0.005 A 
ENDBRANCH  23  24
ENDBRANCH   6  23
TORSDOF 5
ENDMDL
MODEL 4
REMARK VINA RESULT:      -7.3      1.451      2.586
REMARK  Name = 
REMARK  7 active torsions:
REMARK  status: ('A' for Active; 'I' for Inactive)
REMARK    1  A    between atoms: C_2  and  C_3
REMARK    2  A    between atoms: C_3  and  C_4
REMARK    3  A    between atoms: C_3  and  C_5
REMARK    4  A    between atoms: N_6  and  C_7
REMARK    5  A    between atoms: C_7  and  C_8
REMARK    6  A    between atoms: C_16  and  C_19
REMARK    7  A    between atoms: C_17  and  O_18
REMARK                            x       y       z     vdW  Elec       q    Type
REMARK                         _______ _______ _______ _____ _____    ______ ____
ROOT
ATOM      1  C   UNL     1       8.713   0.867  25.297  0.00  0.00    +0.145 C 
ATOM      2  C   UNL     1       8.625  -0.621  25.560  0.00  0.00    +0.129 C 
ATOM      3  C   UNL     1       8.681  -1.377  24.449  0.00  0.00    +0.103 C 
ATOM      4  C   UNL     1       9.136  -0.456  23.392  0.00  0.00    +0.253 C 
ATOM      5  O   UNL     1       9.461  -0.790  22.267  0.00  0.00    -0.270 OA
ATOM      6  N   UNL     1       9.230   0.808  23.943  0.00  0.00    -0.283 N 
ENDROOT
BRANCH   3   7
ATOM      7  C   UNL     1       8.464  -2.834  24.407  0.00  0.00    +0.110 C 
ATOM      8  C   UNL     1       7.558  -3.469  23.409  0.00  0.00    +0.030 A 
ATOM      9  C   UNL     1       6.754  -2.956  22.405  0.00  0.00    +0.012 A 
ATOM     10  C   UNL     1       5.968  -3.840  21.644  0.00  0.00    +0.001 A 
ATOM     11  C   UNL     1       5.962  -5.219  21.908  0.00  0.00    +0.002 A 
ATOM     12  C   UNL     1       6.746  -5.736  22.936  0.00  0.00    +0.030 A 
ATOM     13  C   UNL     1       7.522  -4.834  23.650  0.00  0.00    +0.122 A 
ATOM     14  S   UNL     1       8.555  -5.188  25.005  0.00  0.00    +0.100 S 
ATOM     15  O   UNL     1       7.704  -5.649  26.081  0.00  0.00    -0.146 OA
ATOM     16  O   UNL     1       9.673  -5.948  24.505  0.00  0.00    -0.146 OA
ATOM     17  N   UNL     1       9.008  -3.632  25.283  0.00  0.00    -0.128 NA
ENDBRANCH   3   7
BRANCH   1  18
ATOM     18  C   UNL     1       7.293   1.524  25.366  0.00  0.00    +0.011 C 
ATOM     19  C   UNL     1       6.181   0.503  25.643  0.00  0.00    +0.009 C 
ATOM     20  C   UNL     1       7.181   2.636  26.415  0.00  0.00    +0.009 C 
ENDBRANCH   1  18
BRANCH   2  21
ATOM     21  O   UNL     1       8.526  -1.073  26.853  0.00  0.00    -0.508 OA
ATOM     22  H   UNL     1       8.835  -2.005  26.871  0.00  0.00    +0.292 HD
ENDBRANCH   2  21
BRANCH   6  23
ATOM     23  C   UNL     1       9.976   1.882  23.316  0.00  0.00    +0.144 C 
BRANCH  23  24
ATOM     24  C   UNL     1       9.212   3.173  23.123  0.00  0.00    -0.030 A 
ATOM     25  C   UNL     1       9.565   4.329  23.836  0.00  0.00    +0.005 A 
ATOM     26  C   UNL     1       8.746   5.460  23.805  0.00  0.00    +0.000 A 
ATOM     27  C   UNL     1       7.577   5.457  23.046  0.00  0.00    +0.000 A 
ATOM     28  C   UNL     1       7.248   4.337  22.285  0.00  0.00    +0.000 A 
ATOM     29  C   UNL     1       8.066   3.204  22.316  0.00  0.00    +0.005 A 
ENDBRANCH  23  24
ENDBRANCH   6  23
TORSDOF 5
ENDMDL
MODEL 5
REMARK VINA RESULT:      -7.3      3.093      4.357
REMARK  Name = 
REMARK  7 active torsions:
REMARK  status: ('A' for Active; 'I' for Inactive)
REMARK    1  A    between atoms: C_2  and  C_3
REMARK    2  A    between atoms: C_3  and  C_4
REMARK    3  A    between atoms: C_3  and  C_5
REMARK    4  A    between atoms: N_6  and  C_7
REMARK    5  A    between atoms: C_7  and  C_8
REMARK    6  A    between atoms: C_16  and  C_19
REMARK    7  A    between atoms: C_17  and  O_18
REMARK                            x       y       z     vdW  Elec       q    Type
REMARK                         _______ _______ _______ _____ _____    ______ ____
ROOT
ATOM      1  C   UNL     1       7.888  -2.115  22.952  0.00  0.00    +0.145 C 
ATOM      2  C   UNL     1       7.128  -3.403  23.182  0.00  0.00    +0.129 C 
ATOM      3  C   UNL     1       6.145  -3.303  24.095  0.00  0.00    +0.103 C 
ATOM      4  C   UNL     1       5.972  -1.854  24.302  0.00  0.00    +0.253 C 
ATOM      5  O   UNL     1       5.071  -1.342  24.941  0.00  0.00    -0.270 OA
ATOM      6  N   UNL     1       6.934  -1.201  23.555  0.00  0.00    -0.283 N 
ENDROOT
BRANCH   3   7
ATOM      7  C   UNL     1       5.359  -4.434  24.618  0.00  0.00    +0.110 C 
ATOM      8  C   UNL     1       5.553  -4.960  25.998  0.00  0.00    +0.030 A 
ATOM      9  C   UNL     1       6.416  -4.616  27.025  0.00  0.00    +0.012 A 
ATOM     10  C   UNL     1       6.377  -5.353  28.223  0.00  0.00    +0.001 A 
ATOM     11  C   UNL     1       5.505  -6.443  28.377  0.00  0.00    +0.002 A 
ATOM     12  C   UNL     1       4.656  -6.811  27.337  0.00  0.00    +0.030 A 
ATOM     13  C   UNL     1       4.711  -6.047  26.180  0.00  0.00    +0.122 A 
ATOM     14  S   UNL     1       3.807  -6.302  24.715  0.00  0.00    +0.100 S 
ATOM     15  O   UNL     1       4.234  -7.570  24.164  0.00  0.00    -0.146 OA
ATOM     16  O   UNL     1       2.428  -5.994  25.004  0.00  0.00    -0.146 OA
ATOM     17  N   UNL     1       4.497  -5.070  23.874  0.00  0.00    -0.128 NA
ENDBRANCH   3   7
BRANCH   1  18
ATOM     18  C   UNL     1       9.256  -2.138  23.712  0.00  0.00    +0.011 C 
ATOM     19  C   UNL     1       9.493  -3.455  24.465  0.00  0.00    +0.009 C 
ATOM     20  C   UNL     1      10.467  -1.891  22.805  0.00  0.00    +0.009 C 
ENDBRANCH   1  18
BRANCH   2  21
ATOM     21  O   UNL     1       7.462  -4.522  22.459  0.00  0.00    -0.508 OA
ATOM     22  H   UNL     1       7.845  -5.179  23.081  0.00  0.00    +0.292 HD
ENDBRANCH   2  21
BRANCH   6  23
ATOM     23  C   UNL     1       6.850   0.209  23.227  0.00  0.00    +0.144 C 
BRANCH  23  24
ATOM     24  C   UNL     1       8.169   0.949  23.212  0.00  0.00    -0.030 A 
ATOM     25  C   UNL     1       8.701   1.491  24.392  0.00  0.00    +0.005 A 
ATOM     26  C   UNL     1       9.813   2.336  24.347  0.00  0.00    +0.000 A 
ATOM     27  C   UNL     1      10.417   2.633  23.127  0.00  0.00    +0.000 A 
ATOM     28  C   UNL     1       9.936   2.052  21.956  0.00  0.00    +0.000 A 
ATOM     29  C   UNL     1       8.823   1.207  21.999  0.00  0.00    +0.005 A 
ENDBRANCH  23  24
ENDBRANCH   6  23
TORSDOF 5
ENDMDL
MODEL 6
REMARK VINA RESULT:      -7.2      1.970      2.421
REMARK  Name = 
REMARK  7 active torsions:
REMARK  status: ('A' for Active; 'I' for Inactive)
REMARK    1  A    between atoms: C_2  and  C_3
REMARK    2  A    between atoms: C_3  and  C_4
REMARK    3  A    between atoms: C_3  and  C_5
REMARK    4  A    between atoms: N_6  and  C_7
REMARK    5  A    between atoms: C_7  and  C_8
REMARK    6  A    between atoms: C_16  and  C_19
REMARK    7  A    between atoms: C_17  and  O_18
REMARK                            x       y       z     vdW  Elec       q    Type
REMARK                         _______ _______ _______ _____ _____    ______ ____
ROOT
ATOM      1  C   UNL     1       9.163  -1.195  23.563  0.00  0.00    +0.145 C 
ATOM      2  C   UNL     1       8.785  -2.531  24.163  0.00  0.00    +0.129 C 
ATOM      3  C   UNL     1       7.571  -2.547  24.743  0.00  0.00    +0.103 C 
ATOM      4  C   UNL     1       6.921  -1.306  24.285  0.00  0.00    +0.253 C 
ATOM      5  O   UNL     1       5.751  -1.022  24.465  0.00  0.00    -0.270 OA
ATOM      6  N   UNL     1       7.840  -0.599  23.532  0.00  0.00    -0.283 N 
ENDROOT
BRANCH   3   7
ATOM      7  C   UNL     1       7.026  -3.665  25.532  0.00  0.00    +0.110 C 
ATOM      8  C   UNL     1       6.179  -4.726  24.920  0.00  0.00    +0.030 A 
ATOM      9  C   UNL     1       5.701  -4.926  23.635  0.00  0.00    +0.012 A 
ATOM     10  C   UNL     1       4.869  -6.032  23.383  0.00  0.00    +0.001 A 
ATOM     11  C   UNL     1       4.493  -6.909  24.413  0.00  0.00    +0.002 A 
ATOM     12  C   UNL     1       4.947  -6.695  25.712  0.00  0.00    +0.030 A 
ATOM     13  C   UNL     1       5.781  -5.605  25.916  0.00  0.00    +0.122 A 
ATOM     14  S   UNL     1       6.455  -5.074  27.429  0.00  0.00    +0.100 S 
ATOM     15  O   UNL     1       5.350  -4.667  28.270  0.00  0.00    -0.146 OA
ATOM     16  O   UNL     1       7.431  -6.056  27.832  0.00  0.00    -0.146 OA
ATOM     17  N   UNL     1       7.209  -3.746  26.821  0.00  0.00    -0.128 NA
ENDBRANCH   3   7
BRANCH   1  18
ATOM     18  C   UNL     1      10.144  -0.423  24.508  0.00  0.00    +0.011 C 
ATOM     19  C   UNL     1      10.836   0.755  23.807  0.00  0.00    +0.009 C 
ATOM     20  C   UNL     1       9.478   0.113  25.780  0.00  0.00    +0.009 C 
ENDBRANCH   1  18
BRANCH   2  21
ATOM     21  O   UNL     1       9.653  -3.590  24.055  0.00  0.00    -0.508 OA
ATOM     22  H   UNL     1      10.543  -3.280  24.332  0.00  0.00    +0.292 HD
ENDBRANCH   2  21
BRANCH   6  23
ATOM     23  C   UNL     1       7.458   0.473  22.634  0.00  0.00    +0.144 C 
BRANCH  23  24
ATOM     24  C   UNL     1       7.533   1.866  23.220  0.00  0.00    -0.030 A 
ATOM     25  C   UNL     1       8.258   2.878  22.573  0.00  0.00    +0.005 A 
ATOM     26  C   UNL     1       8.488   4.102  23.207  0.00  0.00    +0.000 A 
ATOM     27  C   UNL     1       7.980   4.335  24.483  0.00  0.00    +0.000 A 
ATOM     28  C   UNL     1       7.207   3.361  25.110  0.00  0.00    +0.000 A 
ATOM     29  C   UNL     1       6.976   2.135  24.478  0.00  0.00    +0.005 A 
ENDBRANCH  23  24
ENDBRANCH   6  23
TORSDOF 5
ENDMDL
MODEL 7
REMARK VINA RESULT:      -7.2      3.046      5.297
REMARK  Name = 
REMARK  7 active torsions:
REMARK  status: ('A' for Active; 'I' for Inactive)
REMARK    1  A    between atoms: C_2  and  C_3
REMARK    2  A    between atoms: C_3  and  C_4
REMARK    3  A    between atoms: C_3  and  C_5
REMARK    4  A    between atoms: N_6  and  C_7
REMARK    5  A    between atoms: C_7  and  C_8
REMARK    6  A    between atoms: C_16  and  C_19
REMARK    7  A    between atoms: C_17  and  O_18
REMARK                            x       y       z     vdW  Elec       q    Type
REMARK                         _______ _______ _______ _____ _____    ______ ____
ROOT
ATOM      1  C   UNL     1       7.540  -2.740  23.687  0.00  0.00    +0.145 C 
ATOM      2  C   UNL     1       6.654  -3.234  24.809  0.00  0.00    +0.129 C 
ATOM      3  C   UNL     1       7.205  -4.213  25.550  0.00  0.00    +0.103 C 
ATOM      4  C   UNL     1       8.629  -4.215  25.169  0.00  0.00    +0.253 C 
ATOM      5  O   UNL     1       9.501  -4.854  25.728  0.00  0.00    -0.270 OA
ATOM      6  N   UNL     1       8.798  -3.288  24.158  0.00  0.00    -0.283 N 
ENDROOT
BRANCH   3   7
ATOM      7  C   UNL     1       6.504  -4.975  26.598  0.00  0.00    +0.110 C 
ATOM      8  C   UNL     1       5.220  -5.682  26.337  0.00  0.00    +0.030 A 
ATOM      9  C   UNL     1       4.414  -5.790  25.215  0.00  0.00    +0.012 A 
ATOM     10  C   UNL     1       3.212  -6.515  25.308  0.00  0.00    +0.001 A 
ATOM     11  C   UNL     1       2.806  -7.099  26.519  0.00  0.00    +0.002 A 
ATOM     12  C   UNL     1       3.599  -6.969  27.656  0.00  0.00    +0.030 A 
ATOM     13  C   UNL     1       4.785  -6.263  27.519  0.00  0.00    +0.122 A 
ATOM     14  S   UNL     1       5.940  -5.906  28.772  0.00  0.00    +0.100 S 
ATOM     15  O   UNL     1       5.279  -5.046  29.729  0.00  0.00    -0.146 OA
ATOM     16  O   UNL     1       6.574  -7.149  29.137  0.00  0.00    -0.146 OA
ATOM     17  N   UNL     1       6.946  -5.015  27.825  0.00  0.00    -0.128 NA
ENDBRANCH   3   7
BRANCH   1  18
ATOM     18  C   UNL     1       7.094  -3.357  22.319  0.00  0.00    +0.011 C 
ATOM     19  C   UNL     1       7.182  -4.890  22.305  0.00  0.00    +0.009 C 
ATOM     20  C   UNL     1       5.673  -2.964  21.901  0.00  0.00    +0.009 C 
ENDBRANCH   1  18
BRANCH   2  21
ATOM     21  O   UNL     1       5.421  -2.660  25.000  0.00  0.00    -0.508 OA
ATOM     22  H   UNL     1       5.545  -1.859  25.555  0.00  0.00    +0.292 HD
ENDBRANCH   2  21
BRANCH   6  23
ATOM     23  C   UNL     1      10.097  -2.761  23.787  0.00  0.00    +0.144 C 
BRANCH  23  24
ATOM     24  C   UNL     1      10.109  -1.310  23.360  0.00  0.00    -0.030 A 
ATOM     25  C   UNL     1      10.252  -0.285  24.307  0.00  0.00    +0.005 A 
ATOM     26  C   UNL     1      10.069   1.051  23.940  0.00  0.00    +0.000 A 
ATOM     27  C   UNL     1       9.763   1.378  22.621  0.00  0.00    +0.000 A 
ATOM     28  C   UNL     1       9.679   0.374  21.659  0.00  0.00    +0.000 A 
ATOM     29  C   UNL     1       9.860  -0.963  22.024  0.00  0.00    +0.005 A 
ENDBRANCH  23  24
ENDBRANCH   6  23
TORSDOF 5
ENDMDL
MODEL 8
REMARK VINA RESULT:      -7.1      3.466      5.056
REMARK  Name = 
REMARK  7 active torsions:
REMARK  status: ('A' for Active; 'I' for Inactive)
REMARK    1  A    between atoms: C_2  and  C_3
REMARK    2  A    between atoms: C_3  and  C_4
REMARK    3  A    between atoms: C_3  and  C_5
REMARK    4  A    between atoms: N_6  and  C_7
REMARK    5  A    between atoms: C_7  and  C_8
REMARK    6  A    between atoms: C_16  and  C_19
REMARK    7  A    between atoms: C_17  and  O_18
REMARK                            x       y       z     vdW  Elec       q    Type
REMARK                         _______ _______ _______ _____ _____    ______ ____
ROOT
ATOM      1  C   UNL     1       8.335  -2.739  25.816  0.00  0.00    +0.145 C 
ATOM      2  C   UNL     1       7.155  -3.684  25.859  0.00  0.00    +0.129 C 
ATOM      3  C   UNL     1       6.576  -3.891  24.662  0.00  0.00    +0.103 C 
ATOM      4  C   UNL     1       7.533  -3.346  23.684  0.00  0.00    +0.253 C 
ATOM      5  O   UNL     1       7.450  -3.477  22.476  0.00  0.00    -0.270 OA
ATOM      6  N   UNL     1       8.577  -2.773  24.386  0.00  0.00    -0.283 N 
ENDROOT
BRANCH   3   7
ATOM      7  C   UNL     1       5.324  -4.637  24.447  0.00  0.00    +0.110 C 
ATOM      8  C   UNL     1       4.017  -4.159  24.979  0.00  0.00    +0.030 A 
ATOM      9  C   UNL     1       3.654  -3.061  25.740  0.00  0.00    +0.012 A 
ATOM     10  C   UNL     1       2.308  -2.912  26.122  0.00  0.00    +0.001 A 
ATOM     11  C   UNL     1       1.343  -3.871  25.773  0.00  0.00    +0.002 A 
ATOM     12  C   UNL     1       1.709  -4.991  25.033  0.00  0.00    +0.030 A 
ATOM     13  C   UNL     1       3.041  -5.092  24.658  0.00  0.00    +0.122 A 
ATOM     14  S   UNL     1       3.785  -6.395  23.777  0.00  0.00    +0.100 S 
ATOM     15  O   UNL     1       3.698  -7.576  24.608  0.00  0.00    -0.146 OA
ATOM     16  O   UNL     1       3.279  -6.343  22.428  0.00  0.00    -0.146 OA
ATOM     17  N   UNL     1       5.311  -5.787  23.832  0.00  0.00    -0.128 NA
ENDBRANCH   3   7
BRANCH   1  18
ATOM     18  C   UNL     1       7.920  -1.315  26.318  0.00  0.00    +0.011 C 
ATOM     19  C   UNL     1       9.098  -0.532  26.916  0.00  0.00    +0.009 C 
ATOM     20  C   UNL     1       7.279  -0.443  25.233  0.00  0.00    +0.009 C 
ENDBRANCH   1  18
BRANCH   2  21
ATOM     21  O   UNL     1       6.791  -4.258  27.053  0.00  0.00    -0.508 OA
ATOM     22  H   UNL     1       5.864  -4.569  26.968  0.00  0.00    +0.292 HD
ENDBRANCH   2  21
BRANCH   6  23
ATOM     23  C   UNL     1       9.856  -2.464  23.776  0.00  0.00    +0.144 C 
BRANCH  23  24
ATOM     24  C   UNL     1       9.954  -1.097  23.136  0.00  0.00    -0.030 A 
ATOM     25  C   UNL     1      10.512  -0.016  23.835  0.00  0.00    +0.005 A 
ATOM     26  C   UNL     1      10.426   1.281  23.323  0.00  0.00    +0.000 A 
ATOM     27  C   UNL     1       9.801   1.510  22.099  0.00  0.00    +0.000 A 
ATOM     28  C   UNL     1       9.298   0.437  21.367  0.00  0.00    +0.000 A 
ATOM     29  C   UNL     1       9.381  -0.861  21.878  0.00  0.00    +0.005 A 
ENDBRANCH  23  24
ENDBRANCH   6  23
TORSDOF 5
ENDMDL
MODEL 9
REMARK VINA RESULT:      -7.1      3.048      7.815
REMARK  Name = 
REMARK  7 active torsions:
REMARK  status: ('A' for Active; 'I' for Inactive)
REMARK    1  A    between atoms: C_2  and  C_3
REMARK    2  A    between atoms: C_3  and  C_4
REMARK    3  A    between atoms: C_3  and  C_5
REMARK    4  A    between atoms: N_6  and  C_7
REMARK    5  A    between atoms: C_7  and  C_8
REMARK    6  A    between atoms: C_16  and  C_19
REMARK    7  A    between atoms: C_17  and  O_18
REMARK                            x       y       z     vdW  Elec       q    Type
REMARK                         _______ _______ _______ _____ _____    ______ ____
ROOT
ATOM      1  C   UNL     1       7.663  -1.050  24.405  0.00  0.00    +0.145 C 
ATOM      2  C   UNL     1       7.393   0.428  24.586  0.00  0.00    +0.129 C 
ATOM      3  C   UNL     1       8.028   1.212  23.696  0.00  0.00    +0.103 C 
ATOM      4  C   UNL     1       8.512   0.285  22.657  0.00  0.00    +0.253 C 
ATOM      5  O   UNL     1       9.005   0.621  21.596  0.00  0.00    -0.270 OA
ATOM      6  N   UNL     1       8.201  -1.000  23.058  0.00  0.00    -0.283 N 
ENDROOT
BRANCH   3   7
ATOM      7  C   UNL     1       8.063   2.685  23.741  0.00  0.00    +0.110 C 
ATOM      8  C   UNL     1       9.335   3.449  23.610  0.00  0.00    +0.030 A 
ATOM      9  C   UNL     1      10.656   3.062  23.462  0.00  0.00    +0.012 A 
ATOM     10  C   UNL     1      11.653   4.053  23.407  0.00  0.00    +0.001 A 
ATOM     11  C   UNL     1      11.333   5.415  23.533  0.00  0.00    +0.002 A 
ATOM     12  C   UNL     1      10.009   5.806  23.712  0.00  0.00    +0.030 A 
ATOM     13  C   UNL     1       9.053   4.801  23.741  0.00  0.00    +0.122 A 
ATOM     14  S   UNL     1       7.343   4.992  23.994  0.00  0.00    +0.100 S 
ATOM     15  O   UNL     1       7.164   5.506  25.335  0.00  0.00    -0.146 OA
ATOM     16  O   UNL     1       6.806   5.643  22.825  0.00  0.00    -0.146 OA
ATOM     17  N   UNL     1       6.987   3.388  23.962  0.00  0.00    -0.128 NA
ENDBRANCH   3   7
BRANCH   1  18
ATOM     18  C   UNL     1       8.715  -1.550  25.451  0.00  0.00    +0.011 C 
ATOM     19  C   UNL     1       9.093  -0.469  26.474  0.00  0.00    +0.009 C 
ATOM     20  C   UNL     1       8.268  -2.795  26.226  0.00  0.00    +0.009 C 
ENDBRANCH   1  18
BRANCH   2  21
ATOM     21  O   UNL     1       6.539   0.843  25.579  0.00  0.00    -0.508 OA
ATOM     22  H   UNL     1       5.709   0.325  25.498  0.00  0.00    +0.292 HD
ENDBRANCH   2  21
BRANCH   6  23
ATOM     23  C   UNL     1       8.196  -2.127  22.146  0.00  0.00    +0.144 C 
BRANCH  23  24
ATOM     24  C   UNL     1       7.185  -3.208  22.458  0.00  0.00    -0.030 A 
ATOM     25  C   UNL     1       5.810  -2.962  22.332  0.00  0.00    +0.005 A 
ATOM     26  C   UNL     1       4.877  -3.890  22.804  0.00  0.00    +0.000 A 
ATOM     27  C   UNL     1       5.307  -5.081  23.385  0.00  0.00    +0.000 A 
ATOM     28  C   UNL     1       6.669  -5.364  23.459  0.00  0.00    +0.000 A 
ATOM     29  C   UNL     1       7.604  -4.437  22.990  0.00  0.00    +0.005 A 
ENDBRANCH  23  24
ENDBRANCH   6  23
TORSDOF 5
ENDMDL
