MODEL 1
REMARK VINA RESULT:      -8.1      0.000      0.000
REMARK  Name = 
REMARK  5 active torsions:
REMARK  status: ('A' for Active; 'I' for Inactive)
REMARK    1  A    between atoms: O_1  and  C_2
REMARK    2  A    between atoms: C_2  and  C_4
REMARK    3  A    between atoms: C_4  and  N_5
REMARK    4  A    between atoms: C_6  and  C_14
REMARK    5  A    between atoms: C_19  and  C_22
REMARK                            x       y       z     vdW  Elec       q    Type
REMARK                         _______ _______ _______ _____ _____    ______ ____
ROOT
ATOM      1  C   UNL     1       8.061  -2.046  23.724  0.00  0.00    +0.266 C 
ATOM      2  N   UNL     1       8.019  -0.713  24.105  0.00  0.00    -0.259 N 
ATOM      3  H   UNL     1       7.414  -0.384  24.848  0.00  0.00    +0.157 HD
ATOM      4  C   UNL     1       8.764   0.289  23.494  0.00  0.00    +0.165 A 
ATOM      5  S   UNL     1       9.326   0.105  21.888  0.00  0.00    -0.060 S 
ATOM      6  C   UNL     1       9.958   1.684  21.914  0.00  0.00    +0.077 A 
ATOM      7  C   UNL     1       9.772   2.259  23.153  0.00  0.00    +0.082 A 
ATOM      8  N   UNL     1       8.997   1.476  24.028  0.00  0.00    -0.225 NA
ATOM      9  O   UNL     1       8.846  -2.488  22.890  0.00  0.00    -0.268 OA
ENDROOT
BRANCH   1  18
ATOM     10  N   UNL     1       7.281  -3.953  25.317  0.00  0.00    -0.325 N 
ATOM     11  C   UNL     1       6.113  -4.702  25.463  0.00  0.00    +0.050 A 
ATOM     12  C   UNL     1       5.186  -4.199  24.552  0.00  0.00    +0.001 A 
ATOM     13  C   UNL     1       3.911  -4.789  24.453  0.00  0.00    +0.010 A 
ATOM     14  C   UNL     1       3.587  -5.872  25.272  0.00  0.00    +0.001 A 
ATOM     15  C   UNL     1       4.518  -6.365  26.180  0.00  0.00    +0.002 A 
ATOM     16  C   UNL     1       5.820  -3.140  23.869  0.00  0.00    +0.041 A 
ATOM     17  C   UNL     1       5.791  -5.793  26.294  0.00  0.00    +0.026 A 
ATOM     18  C   UNL     1       7.120  -2.984  24.338  0.00  0.00    +0.106 A 
BRANCH  10  19
ATOM     19  C   UNL     1       8.505  -4.275  26.027  0.00  0.00    +0.242 C 
BRANCH  19  20
ATOM     20  C   UNL     1       9.370  -5.195  25.211  0.00  0.00    +0.325 C 
ATOM     21  O   UNL     1       9.017  -5.631  24.122  0.00  0.00    -0.249 OA
BRANCH  20  22
ATOM     22  O   UNL     1      10.552  -5.529  25.773  0.00  0.00    -0.479 OA
ATOM     23  H   UNL     1      11.175  -6.027  25.210  0.00  0.00    +0.295 HD
ENDBRANCH  20  22
ENDBRANCH  19  20
ENDBRANCH  10  19
ENDBRANCH   1  18
BRANCH   7  24
ATOM     24  C   UNL     1      10.222   3.622  23.485  0.00  0.00    +0.019 A 
ATOM     25  C   UNL     1       9.396   4.635  24.024  0.00  0.00    +0.050 A 
ATOM     26 CL   UNL     1       7.676   4.499  24.196  0.00  0.00    -0.083 Cl
ATOM     27  C   UNL     1       9.938   5.869  24.422  0.00  0.00    +0.020 A 
ATOM     28  C   UNL     1      11.295   6.135  24.251  0.00  0.00    +0.001 A 
ATOM     29  C   UNL     1      12.109   5.169  23.669  0.00  0.00    +0.001 A 
ATOM     30  C   UNL     1      11.579   3.929  23.291  0.00  0.00    +0.011 A 
ENDBRANCH   7  24
TORSDOF 5
ENDMDL
MODEL 2
REMARK VINA RESULT:      -8.1      1.385      2.235
REMARK  Name = 
REMARK  5 active torsions:
REMARK  status: ('A' for Active; 'I' for Inactive)
REMARK    1  A    between atoms: O_1  and  C_2
REMARK    2  A    between atoms: C_2  and  C_4
REMARK    3  A    between atoms: C_4  and  N_5
REMARK    4  A    between atoms: C_6  and  C_14
REMARK    5  A    between atoms: C_19  and  C_22
REMARK                            x       y       z     vdW  Elec       q    Type
REMARK                         _______ _______ _______ _____ _____    ______ ____
ROOT
ATOM      1  C   UNL     1       8.622  -2.563  23.859  0.00  0.00    +0.266 C 
ATOM      2  N   UNL     1       8.437  -1.238  24.224  0.00  0.00    -0.259 N 
ATOM      3  H   UNL     1       7.827  -0.970  24.986  0.00  0.00    +0.157 HD
ATOM      4  C   UNL     1       9.034  -0.167  23.570  0.00  0.00    +0.165 A 
ATOM      5  S   UNL     1       9.552  -0.312  21.945  0.00  0.00    -0.060 S 
ATOM      6  C   UNL     1       9.993   1.331  21.924  0.00  0.00    +0.077 A 
ATOM      7  C   UNL     1       9.789   1.901  23.163  0.00  0.00    +0.082 A 
ATOM      8  N   UNL     1       9.147   1.048  24.079  0.00  0.00    -0.225 NA
ATOM      9  O   UNL     1       9.421  -2.925  23.000  0.00  0.00    -0.268 OA
ENDROOT
BRANCH   1  18
ATOM     10  N   UNL     1       6.724  -4.330  24.105  0.00  0.00    -0.325 N 
ATOM     11  C   UNL     1       6.216  -5.094  25.156  0.00  0.00    +0.050 A 
ATOM     12  C   UNL     1       7.010  -4.837  26.272  0.00  0.00    +0.001 A 
ATOM     13  C   UNL     1       6.709  -5.455  27.502  0.00  0.00    +0.010 A 
ATOM     14  C   UNL     1       5.619  -6.321  27.590  0.00  0.00    +0.001 A 
ATOM     15  C   UNL     1       4.833  -6.573  26.470  0.00  0.00    +0.002 A 
ATOM     16  C   UNL     1       7.997  -3.915  25.865  0.00  0.00    +0.041 A 
ATOM     17  C   UNL     1       5.115  -5.969  25.238  0.00  0.00    +0.026 A 
ATOM     18  C   UNL     1       7.823  -3.595  24.523  0.00  0.00    +0.106 A 
BRANCH  10  19
ATOM     19  C   UNL     1       6.071  -4.255  22.811  0.00  0.00    +0.242 C 
BRANCH  19  20
ATOM     20  C   UNL     1       6.613  -5.299  21.877  0.00  0.00    +0.325 C 
ATOM     21  O   UNL     1       7.549  -6.028  22.181  0.00  0.00    -0.249 OA
BRANCH  20  22
ATOM     22  O   UNL     1       6.015  -5.360  20.666  0.00  0.00    -0.479 OA
ATOM     23  H   UNL     1       5.046  -5.249  20.656  0.00  0.00    +0.295 HD
ENDBRANCH  20  22
ENDBRANCH  19  20
ENDBRANCH  10  19
ENDBRANCH   1  18
BRANCH   7  24
ATOM     24  C   UNL     1      10.087   3.313  23.458  0.00  0.00    +0.019 A 
ATOM     25  C   UNL     1       9.155   4.245  23.970  0.00  0.00    +0.050 A 
ATOM     26 CL   UNL     1       7.460   3.927  24.147  0.00  0.00    -0.083 Cl
ATOM     27  C   UNL     1       9.559   5.541  24.335  0.00  0.00    +0.020 A 
ATOM     28  C   UNL     1      10.879   5.948  24.156  0.00  0.00    +0.001 A 
ATOM     29  C   UNL     1      11.795   5.061  23.599  0.00  0.00    +0.001 A 
ATOM     30  C   UNL     1      11.404   3.762  23.254  0.00  0.00    +0.011 A 
ENDBRANCH   7  24
TORSDOF 5
ENDMDL
MODEL 3
REMARK VINA RESULT:      -7.8      2.780      9.279
REMARK  Name = 
REMARK  5 active torsions:
REMARK  status: ('A' for Active; 'I' for Inactive)
REMARK    1  A    between atoms: O_1  and  C_2
REMARK    2  A    between atoms: C_2  and  C_4
REMARK    3  A    between atoms: C_4  and  N_5
REMARK    4  A    between atoms: C_6  and  C_14
REMARK    5  A    between atoms: C_19  and  C_22
REMARK                            x       y       z     vdW  Elec       q    Type
REMARK                         _______ _______ _______ _____ _____    ______ ____
ROOT
ATOM      1  C   UNL     1       9.590   0.027  23.618  0.00  0.00    +0.266 C 
ATOM      2  N   UNL     1       8.548  -0.610  24.276  0.00  0.00    -0.259 N 
ATOM      3  H   UNL     1       7.837  -0.096  24.781  0.00  0.00    +0.157 HD
ATOM      4  C   UNL     1       8.400  -1.991  24.332  0.00  0.00    +0.165 A 
ATOM      5  S   UNL     1       9.749  -3.025  24.129  0.00  0.00    -0.060 S 
ATOM      6  C   UNL     1       8.773  -4.382  24.443  0.00  0.00    +0.077 A 
ATOM      7  C   UNL     1       7.460  -4.001  24.626  0.00  0.00    +0.082 A 
ATOM      8  N   UNL     1       7.275  -2.607  24.651  0.00  0.00    -0.225 NA
ATOM      9  O   UNL     1      10.416  -0.562  22.926  0.00  0.00    -0.268 OA
ENDROOT
BRANCH   1  18
ATOM     10  N   UNL     1       8.794   2.487  23.928  0.00  0.00    -0.325 N 
ATOM     11  C   UNL     1       9.404   3.739  23.856  0.00  0.00    +0.050 A 
ATOM     12  C   UNL     1      10.762   3.523  23.630  0.00  0.00    +0.001 A 
ATOM     13  C   UNL     1      11.631   4.621  23.482  0.00  0.00    +0.010 A 
ATOM     14  C   UNL     1      11.123   5.918  23.565  0.00  0.00    +0.001 A 
ATOM     15  C   UNL     1       9.767   6.125  23.794  0.00  0.00    +0.002 A 
ATOM     16  C   UNL     1      10.946   2.125  23.574  0.00  0.00    +0.041 A 
ATOM     17  C   UNL     1       8.886   5.047  23.944  0.00  0.00    +0.026 A 
ATOM     18  C   UNL     1       9.728   1.478  23.756  0.00  0.00    +0.106 A 
BRANCH  10  19
ATOM     19  C   UNL     1       7.355   2.329  24.037  0.00  0.00    +0.242 C 
BRANCH  19  20
ATOM     20  C   UNL     1       6.743   2.059  22.691  0.00  0.00    +0.325 C 
ATOM     21  O   UNL     1       6.635   2.928  21.835  0.00  0.00    -0.249 OA
BRANCH  20  22
ATOM     22  O   UNL     1       6.295   0.798  22.501  0.00  0.00    -0.479 OA
ATOM     23  H   UNL     1       6.972   0.095  22.491  0.00  0.00    +0.295 HD
ENDBRANCH  20  22
ENDBRANCH  19  20
ENDBRANCH  10  19
ENDBRANCH   1  18
BRANCH   7  24
ATOM     24  C   UNL     1       6.376  -4.958  24.907  0.00  0.00    +0.019 A 
ATOM     25  C   UNL     1       5.592  -5.600  23.922  0.00  0.00    +0.050 A 
ATOM     26 CL   UNL     1       5.647  -5.216  22.231  0.00  0.00    -0.083 Cl
ATOM     27  C   UNL     1       4.659  -6.589  24.277  0.00  0.00    +0.020 A 
ATOM     28  C   UNL     1       4.457  -6.925  25.613  0.00  0.00    +0.001 A 
ATOM     29  C   UNL     1       5.179  -6.261  26.598  0.00  0.00    +0.001 A 
ATOM     30  C   UNL     1       6.126  -5.290  26.250  0.00  0.00    +0.011 A 
ENDBRANCH   7  24
TORSDOF 5
ENDMDL
MODEL 4
REMARK VINA RESULT:      -7.8      3.022      9.296
REMARK  Name = 
REMARK  5 active torsions:
REMARK  status: ('A' for Active; 'I' for Inactive)
REMARK    1  A    between atoms: O_1  and  C_2
REMARK    2  A    between atoms: C_2  and  C_4
REMARK    3  A    between atoms: C_4  and  N_5
REMARK    4  A    between atoms: C_6  and  C_14
REMARK    5  A    between atoms: C_19  and  C_22
REMARK                            x       y       z     vdW  Elec       q    Type
REMARK                         _______ _______ _______ _____ _____    ______ ____
ROOT
ATOM      1  C   UNL     1       8.934   0.340  23.355  0.00  0.00    +0.266 C 
ATOM      2  N   UNL     1       7.972  -0.418  24.005  0.00  0.00    -0.259 N 
ATOM      3  H   UNL     1       7.178   0.005  24.471  0.00  0.00    +0.157 HD
ATOM      4  C   UNL     1       8.020  -1.803  24.107  0.00  0.00    +0.165 A 
ATOM      5  S   UNL     1       9.507  -2.639  23.981  0.00  0.00    -0.060 S 
ATOM      6  C   UNL     1       8.724  -4.111  24.317  0.00  0.00    +0.077 A 
ATOM      7  C   UNL     1       7.365  -3.917  24.448  0.00  0.00    +0.082 A 
ATOM      8  N   UNL     1       6.983  -2.563  24.417  0.00  0.00    -0.225 NA
ATOM      9  O   UNL     1       9.858  -0.146  22.708  0.00  0.00    -0.268 OA
ENDROOT
BRANCH   1  18
ATOM     10  N   UNL     1       7.867   2.702  23.093  0.00  0.00    -0.325 N 
ATOM     11  C   UNL     1       8.324   4.013  23.229  0.00  0.00    +0.050 A 
ATOM     12  C   UNL     1       9.642   3.944  23.676  0.00  0.00    +0.001 A 
ATOM     13  C   UNL     1      10.376   5.130  23.875  0.00  0.00    +0.010 A 
ATOM     14  C   UNL     1       9.774   6.364  23.625  0.00  0.00    +0.001 A 
ATOM     15  C   UNL     1       8.457   6.422  23.183  0.00  0.00    +0.002 A 
ATOM     16  C   UNL     1       9.957   2.575  23.805  0.00  0.00    +0.041 A 
ATOM     17  C   UNL     1       7.709   5.256  22.978  0.00  0.00    +0.026 A 
ATOM     18  C   UNL     1       8.860   1.800  23.443  0.00  0.00    +0.106 A 
BRANCH  10  19
ATOM     19  C   UNL     1       6.566   2.386  22.531  0.00  0.00    +0.242 C 
BRANCH  19  20
ATOM     20  C   UNL     1       5.537   2.239  23.617  0.00  0.00    +0.325 C 
ATOM     21  O   UNL     1       4.952   3.201  24.100  0.00  0.00    -0.249 OA
BRANCH  20  22
ATOM     22  O   UNL     1       5.321   0.975  24.043  0.00  0.00    -0.479 OA
ATOM     23  H   UNL     1       5.080   0.322  23.359  0.00  0.00    +0.295 HD
ENDBRANCH  20  22
ENDBRANCH  19  20
ENDBRANCH  10  19
ENDBRANCH   1  18
BRANCH   7  24
ATOM     24  C   UNL     1       6.419  -5.009  24.732  0.00  0.00    +0.019 A 
ATOM     25  C   UNL     1       6.174  -5.551  26.015  0.00  0.00    +0.050 A 
ATOM     26 CL   UNL     1       7.094  -5.153  27.431  0.00  0.00    -0.083 Cl
ATOM     27  C   UNL     1       5.167  -6.510  26.211  0.00  0.00    +0.020 A 
ATOM     28  C   UNL     1       4.417  -6.980  25.135  0.00  0.00    +0.001 A 
ATOM     29  C   UNL     1       4.685  -6.499  23.858  0.00  0.00    +0.001 A 
ATOM     30  C   UNL     1       5.673  -5.526  23.659  0.00  0.00    +0.011 A 
ENDBRANCH   7  24
TORSDOF 5
ENDMDL
MODEL 5
REMARK VINA RESULT:      -7.8      1.269      1.455
REMARK  Name = 
REMARK  5 active torsions:
REMARK  status: ('A' for Active; 'I' for Inactive)
REMARK    1  A    between atoms: O_1  and  C_2
REMARK    2  A    between atoms: C_2  and  C_4
REMARK    3  A    between atoms: C_4  and  N_5
REMARK    4  A    between atoms: C_6  and  C_14
REMARK    5  A    between atoms: C_19  and  C_22
REMARK                            x       y       z     vdW  Elec       q    Type
REMARK                         _______ _______ _______ _____ _____    ______ ____
ROOT
ATOM      1  C   UNL     1       7.841  -2.390  23.781  0.00  0.00    +0.266 C 
ATOM      2  N   UNL     1       7.451  -1.059  23.769  0.00  0.00    -0.259 N 
ATOM      3  H   UNL     1       6.526  -0.767  24.062  0.00  0.00    +0.157 HD
ATOM      4  C   UNL     1       8.264  -0.020  23.332  0.00  0.00    +0.165 A 
ATOM      5  S   UNL     1       9.550  -0.314  22.241  0.00  0.00    -0.060 S 
ATOM      6  C   UNL     1       9.884   1.352  22.164  0.00  0.00    +0.077 A 
ATOM      7  C   UNL     1       9.052   2.051  23.013  0.00  0.00    +0.082 A 
ATOM      8  N   UNL     1       8.058   1.256  23.612  0.00  0.00    -0.225 NA
ATOM      9  O   UNL     1       8.979  -2.765  23.517  0.00  0.00    -0.268 OA
ENDROOT
BRANCH   1  18
ATOM     10  N   UNL     1       6.569  -4.082  25.299  0.00  0.00    -0.325 N 
ATOM     11  C   UNL     1       5.622  -5.082  25.085  0.00  0.00    +0.050 A 
ATOM     12  C   UNL     1       5.290  -5.051  23.732  0.00  0.00    +0.001 A 
ATOM     13  C   UNL     1       4.367  -5.981  23.216  0.00  0.00    +0.010 A 
ATOM     14  C   UNL     1       3.790  -6.925  24.067  0.00  0.00    +0.001 A 
ATOM     15  C   UNL     1       4.125  -6.947  25.416  0.00  0.00    +0.002 A 
ATOM     16  C   UNL     1       6.051  -4.015  23.150  0.00  0.00    +0.041 A 
ATOM     17  C   UNL     1       5.041  -6.032  25.950  0.00  0.00    +0.026 A 
ATOM     18  C   UNL     1       6.848  -3.412  24.118  0.00  0.00    +0.106 A 
BRANCH  10  19
ATOM     19  C   UNL     1       7.234  -3.901  26.577  0.00  0.00    +0.242 C 
BRANCH  19  20
ATOM     20  C   UNL     1       8.356  -4.888  26.740  0.00  0.00    +0.325 C 
ATOM     21  O   UNL     1       9.440  -4.743  26.191  0.00  0.00    -0.249 OA
BRANCH  20  22
ATOM     22  O   UNL     1       8.075  -5.960  27.513  0.00  0.00    -0.479 OA
ATOM     23  H   UNL     1       8.493  -6.803  27.253  0.00  0.00    +0.295 HD
ENDBRANCH  20  22
ENDBRANCH  19  20
ENDBRANCH  10  19
ENDBRANCH   1  18
BRANCH   7  24
ATOM     24  C   UNL     1       9.109   3.514  23.171  0.00  0.00    +0.019 A 
ATOM     25  C   UNL     1       8.030   4.394  22.927  0.00  0.00    +0.050 A 
ATOM     26 CL   UNL     1       6.525   3.914  22.211  0.00  0.00    -0.083 Cl
ATOM     27  C   UNL     1       8.139   5.765  23.219  0.00  0.00    +0.020 A 
ATOM     28  C   UNL     1       9.330   6.291  23.715  0.00  0.00    +0.001 A 
ATOM     29  C   UNL     1      10.419   5.447  23.906  0.00  0.00    +0.001 A 
ATOM     30  C   UNL     1      10.310   4.077  23.638  0.00  0.00    +0.011 A 
ENDBRANCH   7  24
TORSDOF 5
ENDMDL
MODEL 6
REMARK VINA RESULT:      -7.5      1.319      1.686
REMARK  Name = 
REMARK  5 active torsions:
REMARK  status: ('A' for Active; 'I' for Inactive)
REMARK    1  A    between atoms: O_1  and  C_2
REMARK    2  A    between atoms: C_2  and  C_4
REMARK    3  A    between atoms: C_4  and  N_5
REMARK    4  A    between atoms: C_6  and  C_14
REMARK    5  A    between atoms: C_19  and  C_22
REMARK                            x       y       z     vdW  Elec       q    Type
REMARK                         _______ _______ _______ _____ _____    ______ ____
ROOT
ATOM      1  C   UNL     1       7.917  -1.815  23.354  0.00  0.00    +0.266 C 
ATOM      2  N   UNL     1       7.597  -0.522  23.740  0.00  0.00    -0.259 N 
ATOM      3  H   UNL     1       6.798  -0.318  24.328  0.00  0.00    +0.157 HD
ATOM      4  C   UNL     1       8.309   0.602  23.338  0.00  0.00    +0.165 A 
ATOM      5  S   UNL     1       9.243   0.580  21.904  0.00  0.00    -0.060 S 
ATOM      6  C   UNL     1       9.618   2.227  22.106  0.00  0.00    +0.077 A 
ATOM      7  C   UNL     1       9.074   2.705  23.280  0.00  0.00    +0.082 A 
ATOM      8  N   UNL     1       8.242   1.780  23.935  0.00  0.00    -0.225 NA
ATOM      9  O   UNL     1       8.926  -2.103  22.717  0.00  0.00    -0.268 OA
ENDROOT
BRANCH   1  18
ATOM     10  N   UNL     1       7.043  -3.847  24.729  0.00  0.00    -0.325 N 
ATOM     11  C   UNL     1       6.016  -4.778  24.571  0.00  0.00    +0.050 A 
ATOM     12  C   UNL     1       5.309  -4.420  23.425  0.00  0.00    +0.001 A 
ATOM     13  C   UNL     1       4.223  -5.209  22.997  0.00  0.00    +0.010 A 
ATOM     14  C   UNL     1       3.864  -6.341  23.728  0.00  0.00    +0.001 A 
ATOM     15  C   UNL     1       4.573  -6.690  24.873  0.00  0.00    +0.002 A 
ATOM     16  C   UNL     1       5.929  -3.262  22.910  0.00  0.00    +0.041 A 
ATOM     17  C   UNL     1       5.657  -5.920  25.315  0.00  0.00    +0.026 A 
ATOM     18  C   UNL     1       7.006  -2.904  23.714  0.00  0.00    +0.106 A 
BRANCH  10  19
ATOM     19  C   UNL     1       8.058  -3.976  25.758  0.00  0.00    +0.242 C 
BRANCH  19  20
ATOM     20  C   UNL     1       9.210  -4.810  25.271  0.00  0.00    +0.325 C 
ATOM     21  O   UNL     1       9.346  -5.986  25.584  0.00  0.00    -0.249 OA
BRANCH  20  22
ATOM     22  O   UNL     1      10.101  -4.164  24.485  0.00  0.00    -0.479 OA
ATOM     23  H   UNL     1      10.691  -3.528  24.931  0.00  0.00    +0.295 HD
ENDBRANCH  20  22
ENDBRANCH  19  20
ENDBRANCH  10  19
ENDBRANCH   1  18
BRANCH   7  24
ATOM     24  C   UNL     1       9.235   4.098  23.733  0.00  0.00    +0.019 A 
ATOM     25  C   UNL     1      10.455   4.813  23.723  0.00  0.00    +0.050 A 
ATOM     26 CL   UNL     1      11.996   4.104  23.362  0.00  0.00    -0.083 Cl
ATOM     27  C   UNL     1      10.492   6.176  24.062  0.00  0.00    +0.020 A 
ATOM     28  C   UNL     1       9.333   6.840  24.457  0.00  0.00    +0.001 A 
ATOM     29  C   UNL     1       8.136   6.135  24.528  0.00  0.00    +0.001 A 
ATOM     30  C   UNL     1       8.088   4.782  24.171  0.00  0.00    +0.011 A 
ENDBRANCH   7  24
TORSDOF 5
ENDMDL
MODEL 7
REMARK VINA RESULT:      -7.5      1.692      2.635
REMARK  Name = 
REMARK  5 active torsions:
REMARK  status: ('A' for Active; 'I' for Inactive)
REMARK    1  A    between atoms: O_1  and  C_2
REMARK    2  A    between atoms: C_2  and  C_4
REMARK    3  A    between atoms: C_4  and  N_5
REMARK    4  A    between atoms: C_6  and  C_14
REMARK    5  A    between atoms: C_19  and  C_22
REMARK                            x       y       z     vdW  Elec       q    Type
REMARK                         _______ _______ _______ _____ _____    ______ ____
ROOT
ATOM      1  C   UNL     1       8.621  -2.229  24.231  0.00  0.00    +0.266 C 
ATOM      2  N   UNL     1       8.144  -0.937  24.397  0.00  0.00    -0.259 N 
ATOM      3  H   UNL     1       7.324  -0.734  24.955  0.00  0.00    +0.157 HD
ATOM      4  C   UNL     1       8.714   0.179  23.796  0.00  0.00    +0.165 A 
ATOM      5  S   UNL     1       9.648   0.025  22.370  0.00  0.00    -0.060 S 
ATOM      6  C   UNL     1       9.817   1.716  22.282  0.00  0.00    +0.077 A 
ATOM      7  C   UNL     1       9.215   2.318  23.366  0.00  0.00    +0.082 A 
ATOM      8  N   UNL     1       8.500   1.425  24.185  0.00  0.00    -0.225 NA
ATOM      9  O   UNL     1       9.660  -2.497  23.634  0.00  0.00    -0.268 OA
ENDROOT
BRANCH   1  18
ATOM     10  N   UNL     1       6.846  -4.135  24.253  0.00  0.00    -0.325 N 
ATOM     11  C   UNL     1       6.312  -4.977  25.228  0.00  0.00    +0.050 A 
ATOM     12  C   UNL     1       6.992  -4.712  26.416  0.00  0.00    +0.001 A 
ATOM     13  C   UNL     1       6.640  -5.401  27.592  0.00  0.00    +0.010 A 
ATOM     14  C   UNL     1       5.613  -6.346  27.557  0.00  0.00    +0.001 A 
ATOM     15  C   UNL     1       4.942  -6.605  26.367  0.00  0.00    +0.002 A 
ATOM     16  C   UNL     1       7.937  -3.705  26.127  0.00  0.00    +0.041 A 
ATOM     17  C   UNL     1       5.276  -5.931  25.186  0.00  0.00    +0.026 A 
ATOM     18  C   UNL     1       7.850  -3.342  24.787  0.00  0.00    +0.106 A 
BRANCH  10  19
ATOM     19  C   UNL     1       6.295  -4.051  22.912  0.00  0.00    +0.242 C 
BRANCH  19  20
ATOM     20  C   UNL     1       6.482  -5.348  22.176  0.00  0.00    +0.325 C 
ATOM     21  O   UNL     1       7.585  -5.854  22.008  0.00  0.00    -0.249 OA
BRANCH  20  22
ATOM     22  O   UNL     1       5.352  -5.905  21.686  0.00  0.00    -0.479 OA
ATOM     23  H   UNL     1       5.405  -6.271  20.783  0.00  0.00    +0.295 HD
ENDBRANCH  20  22
ENDBRANCH  19  20
ENDBRANCH  10  19
ENDBRANCH   1  18
BRANCH   7  24
ATOM     24  C   UNL     1       9.203   3.777  23.573  0.00  0.00    +0.019 A 
ATOM     25  C   UNL     1      10.347   4.606  23.534  0.00  0.00    +0.050 A 
ATOM     26 CL   UNL     1      11.974   4.015  23.436  0.00  0.00    -0.083 Cl
ATOM     27  C   UNL     1      10.226   6.003  23.624  0.00  0.00    +0.020 A 
ATOM     28  C   UNL     1       8.978   6.597  23.796  0.00  0.00    +0.001 A 
ATOM     29  C   UNL     1       7.848   5.791  23.893  0.00  0.00    +0.001 A 
ATOM     30  C   UNL     1       7.960   4.399  23.783  0.00  0.00    +0.011 A 
ENDBRANCH   7  24
TORSDOF 5
ENDMDL
MODEL 8
REMARK VINA RESULT:      -7.3      2.826      4.787
REMARK  Name = 
REMARK  5 active torsions:
REMARK  status: ('A' for Active; 'I' for Inactive)
REMARK    1  A    between atoms: O_1  and  C_2
REMARK    2  A    between atoms: C_2  and  C_4
REMARK    3  A    between atoms: C_4  and  N_5
REMARK    4  A    between atoms: C_6  and  C_14
REMARK    5  A    between atoms: C_19  and  C_22
REMARK                            x       y       z     vdW  Elec       q    Type
REMARK                         _______ _______ _______ _____ _____    ______ ____
ROOT
ATOM      1  C   UNL     1       6.423  -5.307  25.883  0.00  0.00    +0.266 C 
ATOM      2  N   UNL     1       6.424  -4.225  25.016  0.00  0.00    -0.259 N 
ATOM      3  H   UNL     1       5.575  -3.883  24.581  0.00  0.00    +0.157 HD
ATOM      4  C   UNL     1       7.571  -3.538  24.640  0.00  0.00    +0.165 A 
ATOM      5  S   UNL     1       9.107  -4.290  24.717  0.00  0.00    -0.060 S 
ATOM      6  C   UNL     1       9.831  -2.914  24.027  0.00  0.00    +0.077 A 
ATOM      7  C   UNL     1       8.892  -1.924  23.826  0.00  0.00    +0.082 A 
ATOM      8  N   UNL     1       7.574  -2.332  24.098  0.00  0.00    -0.225 NA
ATOM      9  O   UNL     1       7.418  -5.689  26.492  0.00  0.00    -0.268 OA
ENDROOT
BRANCH   1  18
ATOM     10  N   UNL     1       4.323  -6.689  25.202  0.00  0.00    -0.325 N 
ATOM     11  C   UNL     1       3.174  -7.129  25.860  0.00  0.00    +0.050 A 
ATOM     12  C   UNL     1       3.298  -6.756  27.197  0.00  0.00    +0.001 A 
ATOM     13  C   UNL     1       2.260  -7.046  28.104  0.00  0.00    +0.010 A 
ATOM     14  C   UNL     1       1.116  -7.707  27.654  0.00  0.00    +0.001 A 
ATOM     15  C   UNL     1       1.002  -8.078  26.318  0.00  0.00    +0.002 A 
ATOM     16  C   UNL     1       4.537  -6.093  27.321  0.00  0.00    +0.041 A 
ATOM     17  C   UNL     1       2.023  -7.799  25.400  0.00  0.00    +0.026 A 
ATOM     18  C   UNL     1       5.176  -6.047  26.087  0.00  0.00    +0.106 A 
BRANCH  10  19
ATOM     19  C   UNL     1       4.486  -6.800  23.764  0.00  0.00    +0.242 C 
BRANCH  19  20
ATOM     20  C   UNL     1       3.881  -5.614  23.065  0.00  0.00    +0.325 C 
ATOM     21  O   UNL     1       2.675  -5.504  22.887  0.00  0.00    -0.249 OA
BRANCH  20  22
ATOM     22  O   UNL     1       4.763  -4.691  22.622  0.00  0.00    -0.479 OA
ATOM     23  H   UNL     1       4.693  -3.801  23.014  0.00  0.00    +0.295 HD
ENDBRANCH  20  22
ENDBRANCH  19  20
ENDBRANCH  10  19
ENDBRANCH   1  18
BRANCH   7  24
ATOM     24  C   UNL     1       9.221  -0.609  23.249  0.00  0.00    +0.019 A 
ATOM     25  C   UNL     1       9.966   0.397  23.906  0.00  0.00    +0.050 A 
ATOM     26 CL   UNL     1      10.443   0.322  25.571  0.00  0.00    -0.083 Cl
ATOM     27  C   UNL     1      10.333   1.575  23.234  0.00  0.00    +0.020 A 
ATOM     28  C   UNL     1       9.932   1.794  21.918  0.00  0.00    +0.001 A 
ATOM     29  C   UNL     1       9.150   0.840  21.277  0.00  0.00    +0.001 A 
ATOM     30  C   UNL     1       8.799  -0.346  21.934  0.00  0.00    +0.011 A 
ENDBRANCH   7  24
TORSDOF 5
ENDMDL
MODEL 9
REMARK VINA RESULT:      -7.2      3.308      9.247
REMARK  Name = 
REMARK  5 active torsions:
REMARK  status: ('A' for Active; 'I' for Inactive)
REMARK    1  A    between atoms: O_1  and  C_2
REMARK    2  A    between atoms: C_2  and  C_4
REMARK    3  A    between atoms: C_4  and  N_5
REMARK    4  A    between atoms: C_6  and  C_14
REMARK    5  A    between atoms: C_19  and  C_22
REMARK                            x       y       z     vdW  Elec       q    Type
REMARK                         _______ _______ _______ _____ _____    ______ ____
ROOT
ATOM      1  C   UNL     1       7.590   0.968  22.406  0.00  0.00    +0.266 C 
ATOM      2  N   UNL     1       6.809   0.103  23.158  0.00  0.00    -0.259 N 
ATOM      3  H   UNL     1       6.113   0.438  23.813  0.00  0.00    +0.157 HD
ATOM      4  C   UNL     1       6.928  -1.281  23.112  0.00  0.00    +0.165 A 
ATOM      5  S   UNL     1       8.387  -2.019  22.608  0.00  0.00    -0.060 S 
ATOM      6  C   UNL     1       7.744  -3.557  22.947  0.00  0.00    +0.077 A 
ATOM      7  C   UNL     1       6.434  -3.450  23.367  0.00  0.00    +0.082 A 
ATOM      8  N   UNL     1       6.005  -2.123  23.547  0.00  0.00    -0.225 NA
ATOM      9  O   UNL     1       8.378   0.593  21.543  0.00  0.00    -0.268 OA
ENDROOT
BRANCH   1  18
ATOM     10  N   UNL     1       8.299   3.297  23.332  0.00  0.00    -0.325 N 
ATOM     11  C   UNL     1       7.694   4.551  23.418  0.00  0.00    +0.050 A 
ATOM     12  C   UNL     1       6.460   4.458  22.778  0.00  0.00    +0.001 A 
ATOM     13  C   UNL     1       5.607   5.577  22.736  0.00  0.00    +0.010 A 
ATOM     14  C   UNL     1       6.007   6.773  23.335  0.00  0.00    +0.001 A 
ATOM     15  C   UNL     1       7.242   6.857  23.969  0.00  0.00    +0.002 A 
ATOM     16  C   UNL     1       6.346   3.132  22.309  0.00  0.00    +0.041 A 
ATOM     17  C   UNL     1       8.106   5.756  24.023  0.00  0.00    +0.026 A 
ATOM     18  C   UNL     1       7.482   2.407  22.651  0.00  0.00    +0.106 A 
BRANCH  10  19
ATOM     19  C   UNL     1       9.552   2.990  23.997  0.00  0.00    +0.242 C 
BRANCH  19  20
ATOM     20  C   UNL     1      10.715   3.193  23.066  0.00  0.00    +0.325 C 
ATOM     21  O   UNL     1      11.695   3.858  23.376  0.00  0.00    -0.249 OA
BRANCH  20  22
ATOM     22  O   UNL     1      10.592   2.613  21.851  0.00  0.00    -0.479 OA
ATOM     23  H   UNL     1      11.422   2.355  21.408  0.00  0.00    +0.295 HD
ENDBRANCH  20  22
ENDBRANCH  19  20
ENDBRANCH  10  19
ENDBRANCH   1  18
BRANCH   7  24
ATOM     24  C   UNL     1       5.607  -4.615  23.726  0.00  0.00    +0.019 A 
ATOM     25  C   UNL     1       5.788  -5.407  24.883  0.00  0.00    +0.050 A 
ATOM     26 CL   UNL     1       7.136  -5.257  25.963  0.00  0.00    -0.083 Cl
ATOM     27  C   UNL     1       4.877  -6.426  25.207  0.00  0.00    +0.020 A 
ATOM     28  C   UNL     1       3.799  -6.706  24.370  0.00  0.00    +0.001 A 
ATOM     29  C   UNL     1       3.640  -5.973  23.198  0.00  0.00    +0.001 A 
ATOM     30  C   UNL     1       4.533  -4.942  22.881  0.00  0.00    +0.011 A 
ENDBRANCH   7  24
TORSDOF 5
ENDMDL
