MODEL 1
REMARK VINA RESULT:      -7.2      0.000      0.000
REMARK  Name = 
REMARK  6 active torsions:
REMARK  status: ('A' for Active; 'I' for Inactive)
REMARK    1  A    between atoms: C_1  and  C_2
REMARK    2  A    between atoms: C_2  and  O_3
REMARK    3  A    between atoms: C_4  and  C_5
REMARK    4  A    between atoms: C_4  and  C_7
REMARK    5  A    between atoms: N_9  and  C_10
REMARK    6  A    between atoms: C_14  and  C_17
REMARK                            x       y       z     vdW  Elec       q    Type
REMARK                         _______ _______ _______ _____ _____    ______ ____
ROOT
ATOM      1  C   UNL     1       8.953  -0.553  23.478  0.00  0.00    +0.035 A 
ATOM      2  C   UNL     1       9.969  -0.184  24.353  0.00  0.00    +0.024 A 
ATOM      3  C   UNL     1      10.338   1.173  24.485  0.00  0.00    +0.012 A 
ATOM      4  C   UNL     1       9.763   2.201  23.710  0.00  0.00    +0.002 A 
ATOM      5  C   UNL     1       8.685   1.790  22.881  0.00  0.00    +0.050 A 
ATOM      6 CL   UNL     1       7.822   2.833  21.790  0.00  0.00    -0.083 Cl
ATOM      7  C   UNL     1       8.266   0.454  22.819  0.00  0.00    +0.044 A 
ENDROOT
BRANCH   4   8
ATOM      8  C   UNL     1      10.280   3.622  23.742  0.00  0.00    +0.002 A 
ATOM      9  C   UNL     1       9.570   4.729  24.267  0.00  0.00    +0.049 A 
ATOM     10 CL   UNL     1       7.945   4.649  24.872  0.00  0.00    -0.083 Cl
ATOM     11  C   UNL     1      10.173   5.996  24.388  0.00  0.00    +0.020 A 
ATOM     12  C   UNL     1      11.503   6.194  24.031  0.00  0.00    +0.001 A 
ATOM     13  C   UNL     1      12.211   5.141  23.479  0.00  0.00    +0.001 A 
ATOM     14  C   UNL     1      11.585   3.900  23.287  0.00  0.00    +0.010 A 
ENDBRANCH   4   8
BRANCH   1  16
ATOM     15  C   UNL     1       7.411  -2.520  23.313  0.00  0.00    +0.262 C 
ATOM     16  N   UNL     1       8.663  -1.924  23.261  0.00  0.00    -0.281 N 
ATOM     17  H   UNL     1       9.433  -2.512  22.948  0.00  0.00    +0.155 HD
ATOM     18  O   UNL     1       6.353  -1.945  23.550  0.00  0.00    -0.269 OA
BRANCH  15  21
ATOM     19  C   UNL     1       6.622  -6.061  21.802  0.00  0.00    +0.087 C 
ATOM     20  C   UNL     1       6.590  -4.575  22.082  0.00  0.00    +0.113 C 
ATOM     21  C   UNL     1       7.362  -3.989  23.031  0.00  0.00    +0.150 C 
BRANCH  21  22
ATOM     22  C   UNL     1       8.273  -4.893  23.846  0.00  0.00    +0.108 C 
ATOM     23  N   UNL     1       9.030  -5.641  24.522  0.00  0.00    -0.191 NA
ENDBRANCH  21  22
BRANCH  20  24
ATOM     24  O   UNL     1       5.718  -3.841  21.286  0.00  0.00    -0.510 OA
ATOM     25  H   UNL     1       5.889  -2.887  21.417  0.00  0.00    +0.292 HD
ENDBRANCH  20  24
ENDBRANCH  15  21
ENDBRANCH   1  16
TORSDOF 5
ENDMDL
MODEL 2
REMARK VINA RESULT:      -7.1      1.185      1.653
REMARK  Name = 
REMARK  6 active torsions:
REMARK  status: ('A' for Active; 'I' for Inactive)
REMARK    1  A    between atoms: C_1  and  C_2
REMARK    2  A    between atoms: C_2  and  O_3
REMARK    3  A    between atoms: C_4  and  C_5
REMARK    4  A    between atoms: C_4  and  C_7
REMARK    5  A    between atoms: N_9  and  C_10
REMARK    6  A    between atoms: C_14  and  C_17
REMARK                            x       y       z     vdW  Elec       q    Type
REMARK                         _______ _______ _______ _____ _____    ______ ____
ROOT
ATOM      1  C   UNL     1       8.899  -0.498  23.335  0.00  0.00    +0.035 A 
ATOM      2  C   UNL     1       9.563   0.177  22.315  0.00  0.00    +0.024 A 
ATOM      3  C   UNL     1       9.722   1.579  22.375  0.00  0.00    +0.012 A 
ATOM      4  C   UNL     1       9.176   2.368  23.408  0.00  0.00    +0.002 A 
ATOM      5  C   UNL     1       8.568   1.632  24.461  0.00  0.00    +0.050 A 
ATOM      6 CL   UNL     1       7.777   2.344  25.836  0.00  0.00    -0.083 Cl
ATOM      7  C   UNL     1       8.488   0.234  24.438  0.00  0.00    +0.044 A 
ENDROOT
BRANCH   4   8
ATOM      8  C   UNL     1       9.212   3.880  23.374  0.00  0.00    +0.002 A 
ATOM      9  C   UNL     1       8.116   4.707  23.031  0.00  0.00    +0.049 A 
ATOM     10 CL   UNL     1       6.574   4.113  22.497  0.00  0.00    -0.083 Cl
ATOM     11  C   UNL     1       8.187   6.108  23.155  0.00  0.00    +0.020 A 
ATOM     12  C   UNL     1       9.327   6.725  23.659  0.00  0.00    +0.001 A 
ATOM     13  C   UNL     1      10.429   5.946  23.967  0.00  0.00    +0.001 A 
ATOM     14  C   UNL     1      10.383   4.558  23.767  0.00  0.00    +0.010 A 
ENDBRANCH   4   8
BRANCH   1  16
ATOM     15  C   UNL     1       7.424  -2.473  22.889  0.00  0.00    +0.262 C 
ATOM     16  N   UNL     1       8.638  -1.888  23.218  0.00  0.00    -0.281 N 
ATOM     17  H   UNL     1       9.439  -2.512  23.294  0.00  0.00    +0.155 HD
ATOM     18  O   UNL     1       6.383  -1.873  22.639  0.00  0.00    -0.269 OA
BRANCH  15  21
ATOM     19  C   UNL     1       6.746  -6.205  21.861  0.00  0.00    +0.087 C 
ATOM     20  C   UNL     1       6.682  -4.696  21.928  0.00  0.00    +0.113 C 
ATOM     21  C   UNL     1       7.407  -3.968  22.813  0.00  0.00    +0.150 C 
BRANCH  21  22
ATOM     22  C   UNL     1       8.297  -4.731  23.781  0.00  0.00    +0.108 C 
ATOM     23  N   UNL     1       9.036  -5.363  24.585  0.00  0.00    -0.191 NA
ENDBRANCH  21  22
BRANCH  20  24
ATOM     24  O   UNL     1       5.833  -4.097  21.004  0.00  0.00    -0.510 OA
ATOM     25  H   UNL     1       5.437  -4.788  20.437  0.00  0.00    +0.292 HD
ENDBRANCH  20  24
ENDBRANCH  15  21
ENDBRANCH   1  16
TORSDOF 5
ENDMDL
MODEL 3
REMARK VINA RESULT:      -6.8      1.598      1.900
REMARK  Name = 
REMARK  6 active torsions:
REMARK  status: ('A' for Active; 'I' for Inactive)
REMARK    1  A    between atoms: C_1  and  C_2
REMARK    2  A    between atoms: C_2  and  O_3
REMARK    3  A    between atoms: C_4  and  C_5
REMARK    4  A    between atoms: C_4  and  C_7
REMARK    5  A    between atoms: N_9  and  C_10
REMARK    6  A    between atoms: C_14  and  C_17
REMARK                            x       y       z     vdW  Elec       q    Type
REMARK                         _______ _______ _______ _____ _____    ______ ____
ROOT
ATOM      1  C   UNL     1       7.787  -0.129  23.928  0.00  0.00    +0.035 A 
ATOM      2  C   UNL     1       8.898   0.084  24.738  0.00  0.00    +0.024 A 
ATOM      3  C   UNL     1       9.557   1.333  24.729  0.00  0.00    +0.012 A 
ATOM      4  C   UNL     1       9.185   2.389  23.872  0.00  0.00    +0.002 A 
ATOM      5  C   UNL     1       8.006   2.152  23.114  0.00  0.00    +0.050 A 
ATOM      6 CL   UNL     1       7.342   3.259  21.948  0.00  0.00    -0.083 Cl
ATOM      7  C   UNL     1       7.306   0.942  23.191  0.00  0.00    +0.044 A 
ENDROOT
BRANCH   4   8
ATOM      8  C   UNL     1       9.999   3.658  23.754  0.00  0.00    +0.002 A 
ATOM      9  C   UNL     1       9.573   4.935  24.192  0.00  0.00    +0.049 A 
ATOM     10 CL   UNL     1       8.001   5.267  24.849  0.00  0.00    -0.083 Cl
ATOM     11  C   UNL     1      10.441   6.044  24.173  0.00  0.00    +0.020 A 
ATOM     12  C   UNL     1      11.763   5.912  23.760  0.00  0.00    +0.001 A 
ATOM     13  C   UNL     1      12.197   4.685  23.290  0.00  0.00    +0.001 A 
ATOM     14  C   UNL     1      11.308   3.602  23.235  0.00  0.00    +0.010 A 
ENDBRANCH   4   8
BRANCH   1  16
ATOM     15  C   UNL     1       7.657  -2.491  23.105  0.00  0.00    +0.262 C 
ATOM     16  N   UNL     1       7.197  -1.417  23.852  0.00  0.00    -0.281 N 
ATOM     17  H   UNL     1       6.412  -1.599  24.475  0.00  0.00    +0.155 HD
ATOM     18  O   UNL     1       8.658  -2.495  22.395  0.00  0.00    -0.269 OA
BRANCH  15  21
ATOM     19  C   UNL     1       5.702  -5.643  24.405  0.00  0.00    +0.087 C 
ATOM     20  C   UNL     1       6.555  -4.395  24.360  0.00  0.00    +0.113 C 
ATOM     21  C   UNL     1       6.864  -3.757  23.204  0.00  0.00    +0.150 C 
BRANCH  21  22
ATOM     22  C   UNL     1       6.333  -4.357  21.912  0.00  0.00    +0.108 C 
ATOM     23  N   UNL     1       5.892  -4.855  20.841  0.00  0.00    -0.191 NA
ENDBRANCH  21  22
BRANCH  20  24
ATOM     24  O   UNL     1       6.995  -3.934  25.595  0.00  0.00    -0.510 OA
ATOM     25  H   UNL     1       7.263  -2.997  25.511  0.00  0.00    +0.292 HD
ENDBRANCH  20  24
ENDBRANCH  15  21
ENDBRANCH   1  16
TORSDOF 5
ENDMDL
MODEL 4
REMARK VINA RESULT:      -6.5      3.218      4.543
REMARK  Name = 
REMARK  6 active torsions:
REMARK  status: ('A' for Active; 'I' for Inactive)
REMARK    1  A    between atoms: C_1  and  C_2
REMARK    2  A    between atoms: C_2  and  O_3
REMARK    3  A    between atoms: C_4  and  C_5
REMARK    4  A    between atoms: C_4  and  C_7
REMARK    5  A    between atoms: N_9  and  C_10
REMARK    6  A    between atoms: C_14  and  C_17
REMARK                            x       y       z     vdW  Elec       q    Type
REMARK                         _______ _______ _______ _____ _____    ______ ____
ROOT
ATOM      1  C   UNL     1       6.294  -3.244  24.464  0.00  0.00    +0.035 A 
ATOM      2  C   UNL     1       5.696  -1.994  24.348  0.00  0.00    +0.024 A 
ATOM      3  C   UNL     1       6.470  -0.862  24.011  0.00  0.00    +0.012 A 
ATOM      4  C   UNL     1       7.870  -0.914  23.843  0.00  0.00    +0.002 A 
ATOM      5  C   UNL     1       8.428  -2.220  23.903  0.00  0.00    +0.050 A 
ATOM      6 CL   UNL     1      10.125  -2.576  23.774  0.00  0.00    -0.083 Cl
ATOM      7  C   UNL     1       7.641  -3.351  24.153  0.00  0.00    +0.044 A 
ENDROOT
BRANCH   4   8
ATOM      8  C   UNL     1       8.706   0.331  23.646  0.00  0.00    +0.002 A 
ATOM      9  C   UNL     1       9.381   0.669  22.449  0.00  0.00    +0.049 A 
ATOM     10 CL   UNL     1       9.437  -0.343  21.040  0.00  0.00    -0.083 Cl
ATOM     11  C   UNL     1      10.026   1.912  22.297  0.00  0.00    +0.020 A 
ATOM     12  C   UNL     1       9.987   2.868  23.308  0.00  0.00    +0.001 A 
ATOM     13  C   UNL     1       9.368   2.550  24.504  0.00  0.00    +0.001 A 
ATOM     14  C   UNL     1       8.795   1.283  24.682  0.00  0.00    +0.010 A 
ENDBRANCH   4   8
BRANCH   1  16
ATOM     15  C   UNL     1       5.089  -5.416  24.139  0.00  0.00    +0.262 C 
ATOM     16  N   UNL     1       5.539  -4.357  24.915  0.00  0.00    -0.281 N 
ATOM     17  H   UNL     1       5.389  -4.433  25.919  0.00  0.00    +0.155 HD
ATOM     18  O   UNL     1       5.284  -5.557  22.935  0.00  0.00    -0.269 OA
BRANCH  15  21
ATOM     19  C   UNL     1       2.593  -8.305  25.071  0.00  0.00    +0.087 C 
ATOM     20  C   UNL     1       3.299  -7.199  24.320  0.00  0.00    +0.113 C 
ATOM     21  C   UNL     1       4.320  -6.483  24.854  0.00  0.00    +0.150 C 
BRANCH  21  22
ATOM     22  C   UNL     1       4.735  -6.814  26.278  0.00  0.00    +0.108 C 
ATOM     23  N   UNL     1       5.079  -7.088  27.460  0.00  0.00    -0.191 NA
ENDBRANCH  21  22
BRANCH  20  24
ATOM     24  O   UNL     1       2.838  -6.972  23.028  0.00  0.00    -0.510 OA
ATOM     25  H   UNL     1       2.733  -7.829  22.569  0.00  0.00    +0.292 HD
ENDBRANCH  20  24
ENDBRANCH  15  21
ENDBRANCH   1  16
TORSDOF 5
ENDMDL
MODEL 5
REMARK VINA RESULT:      -6.4      3.571      8.443
REMARK  Name = 
REMARK  6 active torsions:
REMARK  status: ('A' for Active; 'I' for Inactive)
REMARK    1  A    between atoms: C_1  and  C_2
REMARK    2  A    between atoms: C_2  and  O_3
REMARK    3  A    between atoms: C_4  and  C_5
REMARK    4  A    between atoms: C_4  and  C_7
REMARK    5  A    between atoms: N_9  and  C_10
REMARK    6  A    between atoms: C_14  and  C_17
REMARK                            x       y       z     vdW  Elec       q    Type
REMARK                         _______ _______ _______ _____ _____    ______ ____
ROOT
ATOM      1  C   UNL     1       8.524   0.650  24.194  0.00  0.00    +0.035 A 
ATOM      2  C   UNL     1       7.176   0.455  23.912  0.00  0.00    +0.024 A 
ATOM      3  C   UNL     1       6.671  -0.848  23.712  0.00  0.00    +0.012 A 
ATOM      4  C   UNL     1       7.491  -1.996  23.716  0.00  0.00    +0.002 A 
ATOM      5  C   UNL     1       8.845  -1.758  24.074  0.00  0.00    +0.050 A 
ATOM      6 CL   UNL     1      10.085  -2.976  24.119  0.00  0.00    -0.083 Cl
ATOM      7  C   UNL     1       9.322  -0.471  24.357  0.00  0.00    +0.044 A 
ENDROOT
BRANCH   4   8
ATOM      8  C   UNL     1       6.968  -3.363  23.337  0.00  0.00    +0.002 A 
ATOM      9  C   UNL     1       6.494  -4.330  24.257  0.00  0.00    +0.049 A 
ATOM     10 CL   UNL     1       6.530  -4.137  25.981  0.00  0.00    -0.083 Cl
ATOM     11  C   UNL     1       5.895  -5.527  23.818  0.00  0.00    +0.020 A 
ATOM     12  C   UNL     1       5.711  -5.781  22.463  0.00  0.00    +0.001 A 
ATOM     13  C   UNL     1       6.198  -4.873  21.540  0.00  0.00    +0.001 A 
ATOM     14  C   UNL     1       6.865  -3.719  21.978  0.00  0.00    +0.010 A 
ENDBRANCH   4   8
BRANCH   1  16
ATOM     15  C   UNL     1       9.841   2.599  23.333  0.00  0.00    +0.262 C 
ATOM     16  N   UNL     1       9.051   1.964  24.280  0.00  0.00    -0.281 N 
ATOM     17  H   UNL     1       8.747   2.529  25.071  0.00  0.00    +0.155 HD
ATOM     18  O   UNL     1      10.202   2.120  22.262  0.00  0.00    -0.269 OA
BRANCH  15  21
ATOM     19  C   UNL     1       9.954   6.337  24.542  0.00  0.00    +0.087 C 
ATOM     20  C   UNL     1       9.460   4.952  24.191  0.00  0.00    +0.113 C 
ATOM     21  C   UNL     1      10.262   4.000  23.650  0.00  0.00    +0.150 C 
BRANCH  21  22
ATOM     22  C   UNL     1      11.709   4.379  23.379  0.00  0.00    +0.108 C 
ATOM     23  N   UNL     1      12.910   4.692  23.156  0.00  0.00    -0.191 NA
ENDBRANCH  21  22
BRANCH  20  24
ATOM     24  O   UNL     1       8.120   4.712  24.472  0.00  0.00    -0.510 OA
ATOM     25  H   UNL     1       7.581   4.941  23.689  0.00  0.00    +0.292 HD
ENDBRANCH  20  24
ENDBRANCH  15  21
ENDBRANCH   1  16
TORSDOF 5
ENDMDL
MODEL 6
REMARK VINA RESULT:      -6.2      4.307      6.056
REMARK  Name = 
REMARK  6 active torsions:
REMARK  status: ('A' for Active; 'I' for Inactive)
REMARK    1  A    between atoms: C_1  and  C_2
REMARK    2  A    between atoms: C_2  and  O_3
REMARK    3  A    between atoms: C_4  and  C_5
REMARK    4  A    between atoms: C_4  and  C_7
REMARK    5  A    between atoms: N_9  and  C_10
REMARK    6  A    between atoms: C_14  and  C_17
REMARK                            x       y       z     vdW  Elec       q    Type
REMARK                         _______ _______ _______ _____ _____    ______ ____
ROOT
ATOM      1  C   UNL     1       5.455  -4.505  23.112  0.00  0.00    +0.035 A 
ATOM      2  C   UNL     1       5.264  -3.205  22.657  0.00  0.00    +0.024 A 
ATOM      3  C   UNL     1       6.288  -2.243  22.798  0.00  0.00    +0.012 A 
ATOM      4  C   UNL     1       7.508  -2.514  23.452  0.00  0.00    +0.002 A 
ATOM      5  C   UNL     1       7.688  -3.869  23.839  0.00  0.00    +0.050 A 
ATOM      6 CL   UNL     1       9.072  -4.477  24.699  0.00  0.00    -0.083 Cl
ATOM      7  C   UNL     1       6.702  -4.839  23.619  0.00  0.00    +0.044 A 
ENDROOT
BRANCH   4   8
ATOM      8  C   UNL     1       8.526  -1.433  23.742  0.00  0.00    +0.002 A 
ATOM      9  C   UNL     1       8.852  -0.955  25.034  0.00  0.00    +0.049 A 
ATOM     10 CL   UNL     1       8.061  -1.466  26.492  0.00  0.00    -0.083 Cl
ATOM     11  C   UNL     1       9.908  -0.045  25.234  0.00  0.00    +0.020 A 
ATOM     12  C   UNL     1      10.695   0.385  24.171  0.00  0.00    +0.001 A 
ATOM     13  C   UNL     1      10.376  -0.035  22.891  0.00  0.00    +0.001 A 
ATOM     14  C   UNL     1       9.275  -0.878  22.684  0.00  0.00    +0.010 A 
ENDBRANCH   4   8
BRANCH   1  16
ATOM     15  C   UNL     1       3.490  -5.705  24.099  0.00  0.00    +0.262 C 
ATOM     16  N   UNL     1       4.387  -5.438  23.075  0.00  0.00    -0.281 N 
ATOM     17  H   UNL     1       4.204  -5.890  22.181  0.00  0.00    +0.155 HD
ATOM     18  O   UNL     1       3.479  -5.165  25.201  0.00  0.00    -0.269 OA
BRANCH  15  21
ATOM     19  C   UNL     1       1.236  -8.924  24.096  0.00  0.00    +0.087 C 
ATOM     20  C   UNL     1       2.356  -7.951  24.387  0.00  0.00    +0.113 C 
ATOM     21  C   UNL     1       2.436  -6.727  23.809  0.00  0.00    +0.150 C 
BRANCH  21  22
ATOM     22  C   UNL     1       1.349  -6.352  22.815  0.00  0.00    +0.108 C 
ATOM     23  N   UNL     1       0.446  -6.041  21.991  0.00  0.00    -0.191 NA
ENDBRANCH  21  22
BRANCH  20  24
ATOM     24  O   UNL     1       3.301  -8.394  25.305  0.00  0.00    -0.510 OA
ATOM     25  H   UNL     1       3.232  -9.365  25.395  0.00  0.00    +0.292 HD
ENDBRANCH  20  24
ENDBRANCH  15  21
ENDBRANCH   1  16
TORSDOF 5
ENDMDL
MODEL 7
REMARK VINA RESULT:      -6.2      1.797      2.079
REMARK  Name = 
REMARK  6 active torsions:
REMARK  status: ('A' for Active; 'I' for Inactive)
REMARK    1  A    between atoms: C_1  and  C_2
REMARK    2  A    between atoms: C_2  and  O_3
REMARK    3  A    between atoms: C_4  and  C_5
REMARK    4  A    between atoms: C_4  and  C_7
REMARK    5  A    between atoms: N_9  and  C_10
REMARK    6  A    between atoms: C_14  and  C_17
REMARK                            x       y       z     vdW  Elec       q    Type
REMARK                         _______ _______ _______ _____ _____    ______ ____
ROOT
ATOM      1  C   UNL     1       7.655  -0.325  23.554  0.00  0.00    +0.035 A 
ATOM      2  C   UNL     1       7.129   0.820  22.964  0.00  0.00    +0.024 A 
ATOM      3  C   UNL     1       7.891   2.008  22.911  0.00  0.00    +0.012 A 
ATOM      4  C   UNL     1       9.169   2.125  23.495  0.00  0.00    +0.002 A 
ATOM      5  C   UNL     1       9.694   0.916  24.025  0.00  0.00    +0.050 A 
ATOM      6 CL   UNL     1      11.223   0.775  24.840  0.00  0.00    -0.083 Cl
ATOM      7  C   UNL     1       8.968  -0.282  23.998  0.00  0.00    +0.044 A 
ENDROOT
BRANCH   4   8
ATOM      8  C   UNL     1       9.902   3.446  23.575  0.00  0.00    +0.002 A 
ATOM      9  C   UNL     1       9.375   4.629  24.148  0.00  0.00    +0.049 A 
ATOM     10 CL   UNL     1       7.760   4.780  24.765  0.00  0.00    -0.083 Cl
ATOM     11  C   UNL     1      10.169   5.781  24.309  0.00  0.00    +0.020 A 
ATOM     12  C   UNL     1      11.512   5.783  23.947  0.00  0.00    +0.001 A 
ATOM     13  C   UNL     1      12.044   4.654  23.348  0.00  0.00    +0.001 A 
ATOM     14  C   UNL     1      11.231   3.535  23.117  0.00  0.00    +0.010 A 
ENDBRANCH   4   8
BRANCH   1  16
ATOM     15  C   UNL     1       7.004  -2.690  23.046  0.00  0.00    +0.262 C 
ATOM     16  N   UNL     1       6.849  -1.481  23.710  0.00  0.00    -0.281 N 
ATOM     17  H   UNL     1       6.144  -1.453  24.445  0.00  0.00    +0.155 HD
ATOM     18  O   UNL     1       7.875  -2.948  22.221  0.00  0.00    -0.269 OA
BRANCH  15  21
ATOM     19  C   UNL     1       4.511  -5.726  22.928  0.00  0.00    +0.087 C 
ATOM     20  C   UNL     1       5.449  -4.616  22.510  0.00  0.00    +0.113 C 
ATOM     21  C   UNL     1       6.029  -3.770  23.398  0.00  0.00    +0.150 C 
BRANCH  21  22
ATOM     22  C   UNL     1       5.686  -3.957  24.867  0.00  0.00    +0.108 C 
ATOM     23  N   UNL     1       5.401  -4.114  26.085  0.00  0.00    -0.191 NA
ENDBRANCH  21  22
BRANCH  20  24
ATOM     24  O   UNL     1       5.690  -4.527  21.144  0.00  0.00    -0.510 OA
ATOM     25  H   UNL     1       6.635  -4.707  20.972  0.00  0.00    +0.292 HD
ENDBRANCH  20  24
ENDBRANCH  15  21
ENDBRANCH   1  16
TORSDOF 5
ENDMDL
MODEL 8
REMARK VINA RESULT:      -6.1      1.825      2.427
REMARK  Name = 
REMARK  6 active torsions:
REMARK  status: ('A' for Active; 'I' for Inactive)
REMARK    1  A    between atoms: C_1  and  C_2
REMARK    2  A    between atoms: C_2  and  O_3
REMARK    3  A    between atoms: C_4  and  C_5
REMARK    4  A    between atoms: C_4  and  C_7
REMARK    5  A    between atoms: N_9  and  C_10
REMARK    6  A    between atoms: C_14  and  C_17
REMARK                            x       y       z     vdW  Elec       q    Type
REMARK                         _______ _______ _______ _____ _____    ______ ____
ROOT
ATOM      1  C   UNL     1       8.094   0.011  23.397  0.00  0.00    +0.035 A 
ATOM      2  C   UNL     1       9.073   0.287  24.345  0.00  0.00    +0.024 A 
ATOM      3  C   UNL     1       9.358   1.622  24.707  0.00  0.00    +0.012 A 
ATOM      4  C   UNL     1       8.734   2.730  24.097  0.00  0.00    +0.002 A 
ATOM      5  C   UNL     1       7.695   2.401  23.186  0.00  0.00    +0.050 A 
ATOM      6 CL   UNL     1       6.787   3.560  22.260  0.00  0.00    -0.083 Cl
ATOM      7  C   UNL     1       7.357   1.073  22.895  0.00  0.00    +0.044 A 
ENDROOT
BRANCH   4   8
ATOM      8  C   UNL     1       9.165   4.153  24.375  0.00  0.00    +0.002 A 
ATOM      9  C   UNL     1      10.376   4.733  23.924  0.00  0.00    +0.049 A 
ATOM     10 CL   UNL     1      11.610   3.870  23.060  0.00  0.00    -0.083 Cl
ATOM     11  C   UNL     1      10.644   6.104  24.106  0.00  0.00    +0.020 A 
ATOM     12  C   UNL     1       9.708   6.945  24.699  0.00  0.00    +0.001 A 
ATOM     13  C   UNL     1       8.532   6.399  25.184  0.00  0.00    +0.001 A 
ATOM     14  C   UNL     1       8.302   5.020  25.074  0.00  0.00    +0.010 A 
ENDBRANCH   4   8
BRANCH   1  16
ATOM     15  C   UNL     1       7.547  -2.410  23.739  0.00  0.00    +0.262 C 
ATOM     16  N   UNL     1       7.889  -1.320  22.951  0.00  0.00    -0.281 N 
ATOM     17  H   UNL     1       7.906  -1.474  21.945  0.00  0.00    +0.155 HD
ATOM     18  O   UNL     1       7.360  -2.387  24.952  0.00  0.00    -0.269 OA
BRANCH  15  21
ATOM     19  C   UNL     1       7.723  -6.181  22.647  0.00  0.00    +0.087 C 
ATOM     20  C   UNL     1       7.980  -4.878  23.369  0.00  0.00    +0.113 C 
ATOM     21  C   UNL     1       7.371  -3.715  23.027  0.00  0.00    +0.150 C 
BRANCH  21  22
ATOM     22  C   UNL     1       6.410  -3.750  21.850  0.00  0.00    +0.108 C 
ATOM     23  N   UNL     1       5.614  -3.779  20.872  0.00  0.00    -0.191 NA
ENDBRANCH  21  22
BRANCH  20  24
ATOM     24  O   UNL     1       8.880  -4.954  24.426  0.00  0.00    -0.510 OA
ATOM     25  H   UNL     1       9.080  -4.051  24.743  0.00  0.00    +0.292 HD
ENDBRANCH  20  24
ENDBRANCH  15  21
ENDBRANCH   1  16
TORSDOF 5
ENDMDL
MODEL 9
REMARK VINA RESULT:      -6.1      4.186      9.169
REMARK  Name = 
REMARK  6 active torsions:
REMARK  status: ('A' for Active; 'I' for Inactive)
REMARK    1  A    between atoms: C_1  and  C_2
REMARK    2  A    between atoms: C_2  and  O_3
REMARK    3  A    between atoms: C_4  and  C_5
REMARK    4  A    between atoms: C_4  and  C_7
REMARK    5  A    between atoms: N_9  and  C_10
REMARK    6  A    between atoms: C_14  and  C_17
REMARK                            x       y       z     vdW  Elec       q    Type
REMARK                         _______ _______ _______ _____ _____    ______ ____
ROOT
ATOM      1  C   UNL     1       7.196  -2.616  24.057  0.00  0.00    +0.035 A 
ATOM      2  C   UNL     1       6.053  -2.531  24.845  0.00  0.00    +0.024 A 
ATOM      3  C   UNL     1       5.144  -3.610  24.902  0.00  0.00    +0.012 A 
ATOM      4  C   UNL     1       5.299  -4.782  24.131  0.00  0.00    +0.002 A 
ATOM      5  C   UNL     1       6.512  -4.854  23.395  0.00  0.00    +0.050 A 
ATOM      6 CL   UNL     1       6.945  -6.158  22.328  0.00  0.00    -0.083 Cl
ATOM      7  C   UNL     1       7.451  -3.815  23.410  0.00  0.00    +0.044 A 
ENDROOT
BRANCH   4   8
ATOM      8  C   UNL     1       4.236  -5.857  24.075  0.00  0.00    +0.002 A 
ATOM      9  C   UNL     1       3.992  -6.805  25.098  0.00  0.00    +0.049 A 
ATOM     10 CL   UNL     1       4.942  -6.948  26.544  0.00  0.00    -0.083 Cl
ATOM     11  C   UNL     1       2.896  -7.687  25.033  0.00  0.00    +0.020 A 
ATOM     12  C   UNL     1       1.990  -7.628  23.979  0.00  0.00    +0.001 A 
ATOM     13  C   UNL     1       2.224  -6.738  22.945  0.00  0.00    +0.001 A 
ATOM     14  C   UNL     1       3.360  -5.916  22.973  0.00  0.00    +0.010 A 
ENDBRANCH   4   8
BRANCH   1  16
ATOM     15  C   UNL     1       8.678  -1.080  22.745  0.00  0.00    +0.262 C 
ATOM     16  N   UNL     1       8.046  -1.490  23.911  0.00  0.00    -0.281 N 
ATOM     17  H   UNL     1       8.130  -0.871  24.715  0.00  0.00    +0.155 HD
ATOM     18  O   UNL     1       8.592  -1.629  21.651  0.00  0.00    -0.269 OA
BRANCH  15  21
ATOM     19  C   UNL     1      10.372   2.408  22.104  0.00  0.00    +0.087 C 
ATOM     20  C   UNL     1       9.546   1.154  21.926  0.00  0.00    +0.113 C 
ATOM     21  C   UNL     1       9.517   0.156  22.844  0.00  0.00    +0.150 C 
BRANCH  21  22
ATOM     22  C   UNL     1      10.377   0.325  24.086  0.00  0.00    +0.108 C 
ATOM     23  N   UNL     1      11.091   0.463  25.116  0.00  0.00    -0.191 NA
ENDBRANCH  21  22
BRANCH  20  24
ATOM     24  O   UNL     1       8.802   1.097  20.753  0.00  0.00    -0.510 OA
ATOM     25  H   UNL     1       9.108   0.339  20.215  0.00  0.00    +0.292 HD
ENDBRANCH  20  24
ENDBRANCH  15  21
ENDBRANCH   1  16
TORSDOF 5
ENDMDL
