MODEL 1
REMARK VINA RESULT:      -7.8      0.000      0.000
REMARK  Name = 
REMARK  4 active torsions:
REMARK  status: ('A' for Active; 'I' for Inactive)
REMARK    1  A    between atoms: C_2  and  C_6
REMARK    2  A    between atoms: C_11  and  C_15
REMARK    3  A    between atoms: C_19  and  O_20
REMARK    4  A    between atoms: O_20  and  C_21
REMARK                            x       y       z     vdW  Elec       q    Type
REMARK                         _______ _______ _______ _____ _____    ______ ____
ROOT
ATOM      1  C   UNL     1       6.213  -5.602  27.034  0.00  0.00    +0.061 A 
ATOM      2  C   UNL     1       7.250  -4.651  27.113  0.00  0.00    +0.025 A 
ATOM      3  C   UNL     1       7.649  -3.951  25.961  0.00  0.00    +0.001 A 
ATOM      4  C   UNL     1       7.015  -4.232  24.758  0.00  0.00    +0.047 A 
ATOM      5  N   UNL     1       7.538  -3.362  23.834  0.00  0.00    -0.354 N 
ATOM      6  H   UNL     1       7.260  -3.231  22.860  0.00  0.00    +0.166 HD
ATOM      7  C   UNL     1       8.413  -2.471  24.418  0.00  0.00    +0.047 A 
ATOM      8  C   UNL     1       6.023  -5.205  24.626  0.00  0.00    +0.027 A 
ATOM      9  C   UNL     1       8.568  -2.892  25.728  0.00  0.00    +0.036 A 
ATOM     10  C   UNL     1       5.635  -5.883  25.785  0.00  0.00    +0.018 A 
ENDROOT
BRANCH   1  14
ATOM     11  N   UNL     1       5.715  -5.572  29.392  0.00  0.00    -0.250 N 
ATOM     12  H   UNL     1       6.085  -4.628  29.411  0.00  0.00    +0.288 HD
ATOM     13  H   UNL     1       5.397  -5.970  30.263  0.00  0.00    +0.288 HD
ATOM     14  C   UNL     1       5.720  -6.245  28.261  0.00  0.00    +0.266 C 
ATOM     15  N   UNL     1       5.307  -7.496  28.226  0.00  0.00    -0.288 N 
ATOM     16  H   UNL     1       4.989  -7.988  29.046  0.00  0.00    +0.301 HD
ATOM     17  H   UNL     1       5.303  -7.998  27.344  0.00  0.00    +0.301 HD
ENDBRANCH   1  14
BRANCH   7  18
ATOM     18  C   UNL     1       8.892  -1.277  23.673  0.00  0.00    -0.006 A 
ATOM     19  C   UNL     1       9.470  -0.144  24.365  0.00  0.00    -0.056 A 
ATOM     20  O   UNL     1       9.383  -0.001  25.645  0.00  0.00    -0.871 OA
ATOM     21  C   UNL     1      10.116   0.795  23.503  0.00  0.00    +0.114 A 
ATOM     22  C   UNL     1      10.031   0.718  22.098  0.00  0.00    +0.045 A 
ATOM     23  C   UNL     1       9.378  -0.331  21.477  0.00  0.00    +0.004 A 
ATOM     24  C   UNL     1       8.838  -1.338  22.263  0.00  0.00    +0.009 A 
BRANCH  21  25
ATOM     25  O   UNL     1      10.851   1.903  23.884  0.00  0.00    -0.489 OA
BRANCH  25  26
ATOM     26  C   UNL     1      10.471   3.165  23.354  0.00  0.00    +0.173 C 
ATOM     27  C   UNL     1      11.668   4.114  23.393  0.00  0.00    +0.044 C 
ATOM     28  C   UNL     1      11.087   5.514  23.587  0.00  0.00    +0.004 C 
ATOM     29  C   UNL     1       9.590   5.318  23.805  0.00  0.00    +0.004 C 
ATOM     30  C   UNL     1       9.462   3.871  24.260  0.00  0.00    +0.044 C 
ENDBRANCH  25  26
ENDBRANCH  21  25
ENDBRANCH   7  18
TORSDOF 4
ENDMDL
MODEL 2
REMARK VINA RESULT:      -7.6      3.962      9.715
REMARK  Name = 
REMARK  4 active torsions:
REMARK  status: ('A' for Active; 'I' for Inactive)
REMARK    1  A    between atoms: C_2  and  C_6
REMARK    2  A    between atoms: C_11  and  C_15
REMARK    3  A    between atoms: C_19  and  O_20
REMARK    4  A    between atoms: O_20  and  C_21
REMARK                            x       y       z     vdW  Elec       q    Type
REMARK                         _______ _______ _______ _____ _____    ______ ____
ROOT
ATOM      1  C   UNL     1       8.715   0.817  22.117  0.00  0.00    +0.061 A 
ATOM      2  C   UNL     1       7.549   0.453  22.820  0.00  0.00    +0.025 A 
ATOM      3  C   UNL     1       7.224  -0.905  22.984  0.00  0.00    +0.001 A 
ATOM      4  C   UNL     1       8.061  -1.863  22.428  0.00  0.00    +0.047 A 
ATOM      5  N   UNL     1       7.556  -3.082  22.804  0.00  0.00    -0.354 N 
ATOM      6  H   UNL     1       7.951  -4.009  22.636  0.00  0.00    +0.166 HD
ATOM      7  C   UNL     1       6.483  -2.942  23.658  0.00  0.00    +0.047 A 
ATOM      8  C   UNL     1       9.195  -1.544  21.677  0.00  0.00    +0.027 A 
ATOM      9  C   UNL     1       6.203  -1.587  23.699  0.00  0.00    +0.036 A 
ATOM     10  C   UNL     1       9.505  -0.188  21.534  0.00  0.00    +0.018 A 
ENDROOT
BRANCH   1  14
ATOM     11  N   UNL     1      10.379   2.542  21.861  0.00  0.00    -0.250 N 
ATOM     12  H   UNL     1      11.070   1.803  21.800  0.00  0.00    +0.288 HD
ATOM     13  H   UNL     1      10.705   3.496  21.817  0.00  0.00    +0.288 HD
ATOM     14  C   UNL     1       9.114   2.230  22.049  0.00  0.00    +0.266 C 
ATOM     15  N   UNL     1       8.208   3.175  22.199  0.00  0.00    -0.288 N 
ATOM     16  H   UNL     1       8.438   4.157  22.190  0.00  0.00    +0.301 HD
ATOM     17  H   UNL     1       7.235   2.920  22.329  0.00  0.00    +0.301 HD
ENDBRANCH   1  14
BRANCH   7  18
ATOM     18  C   UNL     1       5.947  -4.113  24.403  0.00  0.00    -0.006 A 
ATOM     19  C   UNL     1       5.023  -5.037  23.780  0.00  0.00    -0.056 A 
ATOM     20  O   UNL     1       4.435  -4.776  22.661  0.00  0.00    -0.871 OA
ATOM     21  C   UNL     1       4.813  -6.238  24.526  0.00  0.00    +0.114 A 
ATOM     22  C   UNL     1       5.312  -6.417  25.832  0.00  0.00    +0.045 A 
ATOM     23  C   UNL     1       6.110  -5.458  26.431  0.00  0.00    +0.004 A 
ATOM     24  C   UNL     1       6.448  -4.327  25.706  0.00  0.00    +0.009 A 
BRANCH  21  25
ATOM     25  O   UNL     1       4.083  -7.345  24.131  0.00  0.00    -0.489 OA
BRANCH  25  26
ATOM     26  C   UNL     1       2.674  -7.308  24.311  0.00  0.00    +0.173 C 
ATOM     27  C   UNL     1       2.192  -8.664  24.825  0.00  0.00    +0.044 C 
ATOM     28  C   UNL     1       0.779  -8.844  24.272  0.00  0.00    +0.004 C 
ATOM     29  C   UNL     1       0.544  -7.663  23.335  0.00  0.00    +0.004 C 
ATOM     30  C   UNL     1       1.943  -7.185  22.973  0.00  0.00    +0.044 C 
ENDBRANCH  25  26
ENDBRANCH  21  25
ENDBRANCH   7  18
TORSDOF 4
ENDMDL
MODEL 3
REMARK VINA RESULT:      -7.5      1.661      2.120
REMARK  Name = 
REMARK  4 active torsions:
REMARK  status: ('A' for Active; 'I' for Inactive)
REMARK    1  A    between atoms: C_2  and  C_6
REMARK    2  A    between atoms: C_11  and  C_15
REMARK    3  A    between atoms: C_19  and  O_20
REMARK    4  A    between atoms: O_20  and  C_21
REMARK                            x       y       z     vdW  Elec       q    Type
REMARK                         _______ _______ _______ _____ _____    ______ ____
ROOT
ATOM      1  C   UNL     1       5.163  -6.135  25.189  0.00  0.00    +0.061 A 
ATOM      2  C   UNL     1       6.216  -5.262  25.531  0.00  0.00    +0.025 A 
ATOM      3  C   UNL     1       6.712  -4.355  24.578  0.00  0.00    +0.001 A 
ATOM      4  C   UNL     1       6.158  -4.356  23.305  0.00  0.00    +0.047 A 
ATOM      5  N   UNL     1       6.766  -3.335  22.619  0.00  0.00    -0.354 N 
ATOM      6  H   UNL     1       6.560  -2.995  21.677  0.00  0.00    +0.166 HD
ATOM      7  C   UNL     1       7.620  -2.619  23.430  0.00  0.00    +0.047 A 
ATOM      8  C   UNL     1       5.153  -5.241  22.909  0.00  0.00    +0.027 A 
ATOM      9  C   UNL     1       7.671  -3.308  24.630  0.00  0.00    +0.036 A 
ATOM     10  C   UNL     1       4.668  -6.128  23.874  0.00  0.00    +0.018 A 
ENDROOT
BRANCH   1  14
ATOM     11  N   UNL     1       3.425  -7.604  25.982  0.00  0.00    -0.250 N 
ATOM     12  H   UNL     1       2.948  -7.439  25.102  0.00  0.00    +0.288 HD
ATOM     13  H   UNL     1       2.970  -8.198  26.660  0.00  0.00    +0.288 HD
ATOM     14  C   UNL     1       4.569  -6.998  26.220  0.00  0.00    +0.266 C 
ATOM     15  N   UNL     1       5.173  -7.143  27.382  0.00  0.00    -0.288 N 
ATOM     16  H   UNL     1       4.789  -7.700  28.130  0.00  0.00    +0.301 HD
ATOM     17  H   UNL     1       6.061  -6.682  27.546  0.00  0.00    +0.301 HD
ENDBRANCH   1  14
BRANCH   7  18
ATOM     18  C   UNL     1       8.179  -1.316  22.983  0.00  0.00    -0.006 A 
ATOM     19  C   UNL     1       7.864  -0.087  23.680  0.00  0.00    -0.056 A 
ATOM     20  O   UNL     1       6.916  -0.013  24.553  0.00  0.00    -0.871 OA
ATOM     21  C   UNL     1       8.680   1.022  23.297  0.00  0.00    +0.114 A 
ATOM     22  C   UNL     1       9.574   0.966  22.209  0.00  0.00    +0.045 A 
ATOM     23  C   UNL     1       9.769  -0.206  21.502  0.00  0.00    +0.004 A 
ATOM     24  C   UNL     1       9.095  -1.348  21.908  0.00  0.00    +0.009 A 
BRANCH  21  25
ATOM     25  O   UNL     1       8.690   2.283  23.868  0.00  0.00    -0.489 OA
BRANCH  25  26
ATOM     26  C   UNL     1       8.557   3.403  23.005  0.00  0.00    +0.173 C 
ATOM     27  C   UNL     1       9.003   4.666  23.741  0.00  0.00    +0.044 C 
ATOM     28  C   UNL     1       8.163   5.805  23.165  0.00  0.00    +0.004 C 
ATOM     29  C   UNL     1       7.156   5.148  22.226  0.00  0.00    +0.004 C 
ATOM     30  C   UNL     1       7.090   3.702  22.698  0.00  0.00    +0.044 C 
ENDBRANCH  25  26
ENDBRANCH  21  25
ENDBRANCH   7  18
TORSDOF 4
ENDMDL
MODEL 4
REMARK VINA RESULT:      -7.5      3.332      8.959
REMARK  Name = 
REMARK  4 active torsions:
REMARK  status: ('A' for Active; 'I' for Inactive)
REMARK    1  A    between atoms: C_2  and  C_6
REMARK    2  A    between atoms: C_11  and  C_15
REMARK    3  A    between atoms: C_19  and  O_20
REMARK    4  A    between atoms: O_20  and  C_21
REMARK                            x       y       z     vdW  Elec       q    Type
REMARK                         _______ _______ _______ _____ _____    ______ ____
ROOT
ATOM      1  C   UNL     1       9.945   1.660  23.404  0.00  0.00    +0.061 A 
ATOM      2  C   UNL     1       9.260   0.813  22.510  0.00  0.00    +0.025 A 
ATOM      3  C   UNL     1       9.045  -0.536  22.846  0.00  0.00    +0.001 A 
ATOM      4  C   UNL     1       9.535  -1.007  24.056  0.00  0.00    +0.047 A 
ATOM      5  N   UNL     1       9.120  -2.310  24.159  0.00  0.00    -0.354 N 
ATOM      6  H   UNL     1       9.235  -2.951  24.947  0.00  0.00    +0.166 HD
ATOM      7  C   UNL     1       8.304  -2.665  23.107  0.00  0.00    +0.047 A 
ATOM      8  C   UNL     1      10.267  -0.216  24.945  0.00  0.00    +0.027 A 
ATOM      9  C   UNL     1       8.330  -1.596  22.227  0.00  0.00    +0.036 A 
ATOM     10  C   UNL     1      10.461   1.123  24.596  0.00  0.00    +0.018 A 
ENDROOT
BRANCH   1  14
ATOM     11  N   UNL     1      11.250   3.665  23.114  0.00  0.00    -0.250 N 
ATOM     12  H   UNL     1      12.065   3.116  23.365  0.00  0.00    +0.288 HD
ATOM     13  H   UNL     1      11.385   4.647  22.924  0.00  0.00    +0.288 HD
ATOM     14  C   UNL     1      10.064   3.094  23.102  0.00  0.00    +0.266 C 
ATOM     15  N   UNL     1       8.984   3.802  22.845  0.00  0.00    -0.288 N 
ATOM     16  H   UNL     1       9.013   4.793  22.662  0.00  0.00    +0.301 HD
ATOM     17  H   UNL     1       8.078   3.346  22.825  0.00  0.00    +0.301 HD
ENDBRANCH   1  14
BRANCH   7  18
ATOM     18  C   UNL     1       7.523  -3.931  23.143  0.00  0.00    -0.006 A 
ATOM     19  C   UNL     1       6.974  -4.436  24.384  0.00  0.00    -0.056 A 
ATOM     20  O   UNL     1       7.323  -3.967  25.534  0.00  0.00    -0.871 OA
ATOM     21  C   UNL     1       6.038  -5.503  24.211  0.00  0.00    +0.114 A 
ATOM     22  C   UNL     1       5.819  -6.126  22.966  0.00  0.00    +0.045 A 
ATOM     23  C   UNL     1       6.447  -5.675  21.820  0.00  0.00    +0.004 A 
ATOM     24  C   UNL     1       7.271  -4.564  21.906  0.00  0.00    +0.009 A 
BRANCH  21  25
ATOM     25  O   UNL     1       5.270  -6.101  25.195  0.00  0.00    -0.489 OA
BRANCH  25  26
ATOM     26  C   UNL     1       3.860  -6.114  25.018  0.00  0.00    +0.173 C 
ATOM     27  C   UNL     1       3.203  -5.290  26.125  0.00  0.00    +0.044 C 
ATOM     28  C   UNL     1       1.840  -5.936  26.374  0.00  0.00    +0.004 C 
ATOM     29  C   UNL     1       1.813  -7.198  25.517  0.00  0.00    +0.004 C 
ATOM     30  C   UNL     1       3.280  -7.508  25.258  0.00  0.00    +0.044 C 
ENDBRANCH  25  26
ENDBRANCH  21  25
ENDBRANCH   7  18
TORSDOF 4
ENDMDL
MODEL 5
REMARK VINA RESULT:      -7.4      3.235      8.827
REMARK  Name = 
REMARK  4 active torsions:
REMARK  status: ('A' for Active; 'I' for Inactive)
REMARK    1  A    between atoms: C_2  and  C_6
REMARK    2  A    between atoms: C_11  and  C_15
REMARK    3  A    between atoms: C_19  and  O_20
REMARK    4  A    between atoms: O_20  and  C_21
REMARK                            x       y       z     vdW  Elec       q    Type
REMARK                         _______ _______ _______ _____ _____    ______ ____
ROOT
ATOM      1  C   UNL     1      10.113   3.457  23.840  0.00  0.00    +0.061 A 
ATOM      2  C   UNL     1      10.657   2.183  23.576  0.00  0.00    +0.025 A 
ATOM      3  C   UNL     1       9.939   1.027  23.928  0.00  0.00    +0.001 A 
ATOM      4  C   UNL     1       8.706   1.172  24.550  0.00  0.00    +0.047 A 
ATOM      5  N   UNL     1       8.201  -0.094  24.705  0.00  0.00    -0.354 N 
ATOM      6  H   UNL     1       7.284  -0.370  25.060  0.00  0.00    +0.166 HD
ATOM      7  C   UNL     1       9.018  -1.039  24.122  0.00  0.00    +0.047 A 
ATOM      8  C   UNL     1       8.157   2.414  24.879  0.00  0.00    +0.027 A 
ATOM      9  C   UNL     1      10.157  -0.361  23.721  0.00  0.00    +0.036 A 
ATOM     10  C   UNL     1       8.883   3.550  24.512  0.00  0.00    +0.018 A 
ENDROOT
BRANCH   1  14
ATOM     11  N   UNL     1      12.066   4.573  22.973  0.00  0.00    -0.250 N 
ATOM     12  H   UNL     1      12.546   3.682  23.037  0.00  0.00    +0.288 HD
ATOM     13  H   UNL     1      12.593   5.369  22.649  0.00  0.00    +0.288 HD
ATOM     14  C   UNL     1      10.812   4.660  23.365  0.00  0.00    +0.266 C 
ATOM     15  N   UNL     1      10.188   5.820  23.354  0.00  0.00    -0.288 N 
ATOM     16  H   UNL     1      10.635   6.677  23.066  0.00  0.00    +0.301 HD
ATOM     17  H   UNL     1       9.218   5.870  23.645  0.00  0.00    +0.301 HD
ENDBRANCH   1  14
BRANCH   7  18
ATOM     18  C   UNL     1       8.547  -2.436  23.929  0.00  0.00    -0.006 A 
ATOM     19  C   UNL     1       8.427  -3.347  25.048  0.00  0.00    -0.056 A 
ATOM     20  O   UNL     1       8.937  -3.089  26.205  0.00  0.00    -0.871 OA
ATOM     21  C   UNL     1       7.718  -4.550  24.743  0.00  0.00    +0.114 A 
ATOM     22  C   UNL     1       7.340  -4.895  23.430  0.00  0.00    +0.045 A 
ATOM     23  C   UNL     1       7.568  -4.037  22.370  0.00  0.00    +0.004 A 
ATOM     24  C   UNL     1       8.142  -2.801  22.626  0.00  0.00    +0.009 A 
BRANCH  21  25
ATOM     25  O   UNL     1       7.348  -5.544  25.631  0.00  0.00    -0.489 OA
BRANCH  25  26
ATOM     26  C   UNL     1       6.161  -5.350  26.387  0.00  0.00    +0.173 C 
ATOM     27  C   UNL     1       6.444  -5.642  27.860  0.00  0.00    +0.044 C 
ATOM     28  C   UNL     1       5.136  -6.181  28.439  0.00  0.00    +0.004 C 
ATOM     29  C   UNL     1       4.185  -6.328  27.255  0.00  0.00    +0.004 C 
ATOM     30  C   UNL     1       5.102  -6.397  26.042  0.00  0.00    +0.044 C 
ENDBRANCH  25  26
ENDBRANCH  21  25
ENDBRANCH   7  18
TORSDOF 4
ENDMDL
MODEL 6
REMARK VINA RESULT:      -7.4      3.006      8.855
REMARK  Name = 
REMARK  4 active torsions:
REMARK  status: ('A' for Active; 'I' for Inactive)
REMARK    1  A    between atoms: C_2  and  C_6
REMARK    2  A    between atoms: C_11  and  C_15
REMARK    3  A    between atoms: C_19  and  O_20
REMARK    4  A    between atoms: O_20  and  C_21
REMARK                            x       y       z     vdW  Elec       q    Type
REMARK                         _______ _______ _______ _____ _____    ______ ____
ROOT
ATOM      1  C   UNL     1       9.883   0.851  23.473  0.00  0.00    +0.061 A 
ATOM      2  C   UNL     1       9.322  -0.253  22.799  0.00  0.00    +0.025 A 
ATOM      3  C   UNL     1       8.911  -1.383  23.527  0.00  0.00    +0.001 A 
ATOM      4  C   UNL     1       9.087  -1.389  24.904  0.00  0.00    +0.047 A 
ATOM      5  N   UNL     1       8.534  -2.560  25.358  0.00  0.00    -0.354 N 
ATOM      6  H   UNL     1       8.418  -2.872  26.324  0.00  0.00    +0.166 HD
ATOM      7  C   UNL     1       7.927  -3.261  24.339  0.00  0.00    +0.047 A 
ATOM      8  C   UNL     1       9.689  -0.340  25.603  0.00  0.00    +0.027 A 
ATOM      9  C   UNL     1       8.242  -2.585  23.172  0.00  0.00    +0.036 A 
ATOM     10  C   UNL     1      10.082   0.777  24.861  0.00  0.00    +0.018 A 
ENDROOT
BRANCH   1  14
ATOM     11  N   UNL     1      10.854   3.052  23.319  0.00  0.00    -0.250 N 
ATOM     12  H   UNL     1      11.098   2.962  24.300  0.00  0.00    +0.288 HD
ATOM     13  H   UNL     1      11.088   3.916  22.854  0.00  0.00    +0.288 HD
ATOM     14  C   UNL     1      10.202   2.076  22.724  0.00  0.00    +0.266 C 
ATOM     15  N   UNL     1       9.816   2.198  21.470  0.00  0.00    -0.288 N 
ATOM     16  H   UNL     1       9.985   3.030  20.927  0.00  0.00    +0.301 HD
ATOM     17  H   UNL     1       9.327   1.432  21.020  0.00  0.00    +0.301 HD
ENDBRANCH   1  14
BRANCH   7  18
ATOM     18  C   UNL     1       7.036  -4.415  24.635  0.00  0.00    -0.006 A 
ATOM     19  C   UNL     1       7.036  -5.045  25.938  0.00  0.00    -0.056 A 
ATOM     20  O   UNL     1       7.951  -4.811  26.817  0.00  0.00    -0.871 OA
ATOM     21  C   UNL     1       5.951  -5.952  26.143  0.00  0.00    +0.114 A 
ATOM     22  C   UNL     1       5.077  -6.337  25.106  0.00  0.00    +0.045 A 
ATOM     23  C   UNL     1       5.179  -5.784  23.843  0.00  0.00    +0.004 A 
ATOM     24  C   UNL     1       6.136  -4.806  23.619  0.00  0.00    +0.009 A 
BRANCH  21  25
ATOM     25  O   UNL     1       5.625  -6.606  27.318  0.00  0.00    -0.489 OA
BRANCH  25  26
ATOM     26  C   UNL     1       4.625  -6.027  28.144  0.00  0.00    +0.173 C 
ATOM     27  C   UNL     1       5.263  -4.981  29.058  0.00  0.00    +0.044 C 
ATOM     28  C   UNL     1       4.436  -4.987  30.343  0.00  0.00    +0.004 C 
ATOM     29  C   UNL     1       3.443  -6.136  30.195  0.00  0.00    +0.004 C 
ATOM     30  C   UNL     1       4.069  -7.042  29.144  0.00  0.00    +0.044 C 
ENDBRANCH  25  26
ENDBRANCH  21  25
ENDBRANCH   7  18
TORSDOF 4
ENDMDL
MODEL 7
REMARK VINA RESULT:      -7.4      2.127      3.351
REMARK  Name = 
REMARK  4 active torsions:
REMARK  status: ('A' for Active; 'I' for Inactive)
REMARK    1  A    between atoms: C_2  and  C_6
REMARK    2  A    between atoms: C_11  and  C_15
REMARK    3  A    between atoms: C_19  and  O_20
REMARK    4  A    between atoms: O_20  and  C_21
REMARK                            x       y       z     vdW  Elec       q    Type
REMARK                         _______ _______ _______ _____ _____    ______ ____
ROOT
ATOM      1  C   UNL     1       4.194  -6.765  24.274  0.00  0.00    +0.061 A 
ATOM      2  C   UNL     1       5.097  -6.270  25.236  0.00  0.00    +0.025 A 
ATOM      3  C   UNL     1       6.081  -5.338  24.861  0.00  0.00    +0.001 A 
ATOM      4  C   UNL     1       6.148  -4.939  23.533  0.00  0.00    +0.047 A 
ATOM      5  N   UNL     1       7.130  -3.982  23.468  0.00  0.00    -0.354 N 
ATOM      6  H   UNL     1       7.408  -3.415  22.665  0.00  0.00    +0.166 HD
ATOM      7  C   UNL     1       7.629  -3.684  24.718  0.00  0.00    +0.047 A 
ATOM      8  C   UNL     1       5.309  -5.446  22.539  0.00  0.00    +0.027 A 
ATOM      9  C   UNL     1       7.052  -4.597  25.585  0.00  0.00    +0.036 A 
ATOM     10  C   UNL     1       4.333  -6.364  22.935  0.00  0.00    +0.018 A 
ENDROOT
BRANCH   1  14
ATOM     11  N   UNL     1       2.302  -8.176  23.784  0.00  0.00    -0.250 N 
ATOM     12  H   UNL     1       2.438  -7.939  22.807  0.00  0.00    +0.288 HD
ATOM     13  H   UNL     1       1.528  -8.779  24.018  0.00  0.00    +0.288 HD
ATOM     14  C   UNL     1       3.095  -7.648  24.692  0.00  0.00    +0.266 C 
ATOM     15  N   UNL     1       2.896  -7.887  25.973  0.00  0.00    -0.288 N 
ATOM     16  H   UNL     1       2.138  -8.460  26.308  0.00  0.00    +0.301 HD
ATOM     17  H   UNL     1       3.524  -7.484  26.660  0.00  0.00    +0.301 HD
ENDBRANCH   1  14
BRANCH   7  18
ATOM     18  C   UNL     1       8.501  -2.497  24.926  0.00  0.00    -0.006 A 
ATOM     19  C   UNL     1       9.393  -2.032  23.884  0.00  0.00    -0.056 A 
ATOM     20  O   UNL     1       9.659  -2.739  22.838  0.00  0.00    -0.871 OA
ATOM     21  C   UNL     1       9.957  -0.744  24.137  0.00  0.00    +0.114 A 
ATOM     22  C   UNL     1       9.805  -0.078  25.370  0.00  0.00    +0.045 A 
ATOM     23  C   UNL     1       9.024  -0.610  26.379  0.00  0.00    +0.004 A 
ATOM     24  C   UNL     1       8.353  -1.799  26.144  0.00  0.00    +0.009 A 
BRANCH  21  25
ATOM     25  O   UNL     1      10.744   0.002  23.277  0.00  0.00    -0.489 OA
BRANCH  25  26
ATOM     26  C   UNL     1      10.087   0.841  22.337  0.00  0.00    +0.173 C 
ATOM     27  C   UNL     1      10.063   2.275  22.868  0.00  0.00    +0.044 C 
ATOM     28  C   UNL     1       8.783   2.904  22.317  0.00  0.00    +0.004 C 
ATOM     29  C   UNL     1       8.033   1.776  21.614  0.00  0.00    +0.004 C 
ATOM     30  C   UNL     1       8.600   0.505  22.231  0.00  0.00    +0.044 C 
ENDBRANCH  25  26
ENDBRANCH  21  25
ENDBRANCH   7  18
TORSDOF 4
ENDMDL
MODEL 8
REMARK VINA RESULT:      -7.4      3.219      8.915
REMARK  Name = 
REMARK  4 active torsions:
REMARK  status: ('A' for Active; 'I' for Inactive)
REMARK    1  A    between atoms: C_2  and  C_6
REMARK    2  A    between atoms: C_11  and  C_15
REMARK    3  A    between atoms: C_19  and  O_20
REMARK    4  A    between atoms: O_20  and  C_21
REMARK                            x       y       z     vdW  Elec       q    Type
REMARK                         _______ _______ _______ _____ _____    ______ ____
ROOT
ATOM      1  C   UNL     1      10.203   2.622  23.240  0.00  0.00    +0.061 A 
ATOM      2  C   UNL     1       9.722   1.987  24.402  0.00  0.00    +0.025 A 
ATOM      3  C   UNL     1       9.267   0.658  24.338  0.00  0.00    +0.001 A 
ATOM      4  C   UNL     1       9.288   0.005  23.113  0.00  0.00    +0.047 A 
ATOM      5  N   UNL     1       8.872  -1.280  23.354  0.00  0.00    -0.354 N 
ATOM      6  H   UNL     1       8.830  -2.065  22.701  0.00  0.00    +0.166 HD
ATOM      7  C   UNL     1       8.675  -1.504  24.700  0.00  0.00    +0.047 A 
ATOM      8  C   UNL     1       9.705   0.615  21.928  0.00  0.00    +0.027 A 
ATOM      9  C   UNL     1       8.822  -0.272  25.315  0.00  0.00    +0.036 A 
ATOM     10  C   UNL     1      10.162   1.933  22.016  0.00  0.00    +0.018 A 
ENDROOT
BRANCH   1  14
ATOM     11  N   UNL     1      12.095   4.113  23.332  0.00  0.00    -0.250 N 
ATOM     12  H   UNL     1      12.687   3.290  23.301  0.00  0.00    +0.288 HD
ATOM     13  H   UNL     1      12.545   5.013  23.405  0.00  0.00    +0.288 HD
ATOM     14  C   UNL     1      10.787   3.968  23.334  0.00  0.00    +0.266 C 
ATOM     15  N   UNL     1       9.999   5.019  23.443  0.00  0.00    -0.288 N 
ATOM     16  H   UNL     1      10.353   5.957  23.541  0.00  0.00    +0.301 HD
ATOM     17  H   UNL     1       8.992   4.893  23.429  0.00  0.00    +0.301 HD
ENDBRANCH   1  14
BRANCH   7  18
ATOM     18  C   UNL     1       8.486  -2.884  25.222  0.00  0.00    -0.006 A 
ATOM     19  C   UNL     1       7.242  -3.285  25.844  0.00  0.00    -0.056 A 
ATOM     20  O   UNL     1       6.339  -2.431  26.194  0.00  0.00    -0.871 OA
ATOM     21  C   UNL     1       7.124  -4.694  26.047  0.00  0.00    +0.114 A 
ATOM     22  C   UNL     1       8.196  -5.584  25.836  0.00  0.00    +0.045 A 
ATOM     23  C   UNL     1       9.406  -5.140  25.336  0.00  0.00    +0.004 A 
ATOM     24  C   UNL     1       9.538  -3.801  25.003  0.00  0.00    +0.009 A 
BRANCH  21  25
ATOM     25  O   UNL     1       6.011  -5.377  26.508  0.00  0.00    -0.489 OA
BRANCH  25  26
ATOM     26  C   UNL     1       5.381  -6.292  25.623  0.00  0.00    +0.173 C 
ATOM     27  C   UNL     1       4.767  -5.524  24.452  0.00  0.00    +0.044 C 
ATOM     28  C   UNL     1       3.537  -6.325  24.025  0.00  0.00    +0.004 C 
ATOM     29  C   UNL     1       3.390  -7.443  25.053  0.00  0.00    +0.004 C 
ATOM     30  C   UNL     1       4.157  -6.941  26.268  0.00  0.00    +0.044 C 
ENDBRANCH  25  26
ENDBRANCH  21  25
ENDBRANCH   7  18
TORSDOF 4
ENDMDL
MODEL 9
REMARK VINA RESULT:      -7.3      2.026      2.711
REMARK  Name = 
REMARK  4 active torsions:
REMARK  status: ('A' for Active; 'I' for Inactive)
REMARK    1  A    between atoms: C_2  and  C_6
REMARK    2  A    between atoms: C_11  and  C_15
REMARK    3  A    between atoms: C_19  and  O_20
REMARK    4  A    between atoms: O_20  and  C_21
REMARK                            x       y       z     vdW  Elec       q    Type
REMARK                         _______ _______ _______ _____ _____    ______ ____
ROOT
ATOM      1  C   UNL     1       5.961  -5.476  24.056  0.00  0.00    +0.061 A 
ATOM      2  C   UNL     1       6.621  -4.542  24.879  0.00  0.00    +0.025 A 
ATOM      3  C   UNL     1       7.446  -3.560  24.304  0.00  0.00    +0.001 A 
ATOM      4  C   UNL     1       7.603  -3.547  22.924  0.00  0.00    +0.047 A 
ATOM      5  N   UNL     1       8.382  -2.454  22.636  0.00  0.00    -0.354 N 
ATOM      6  H   UNL     1       8.645  -2.089  21.718  0.00  0.00    +0.166 HD
ATOM      7  C   UNL     1       8.650  -1.712  23.766  0.00  0.00    +0.047 A 
ATOM      8  C   UNL     1       7.012  -4.487  22.078  0.00  0.00    +0.027 A 
ATOM      9  C   UNL     1       8.155  -2.447  24.830  0.00  0.00    +0.036 A 
ATOM     10  C   UNL     1       6.189  -5.449  22.670  0.00  0.00    +0.018 A 
ENDROOT
BRANCH   1  14
ATOM     11  N   UNL     1       4.896  -6.502  25.959  0.00  0.00    -0.250 N 
ATOM     12  H   UNL     1       5.494  -5.928  26.544  0.00  0.00    +0.288 HD
ATOM     13  H   UNL     1       4.266  -7.144  26.417  0.00  0.00    +0.288 HD
ATOM     14  C   UNL     1       5.008  -6.426  24.650  0.00  0.00    +0.266 C 
ATOM     15  N   UNL     1       4.291  -7.210  23.871  0.00  0.00    -0.288 N 
ATOM     16  H   UNL     1       3.648  -7.897  24.234  0.00  0.00    +0.301 HD
ATOM     17  H   UNL     1       4.377  -7.130  22.864  0.00  0.00    +0.301 HD
ENDBRANCH   1  14
BRANCH   7  18
ATOM     18  C   UNL     1       9.243  -0.352  23.660  0.00  0.00    -0.006 A 
ATOM     19  C   UNL     1       8.443   0.783  23.248  0.00  0.00    -0.056 A 
ATOM     20  O   UNL     1       7.269   0.647  22.729  0.00  0.00    -0.871 OA
ATOM     21  C   UNL     1       9.081   2.045  23.451  0.00  0.00    +0.114 A 
ATOM     22  C   UNL     1      10.432   2.159  23.837  0.00  0.00    +0.045 A 
ATOM     23  C   UNL     1      11.192   1.040  24.122  0.00  0.00    +0.004 A 
ATOM     24  C   UNL     1      10.589  -0.207  24.062  0.00  0.00    +0.009 A 
BRANCH  21  25
ATOM     25  O   UNL     1       8.523   3.298  23.265  0.00  0.00    -0.489 OA
BRANCH  25  26
ATOM     26  C   UNL     1       9.060   4.381  24.012  0.00  0.00    +0.173 C 
ATOM     27  C   UNL     1       8.311   4.503  25.338  0.00  0.00    +0.044 C 
ATOM     28  C   UNL     1       8.329   5.989  25.694  0.00  0.00    +0.004 C 
ATOM     29  C   UNL     1       8.952   6.698  24.495  0.00  0.00    +0.004 C 
ATOM     30  C   UNL     1       8.763   5.722  23.342  0.00  0.00    +0.044 C 
ENDBRANCH  25  26
ENDBRANCH  21  25
ENDBRANCH   7  18
TORSDOF 4
ENDMDL
