MODEL 1
REMARK VINA RESULT:      -6.1      0.000      0.000
REMARK  Name = 
REMARK  7 active torsions:
REMARK  status: ('A' for Active; 'I' for Inactive)
REMARK    1  A    between atoms: O_1  and  C_2
REMARK    2  A    between atoms: C_5  and  N_16
REMARK    3  A    between atoms: C_8  and  C_10
REMARK    4  A    between atoms: C_10  and  O_11
REMARK    5  A    between atoms: O_11  and  P_12
REMARK    6  A    between atoms: P_12  and  O_13
REMARK    7  A    between atoms: P_12  and  O_14
REMARK                            x       y       z     vdW  Elec       q    Type
REMARK                         _______ _______ _______ _____ _____    ______ ____
ROOT
ATOM      1  C   UNL     1       8.569  -1.878  22.249  0.00  0.00    +0.150 C 
ATOM      2  C   UNL     1       8.030  -0.739  23.118  0.00  0.00    +0.175 C 
ATOM      3  O   UNL     1       8.644  -0.854  24.420  0.00  0.00    -0.348 OA
ATOM      4  C   UNL     1       9.426  -2.064  24.456  0.00  0.00    +0.226 C 
ATOM      5  C   UNL     1       9.799  -2.328  23.001  0.00  0.00    +0.088 C 
ENDROOT
BRANCH   4   6
ATOM      6  N   UNL     1       8.668  -3.143  25.113  0.00  0.00    -0.273 N 
ATOM      7  C   UNL     1       9.289  -4.386  25.209  0.00  0.00    +0.331 A 
ATOM      8  O   UNL     1      10.415  -4.630  24.783  0.00  0.00    -0.246 OA
ATOM      9  N   UNL     1       8.564  -5.362  25.840  0.00  0.00    -0.274 N 
ATOM     10  H   UNL     1       9.012  -6.261  25.932  0.00  0.00    +0.173 HD
ATOM     11  C   UNL     1       7.410  -5.182  26.553  0.00  0.00    +0.267 A 
ATOM     12  O   UNL     1       6.944  -6.088  27.239  0.00  0.00    -0.267 OA
ATOM     13  C   UNL     1       6.808  -3.829  26.456  0.00  0.00    +0.094 A 
ATOM     14  I   UNL     1       5.030  -3.433  27.393  0.00  0.00    -0.037 I 
ATOM     15  C   UNL     1       7.467  -2.899  25.762  0.00  0.00    +0.113 A 
ENDBRANCH   4   6
BRANCH   1  16
ATOM     16  O   UNL     1       7.634  -2.957  22.168  0.00  0.00    -0.389 OA
ATOM     17  H   UNL     1       6.853  -2.738  22.702  0.00  0.00    +0.210 HD
ENDBRANCH   1  16
BRANCH   2  18
ATOM     18  C   UNL     1       8.326   0.644  22.551  0.00  0.00    +0.206 C 
BRANCH  18  19
ATOM     19  O   UNL     1       8.549   1.543  23.626  0.00  0.00    -0.284 OA
BRANCH  19  20
ATOM     20  P   UNL     1       9.947   2.539  23.418  0.00  0.00    +0.472 P 
ATOM     21  O   UNL     1      11.199   3.431  23.230  0.00  0.00    -0.228 OA
BRANCH  20  22
ATOM     22  O   UNL     1       9.837   2.094  21.845  0.00  0.00    -0.303 OA
ATOM     23  H   UNL     1      10.563   2.464  21.314  0.00  0.00    +0.222 HD
ENDBRANCH  20  22
BRANCH  20  24
ATOM     24  O   UNL     1      10.793   1.204  23.846  0.00  0.00    -0.303 OA
ATOM     25  H   UNL     1      10.882   1.255  24.817  0.00  0.00    +0.222 HD
ENDBRANCH  20  24
ENDBRANCH  19  20
ENDBRANCH  18  19
ENDBRANCH   2  18
TORSDOF 7
ENDMDL
MODEL 2
REMARK VINA RESULT:      -6.0      2.173      2.525
REMARK  Name = 
REMARK  7 active torsions:
REMARK  status: ('A' for Active; 'I' for Inactive)
REMARK    1  A    between atoms: O_1  and  C_2
REMARK    2  A    between atoms: C_5  and  N_16
REMARK    3  A    between atoms: C_8  and  C_10
REMARK    4  A    between atoms: C_10  and  O_11
REMARK    5  A    between atoms: O_11  and  P_12
REMARK    6  A    between atoms: P_12  and  O_13
REMARK    7  A    between atoms: P_12  and  O_14
REMARK                            x       y       z     vdW  Elec       q    Type
REMARK                         _______ _______ _______ _____ _____    ______ ____
ROOT
ATOM      1  C   UNL     1      10.101  -1.383  23.251  0.00  0.00    +0.150 C 
ATOM      2  C   UNL     1       9.050  -1.047  22.190  0.00  0.00    +0.175 C 
ATOM      3  O   UNL     1       7.784  -0.885  22.865  0.00  0.00    -0.348 OA
ATOM      4  C   UNL     1       7.955  -1.226  24.255  0.00  0.00    +0.226 C 
ATOM      5  C   UNL     1       9.431  -0.968  24.539  0.00  0.00    +0.088 C 
ENDROOT
BRANCH   4   6
ATOM      6  N   UNL     1       7.503  -2.607  24.501  0.00  0.00    -0.273 N 
ATOM      7  C   UNL     1       7.261  -2.969  25.825  0.00  0.00    +0.331 A 
ATOM      8  O   UNL     1       7.402  -2.214  26.782  0.00  0.00    -0.246 OA
ATOM      9  N   UNL     1       6.827  -4.253  26.016  0.00  0.00    -0.274 N 
ATOM     10  H   UNL     1       6.630  -4.520  26.969  0.00  0.00    +0.173 HD
ATOM     11  C   UNL     1       6.414  -5.124  25.044  0.00  0.00    +0.267 A 
ATOM     12  O   UNL     1       5.864  -6.182  25.336  0.00  0.00    -0.267 OA
ATOM     13  C   UNL     1       6.652  -4.677  23.649  0.00  0.00    +0.094 A 
ATOM     14  I   UNL     1       6.174  -5.912  22.086  0.00  0.00    -0.037 I 
ATOM     15  C   UNL     1       7.164  -3.459  23.461  0.00  0.00    +0.113 A 
ENDBRANCH   4   6
BRANCH   1  16
ATOM     16  O   UNL     1      10.377  -2.786  23.283  0.00  0.00    -0.389 OA
ATOM     17  H   UNL     1      10.835  -3.035  22.465  0.00  0.00    +0.210 HD
ENDBRANCH   1  16
BRANCH   2  18
ATOM     18  C   UNL     1       9.364   0.225  21.412  0.00  0.00    +0.206 C 
BRANCH  18  19
ATOM     19  O   UNL     1       8.488   1.255  21.845  0.00  0.00    -0.284 OA
BRANCH  19  20
ATOM     20  P   UNL     1       9.259   2.453  22.825  0.00  0.00    +0.472 P 
ATOM     21  O   UNL     1       9.950   3.525  23.703  0.00  0.00    -0.228 OA
BRANCH  20  22
ATOM     22  O   UNL     1       8.288   3.505  22.029  0.00  0.00    -0.303 OA
ATOM     23  H   UNL     1       7.989   4.227  22.608  0.00  0.00    +0.222 HD
ENDBRANCH  20  22
BRANCH  20  24
ATOM     24  O   UNL     1      10.409   2.468  21.660  0.00  0.00    -0.303 OA
ATOM     25  H   UNL     1      10.185   3.225  21.085  0.00  0.00    +0.222 HD
ENDBRANCH  20  24
ENDBRANCH  19  20
ENDBRANCH  18  19
ENDBRANCH   2  18
TORSDOF 7
ENDMDL
MODEL 3
REMARK VINA RESULT:      -5.9      2.665      3.097
REMARK  Name = 
REMARK  7 active torsions:
REMARK  status: ('A' for Active; 'I' for Inactive)
REMARK    1  A    between atoms: O_1  and  C_2
REMARK    2  A    between atoms: C_5  and  N_16
REMARK    3  A    between atoms: C_8  and  C_10
REMARK    4  A    between atoms: C_10  and  O_11
REMARK    5  A    between atoms: O_11  and  P_12
REMARK    6  A    between atoms: P_12  and  O_13
REMARK    7  A    between atoms: P_12  and  O_14
REMARK                            x       y       z     vdW  Elec       q    Type
REMARK                         _______ _______ _______ _____ _____    ______ ____
ROOT
ATOM      1  C   UNL     1       7.000  -1.944  23.291  0.00  0.00    +0.150 C 
ATOM      2  C   UNL     1       7.831  -2.222  24.546  0.00  0.00    +0.175 C 
ATOM      3  O   UNL     1       8.349  -3.567  24.437  0.00  0.00    -0.348 OA
ATOM      4  C   UNL     1       7.788  -4.183  23.262  0.00  0.00    +0.226 C 
ATOM      5  C   UNL     1       7.455  -3.019  22.334  0.00  0.00    +0.088 C 
ENDROOT
BRANCH   4   6
ATOM      6  N   UNL     1       6.646  -5.037  23.629  0.00  0.00    -0.273 N 
ATOM      7  C   UNL     1       6.058  -5.783  22.610  0.00  0.00    +0.331 A 
ATOM      8  O   UNL     1       6.433  -5.770  21.441  0.00  0.00    -0.246 OA
ATOM      9  N   UNL     1       5.009  -6.579  22.990  0.00  0.00    -0.274 N 
ATOM     10  H   UNL     1       4.588  -7.138  22.264  0.00  0.00    +0.173 HD
ATOM     11  C   UNL     1       4.631  -6.865  24.273  0.00  0.00    +0.267 A 
ATOM     12  O   UNL     1       3.800  -7.739  24.507  0.00  0.00    -0.267 OA
ATOM     13  C   UNL     1       5.315  -6.076  25.327  0.00  0.00    +0.094 A 
ATOM     14  I   UNL     1       4.789  -6.326  27.292  0.00  0.00    -0.037 I 
ATOM     15  C   UNL     1       6.276  -5.230  24.952  0.00  0.00    +0.113 A 
ENDBRANCH   4   6
BRANCH   1  16
ATOM     16  O   UNL     1       5.601  -2.091  23.551  0.00  0.00    -0.389 OA
ATOM     17  H   UNL     1       5.480  -2.743  24.260  0.00  0.00    +0.210 HD
ENDBRANCH   1  16
BRANCH   2  18
ATOM     18  C   UNL     1       8.995  -1.255  24.727  0.00  0.00    +0.206 C 
BRANCH  18  19
ATOM     19  O   UNL     1       8.522   0.070  24.543  0.00  0.00    -0.284 OA
BRANCH  19  20
ATOM     20  P   UNL     1       9.768   1.200  24.139  0.00  0.00    +0.472 P 
ATOM     21  O   UNL     1      10.883   2.211  23.777  0.00  0.00    -0.228 OA
BRANCH  20  22
ATOM     22  O   UNL     1      10.212   0.076  23.033  0.00  0.00    -0.303 OA
ATOM     23  H   UNL     1       9.448  -0.255  22.529  0.00  0.00    +0.222 HD
ENDBRANCH  20  22
BRANCH  20  24
ATOM     24  O   UNL     1      10.611   0.493  25.352  0.00  0.00    -0.303 OA
ATOM     25  H   UNL     1      10.532   1.103  26.111  0.00  0.00    +0.222 HD
ENDBRANCH  20  24
ENDBRANCH  19  20
ENDBRANCH  18  19
ENDBRANCH   2  18
TORSDOF 7
ENDMDL
MODEL 4
REMARK VINA RESULT:      -5.9      1.357      1.847
REMARK  Name = 
REMARK  7 active torsions:
REMARK  status: ('A' for Active; 'I' for Inactive)
REMARK    1  A    between atoms: O_1  and  C_2
REMARK    2  A    between atoms: C_5  and  N_16
REMARK    3  A    between atoms: C_8  and  C_10
REMARK    4  A    between atoms: C_10  and  O_11
REMARK    5  A    between atoms: O_11  and  P_12
REMARK    6  A    between atoms: P_12  and  O_13
REMARK    7  A    between atoms: P_12  and  O_14
REMARK                            x       y       z     vdW  Elec       q    Type
REMARK                         _______ _______ _______ _____ _____    ______ ____
ROOT
ATOM      1  C   UNL     1       7.867  -1.499  23.745  0.00  0.00    +0.150 C 
ATOM      2  C   UNL     1       9.367  -1.775  23.884  0.00  0.00    +0.175 C 
ATOM      3  O   UNL     1       9.580  -3.177  23.609  0.00  0.00    -0.348 OA
ATOM      4  C   UNL     1       8.299  -3.813  23.436  0.00  0.00    +0.226 C 
ATOM      5  C   UNL     1       7.370  -2.697  22.971  0.00  0.00    +0.088 C 
ENDROOT
BRANCH   4   6
ATOM      6  N   UNL     1       7.892  -4.488  24.681  0.00  0.00    -0.273 N 
ATOM      7  C   UNL     1       8.896  -5.099  25.429  0.00  0.00    +0.331 A 
ATOM      8  O   UNL     1      10.083  -5.107  25.114  0.00  0.00    -0.246 OA
ATOM      9  N   UNL     1       8.485  -5.701  26.589  0.00  0.00    -0.274 N 
ATOM     10  H   UNL     1       9.207  -6.130  27.148  0.00  0.00    +0.173 HD
ATOM     11  C   UNL     1       7.254  -5.581  27.174  0.00  0.00    +0.267 A 
ATOM     12  O   UNL     1       7.050  -6.006  28.307  0.00  0.00    -0.267 OA
ATOM     13  C   UNL     1       6.229  -4.885  26.357  0.00  0.00    +0.094 A 
ATOM     14  I   UNL     1       4.312  -4.710  27.060  0.00  0.00    -0.037 I 
ATOM     15  C   UNL     1       6.603  -4.376  25.182  0.00  0.00    +0.113 A 
ENDBRANCH   4   6
BRANCH   1  16
ATOM     16  O   UNL     1       7.226  -1.452  25.023  0.00  0.00    -0.389 OA
ATOM     17  H   UNL     1       7.820  -1.838  25.687  0.00  0.00    +0.210 HD
ENDBRANCH   1  16
BRANCH   2  18
ATOM     18  C   UNL     1      10.223  -0.946  22.935  0.00  0.00    +0.206 C 
BRANCH  18  19
ATOM     19  O   UNL     1       9.467   0.169  22.490  0.00  0.00    -0.284 OA
BRANCH  19  20
ATOM     20  P   UNL     1      10.077   1.687  23.052  0.00  0.00    +0.472 P 
ATOM     21  O   UNL     1      10.623   3.046  23.555  0.00  0.00    -0.228 OA
BRANCH  20  22
ATOM     22  O   UNL     1       8.514   1.999  23.428  0.00  0.00    -0.303 OA
ATOM     23  H   UNL     1       8.008   2.291  22.650  0.00  0.00    +0.222 HD
ENDBRANCH  20  22
BRANCH  20  24
ATOM     24  O   UNL     1       9.912   2.173  21.498  0.00  0.00    -0.303 OA
ATOM     25  H   UNL     1      10.816   2.178  21.131  0.00  0.00    +0.222 HD
ENDBRANCH  20  24
ENDBRANCH  19  20
ENDBRANCH  18  19
ENDBRANCH   2  18
TORSDOF 7
ENDMDL
MODEL 5
REMARK VINA RESULT:      -5.9      3.470      6.646
REMARK  Name = 
REMARK  7 active torsions:
REMARK  status: ('A' for Active; 'I' for Inactive)
REMARK    1  A    between atoms: O_1  and  C_2
REMARK    2  A    between atoms: C_5  and  N_16
REMARK    3  A    between atoms: C_8  and  C_10
REMARK    4  A    between atoms: C_10  and  O_11
REMARK    5  A    between atoms: O_11  and  P_12
REMARK    6  A    between atoms: P_12  and  O_13
REMARK    7  A    between atoms: P_12  and  O_14
REMARK                            x       y       z     vdW  Elec       q    Type
REMARK                         _______ _______ _______ _____ _____    ______ ____
ROOT
ATOM      1  C   UNL     1       9.782  -1.560  23.964  0.00  0.00    +0.150 C 
ATOM      2  C   UNL     1       8.361  -2.063  23.693  0.00  0.00    +0.175 C 
ATOM      3  O   UNL     1       7.875  -1.385  22.514  0.00  0.00    -0.348 OA
ATOM      4  C   UNL     1       8.849  -0.402  22.113  0.00  0.00    +0.226 C 
ATOM      5  C   UNL     1      10.176  -0.927  22.651  0.00  0.00    +0.088 C 
ENDROOT
BRANCH   4   6
ATOM      6  N   UNL     1       8.460   0.932  22.604  0.00  0.00    -0.273 N 
ATOM      7  C   UNL     1       9.325   1.988  22.325  0.00  0.00    +0.331 A 
ATOM      8  O   UNL     1      10.377   1.871  21.703  0.00  0.00    -0.246 OA
ATOM      9  N   UNL     1       8.924   3.216  22.780  0.00  0.00    -0.274 N 
ATOM     10  H   UNL     1       9.534   3.991  22.567  0.00  0.00    +0.173 HD
ATOM     11  C   UNL     1       7.691   3.533  23.281  0.00  0.00    +0.267 A 
ATOM     12  O   UNL     1       7.373   4.702  23.482  0.00  0.00    -0.267 OA
ATOM     13  C   UNL     1       6.788   2.380  23.521  0.00  0.00    +0.094 A 
ATOM     14  I   UNL     1       4.942   2.686  24.356  0.00  0.00    -0.037 I 
ATOM     15  C   UNL     1       7.213   1.167  23.164  0.00  0.00    +0.113 A 
ENDBRANCH   4   6
BRANCH   1  16
ATOM     16  O   UNL     1       9.795  -0.572  24.998  0.00  0.00    -0.389 OA
ATOM     17  H   UNL     1      10.707  -0.453  25.308  0.00  0.00    +0.210 HD
ENDBRANCH   1  16
BRANCH   2  18
ATOM     18  C   UNL     1       8.287  -3.568  23.466  0.00  0.00    +0.206 C 
BRANCH  18  19
ATOM     19  O   UNL     1       9.187  -4.211  24.356  0.00  0.00    -0.284 OA
BRANCH  19  20
ATOM     20  P   UNL     1       8.400  -5.101  25.613  0.00  0.00    +0.472 P 
ATOM     21  O   UNL     1       7.695  -5.898  26.738  0.00  0.00    -0.228 OA
BRANCH  20  22
ATOM     22  O   UNL     1       9.011  -3.945  26.599  0.00  0.00    -0.303 OA
ATOM     23  H   UNL     1       8.842  -4.145  27.537  0.00  0.00    +0.222 HD
ENDBRANCH  20  22
BRANCH  20  24
ATOM     24  O   UNL     1       9.768  -6.000  25.644  0.00  0.00    -0.303 OA
ATOM     25  H   UNL     1       9.472  -6.925  25.536  0.00  0.00    +0.222 HD
ENDBRANCH  20  24
ENDBRANCH  19  20
ENDBRANCH  18  19
ENDBRANCH   2  18
TORSDOF 7
ENDMDL
MODEL 6
REMARK VINA RESULT:      -5.9      3.368      6.810
REMARK  Name = 
REMARK  7 active torsions:
REMARK  status: ('A' for Active; 'I' for Inactive)
REMARK    1  A    between atoms: O_1  and  C_2
REMARK    2  A    between atoms: C_5  and  N_16
REMARK    3  A    between atoms: C_8  and  C_10
REMARK    4  A    between atoms: C_10  and  O_11
REMARK    5  A    between atoms: O_11  and  P_12
REMARK    6  A    between atoms: P_12  and  O_13
REMARK    7  A    between atoms: P_12  and  O_14
REMARK                            x       y       z     vdW  Elec       q    Type
REMARK                         _______ _______ _______ _____ _____    ______ ____
ROOT
ATOM      1  C   UNL     1       8.220  -3.003  26.144  0.00  0.00    +0.150 C 
ATOM      2  C   UNL     1       6.794  -2.967  25.588  0.00  0.00    +0.175 C 
ATOM      3  O   UNL     1       6.885  -3.048  24.149  0.00  0.00    -0.348 OA
ATOM      4  C   UNL     1       8.274  -3.001  23.771  0.00  0.00    +0.226 C 
ATOM      5  C   UNL     1       9.026  -3.538  24.984  0.00  0.00    +0.088 C 
ENDROOT
BRANCH   4   6
ATOM      6  N   UNL     1       8.645  -1.636  23.359  0.00  0.00    -0.273 N 
ATOM      7  C   UNL     1       9.935  -1.451  22.866  0.00  0.00    +0.331 A 
ATOM      8  O   UNL     1      10.767  -2.347  22.757  0.00  0.00    -0.246 OA
ATOM      9  N   UNL     1      10.241  -0.173  22.476  0.00  0.00    -0.274 N 
ATOM     10  H   UNL     1      11.166  -0.032  22.100  0.00  0.00    +0.173 HD
ATOM     11  C   UNL     1       9.360   0.863  22.329  0.00  0.00    +0.267 A 
ATOM     12  O   UNL     1       9.704   1.913  21.793  0.00  0.00    -0.267 OA
ATOM     13  C   UNL     1       7.987   0.604  22.829  0.00  0.00    +0.094 A 
ATOM     14  I   UNL     1       6.580   2.092  22.763  0.00  0.00    -0.037 I 
ATOM     15  C   UNL     1       7.709  -0.614  23.296  0.00  0.00    +0.113 A 
ENDBRANCH   4   6
BRANCH   1  16
ATOM     16  O   UNL     1       8.679  -1.692  26.484  0.00  0.00    -0.389 OA
ATOM     17  H   UNL     1       8.491  -1.091  25.746  0.00  0.00    +0.210 HD
ENDBRANCH   1  16
BRANCH   2  18
ATOM     18  C   UNL     1       5.920  -4.107  26.096  0.00  0.00    +0.206 C 
BRANCH  18  19
ATOM     19  O   UNL     1       6.221  -4.342  27.463  0.00  0.00    -0.284 OA
BRANCH  19  20
ATOM     20  P   UNL     1       5.942  -5.975  27.961  0.00  0.00    +0.472 P 
ATOM     21  O   UNL     1       5.692  -7.436  28.408  0.00  0.00    -0.228 OA
BRANCH  20  22
ATOM     22  O   UNL     1       7.576  -6.089  27.961  0.00  0.00    -0.303 OA
ATOM     23  H   UNL     1       7.901  -6.604  27.202  0.00  0.00    +0.222 HD
ENDBRANCH  20  22
BRANCH  20  24
ATOM     24  O   UNL     1       5.813  -6.296  26.361  0.00  0.00    -0.303 OA
ATOM     25  H   UNL     1       6.606  -6.821  26.139  0.00  0.00    +0.222 HD
ENDBRANCH  20  24
ENDBRANCH  19  20
ENDBRANCH  18  19
ENDBRANCH   2  18
TORSDOF 7
ENDMDL
MODEL 7
REMARK VINA RESULT:      -5.8      3.809      7.012
REMARK  Name = 
REMARK  7 active torsions:
REMARK  status: ('A' for Active; 'I' for Inactive)
REMARK    1  A    between atoms: O_1  and  C_2
REMARK    2  A    between atoms: C_5  and  N_16
REMARK    3  A    between atoms: C_8  and  C_10
REMARK    4  A    between atoms: C_10  and  O_11
REMARK    5  A    between atoms: O_11  and  P_12
REMARK    6  A    between atoms: P_12  and  O_13
REMARK    7  A    between atoms: P_12  and  O_14
REMARK                            x       y       z     vdW  Elec       q    Type
REMARK                         _______ _______ _______ _____ _____    ______ ____
ROOT
ATOM      1  C   UNL     1       9.780  -0.492  24.824  0.00  0.00    +0.150 C 
ATOM      2  C   UNL     1       8.869  -1.001  23.704  0.00  0.00    +0.175 C 
ATOM      3  O   UNL     1       9.137  -0.205  22.528  0.00  0.00    -0.348 OA
ATOM      4  C   UNL     1      10.057   0.846  22.882  0.00  0.00    +0.226 C 
ATOM      5  C   UNL     1      10.828   0.300  24.080  0.00  0.00    +0.088 C 
ENDROOT
BRANCH   4   6
ATOM      6  N   UNL     1       9.329   2.102  23.128  0.00  0.00    -0.273 N 
ATOM      7  C   UNL     1      10.092   3.243  23.363  0.00  0.00    +0.331 A 
ATOM      8  O   UNL     1      11.320   3.260  23.376  0.00  0.00    -0.246 OA
ATOM      9  N   UNL     1       9.383   4.397  23.570  0.00  0.00    -0.274 N 
ATOM     10  H   UNL     1       9.927   5.233  23.722  0.00  0.00    +0.173 HD
ATOM     11  C   UNL     1       8.042   4.573  23.364  0.00  0.00    +0.267 A 
ATOM     12  O   UNL     1       7.540   5.693  23.396  0.00  0.00    -0.267 OA
ATOM     13  C   UNL     1       7.277   3.335  23.075  0.00  0.00    +0.094 A 
ATOM     14  I   UNL     1       5.244   3.425  22.835  0.00  0.00    -0.037 I 
ATOM     15  C   UNL     1       7.954   2.191  22.963  0.00  0.00    +0.113 A 
ENDBRANCH   4   6
BRANCH   1  16
ATOM     16  O   UNL     1       9.071   0.371  25.719  0.00  0.00    -0.389 OA
ATOM     17  H   UNL     1       8.336  -0.123  26.116  0.00  0.00    +0.210 HD
ENDBRANCH   1  16
BRANCH   2  18
ATOM     18  C   UNL     1       9.088  -2.471  23.369  0.00  0.00    +0.206 C 
BRANCH  18  19
ATOM     19  O   UNL     1       9.842  -3.071  24.411  0.00  0.00    -0.284 OA
BRANCH  19  20
ATOM     20  P   UNL     1       9.013  -4.362  25.209  0.00  0.00    +0.472 P 
ATOM     21  O   UNL     1       8.271  -5.518  25.924  0.00  0.00    -0.228 OA
BRANCH  20  22
ATOM     22  O   UNL     1      10.426  -5.172  25.029  0.00  0.00    -0.303 OA
ATOM     23  H   UNL     1      10.438  -5.994  25.549  0.00  0.00    +0.222 HD
ENDBRANCH  20  22
BRANCH  20  24
ATOM     24  O   UNL     1       8.474  -4.757  23.714  0.00  0.00    -0.303 OA
ATOM     25  H   UNL     1       8.710  -3.998  23.146  0.00  0.00    +0.222 HD
ENDBRANCH  20  24
ENDBRANCH  19  20
ENDBRANCH  18  19
ENDBRANCH   2  18
TORSDOF 7
ENDMDL
MODEL 8
REMARK VINA RESULT:      -5.8      1.127      1.397
REMARK  Name = 
REMARK  7 active torsions:
REMARK  status: ('A' for Active; 'I' for Inactive)
REMARK    1  A    between atoms: O_1  and  C_2
REMARK    2  A    between atoms: C_5  and  N_16
REMARK    3  A    between atoms: C_8  and  C_10
REMARK    4  A    between atoms: C_10  and  O_11
REMARK    5  A    between atoms: O_11  and  P_12
REMARK    6  A    between atoms: P_12  and  O_13
REMARK    7  A    between atoms: P_12  and  O_14
REMARK                            x       y       z     vdW  Elec       q    Type
REMARK                         _______ _______ _______ _____ _____    ______ ____
ROOT
ATOM      1  C   UNL     1       8.469  -2.542  22.915  0.00  0.00    +0.150 C 
ATOM      2  C   UNL     1       7.671  -1.414  23.576  0.00  0.00    +0.175 C 
ATOM      3  O   UNL     1       8.022  -1.396  24.977  0.00  0.00    -0.348 OA
ATOM      4  C   UNL     1       8.883  -2.518  25.252  0.00  0.00    +0.226 C 
ATOM      5  C   UNL     1       9.559  -2.825  23.920  0.00  0.00    +0.088 C 
ENDROOT
BRANCH   4   6
ATOM      6  N   UNL     1       8.106  -3.629  25.829  0.00  0.00    -0.273 N 
ATOM      7  C   UNL     1       8.817  -4.755  26.237  0.00  0.00    +0.331 A 
ATOM      8  O   UNL     1      10.035  -4.873  26.145  0.00  0.00    -0.246 OA
ATOM      9  N   UNL     1       8.065  -5.762  26.785  0.00  0.00    -0.274 N 
ATOM     10  H   UNL     1       8.572  -6.575  27.101  0.00  0.00    +0.173 HD
ATOM     11  C   UNL     1       6.750  -5.684  27.154  0.00  0.00    +0.267 A 
ATOM     12  O   UNL     1       6.224  -6.579  27.809  0.00  0.00    -0.267 OA
ATOM     13  C   UNL     1       6.046  -4.447  26.735  0.00  0.00    +0.094 A 
ATOM     14  I   UNL     1       4.048  -4.225  27.133  0.00  0.00    -0.037 I 
ATOM     15  C   UNL     1       6.755  -3.501  26.117  0.00  0.00    +0.113 A 
ENDBRANCH   4   6
BRANCH   1  16
ATOM     16  O   UNL     1       7.665  -3.711  22.735  0.00  0.00    -0.389 OA
ATOM     17  H   UNL     1       8.203  -4.402  22.318  0.00  0.00    +0.210 HD
ENDBRANCH   1  16
BRANCH   2  18
ATOM     18  C   UNL     1       7.954  -0.043  22.976  0.00  0.00    +0.206 C 
BRANCH  18  19
ATOM     19  O   UNL     1       8.205   0.876  24.029  0.00  0.00    -0.284 OA
BRANCH  19  20
ATOM     20  P   UNL     1       9.708   1.716  23.869  0.00  0.00    +0.472 P 
ATOM     21  O   UNL     1      11.054   2.468  23.726  0.00  0.00    -0.228 OA
BRANCH  20  22
ATOM     22  O   UNL     1      10.146   0.864  25.198  0.00  0.00    -0.303 OA
ATOM     23  H   UNL     1       9.682   1.176  25.995  0.00  0.00    +0.222 HD
ENDBRANCH  20  22
BRANCH  20  24
ATOM     24  O   UNL     1       8.982   2.899  24.737  0.00  0.00    -0.303 OA
ATOM     25  H   UNL     1       8.663   3.544  24.077  0.00  0.00    +0.222 HD
ENDBRANCH  20  24
ENDBRANCH  19  20
ENDBRANCH  18  19
ENDBRANCH   2  18
TORSDOF 7
ENDMDL
MODEL 9
REMARK VINA RESULT:      -5.7      1.865      2.166
REMARK  Name = 
REMARK  7 active torsions:
REMARK  status: ('A' for Active; 'I' for Inactive)
REMARK    1  A    between atoms: O_1  and  C_2
REMARK    2  A    between atoms: C_5  and  N_16
REMARK    3  A    between atoms: C_8  and  C_10
REMARK    4  A    between atoms: C_10  and  O_11
REMARK    5  A    between atoms: O_11  and  P_12
REMARK    6  A    between atoms: P_12  and  O_13
REMARK    7  A    between atoms: P_12  and  O_14
REMARK                            x       y       z     vdW  Elec       q    Type
REMARK                         _______ _______ _______ _____ _____    ______ ____
ROOT
ATOM      1  C   UNL     1       7.580  -0.880  22.980  0.00  0.00    +0.150 C 
ATOM      2  C   UNL     1       8.338  -0.816  24.309  0.00  0.00    +0.175 C 
ATOM      3  O   UNL     1       8.986  -2.092  24.503  0.00  0.00    -0.348 OA
ATOM      4  C   UNL     1       8.574  -2.984  23.449  0.00  0.00    +0.226 C 
ATOM      5  C   UNL     1       8.203  -2.068  22.287  0.00  0.00    +0.088 C 
ENDROOT
BRANCH   4   6
ATOM      6  N   UNL     1       7.493  -3.866  23.919  0.00  0.00    -0.273 N 
ATOM      7  C   UNL     1       6.978  -4.783  23.005  0.00  0.00    +0.331 A 
ATOM      8  O   UNL     1       7.370  -4.895  21.847  0.00  0.00    -0.246 OA
ATOM      9  N   UNL     1       5.986  -5.599  23.481  0.00  0.00    -0.274 N 
ATOM     10  H   UNL     1       5.619  -6.279  22.833  0.00  0.00    +0.173 HD
ATOM     11  C   UNL     1       5.609  -5.741  24.788  0.00  0.00    +0.267 A 
ATOM     12  O   UNL     1       4.842  -6.636  25.131  0.00  0.00    -0.267 OA
ATOM     13  C   UNL     1       6.216  -4.770  25.732  0.00  0.00    +0.094 A 
ATOM     14  I   UNL     1       5.678  -4.797  27.709  0.00  0.00    -0.037 I 
ATOM     15  C   UNL     1       7.116  -3.910  25.254  0.00  0.00    +0.113 A 
ENDBRANCH   4   6
BRANCH   1  16
ATOM     16  O   UNL     1       6.186  -1.122  23.188  0.00  0.00    -0.389 OA
ATOM     17  H   UNL     1       5.953  -0.862  24.094  0.00  0.00    +0.210 HD
ENDBRANCH   1  16
BRANCH   2  18
ATOM     18  C   UNL     1       9.389   0.286  24.352  0.00  0.00    +0.206 C 
BRANCH  18  19
ATOM     19  O   UNL     1       9.074   1.258  23.367  0.00  0.00    -0.284 OA
BRANCH  19  20
ATOM     20  P   UNL     1      10.237   2.533  23.256  0.00  0.00    +0.472 P 
ATOM     21  O   UNL     1      11.279   3.675  23.158  0.00  0.00    -0.228 OA
BRANCH  20  22
ATOM     22  O   UNL     1       8.928   3.501  23.074  0.00  0.00    -0.303 OA
ATOM     23  H   UNL     1       9.174   4.381  22.739  0.00  0.00    +0.222 HD
ENDBRANCH  20  22
BRANCH  20  24
ATOM     24  O   UNL     1      10.306   2.148  21.667  0.00  0.00    -0.303 OA
ATOM     25  H   UNL     1      10.314   1.172  21.638  0.00  0.00    +0.222 HD
ENDBRANCH  20  24
ENDBRANCH  19  20
ENDBRANCH  18  19
ENDBRANCH   2  18
TORSDOF 7
ENDMDL
