MODEL 1
REMARK VINA RESULT:      -7.3      0.000      0.000
REMARK  Name = 
REMARK  8 active torsions:
REMARK  status: ('A' for Active; 'I' for Inactive)
REMARK    1  A    between atoms: C_1  and  C_2
REMARK    2  A    between atoms: C_7  and  S_8
REMARK    3  A    between atoms: S_8  and  N_11
REMARK    4  A    between atoms: N_11  and  C_12
REMARK    5  A    between atoms: C_13  and  C_25
REMARK    6  A    between atoms: C_15  and  C_17
REMARK    7  A    between atoms: C_20  and  C_23
REMARK    8  A    between atoms: C_25  and  O_26
REMARK                            x       y       z     vdW  Elec       q    Type
REMARK                         _______ _______ _______ _____ _____    ______ ____
ROOT
ATOM      1  C   UNL     1       7.927  -4.113  24.195  0.00  0.00    +0.070 A 
ATOM      2  C   UNL     1       8.651  -2.925  24.575  0.00  0.00    +0.041 A 
ATOM      3  C   UNL     1       8.772  -2.002  23.543  0.00  0.00    +0.022 A 
ATOM      4  S   UNL     1       7.902  -2.555  22.167  0.00  0.00    -0.080 S 
ATOM      5  C   UNL     1       7.525  -4.061  22.873  0.00  0.00    +0.119 A 
ENDROOT
BRANCH   3   6
ATOM      6  C   UNL     1       9.449  -0.683  23.477  0.00  0.00    -0.011 A 
ATOM      7  C   UNL     1       9.299   0.152  22.350  0.00  0.00    +0.010 A 
ATOM      8  C   UNL     1       9.857   1.436  22.300  0.00  0.00    +0.019 A 
ATOM      9  C   UNL     1      10.603   1.912  23.377  0.00  0.00    +0.052 A 
ATOM     10  C   UNL     1      10.797   1.087  24.488  0.00  0.00    +0.019 A 
ATOM     11  C   UNL     1      10.229  -0.199  24.536  0.00  0.00    +0.010 A 
BRANCH   9  12
ATOM     12  C   UNL     1      11.151   3.239  23.342  0.00  0.00    +0.099 C 
ATOM     13  N   UNL     1      11.591   4.311  23.310  0.00  0.00    -0.191 NA
ENDBRANCH   9  12
ENDBRANCH   3   6
BRANCH   1  14
ATOM     14  N   UNL     1       7.727  -5.234  25.048  0.00  0.00    -0.215 N 
ATOM     15  H   UNL     1       8.517  -5.410  25.683  0.00  0.00    +0.174 HD
BRANCH  14  16
ATOM     16  S   UNL     1       6.403  -5.186  26.166  0.00  0.00    +0.073 S 
ATOM     17  O   UNL     1       6.615  -6.354  26.999  0.00  0.00    -0.150 OA
ATOM     18  O   UNL     1       6.322  -3.872  26.756  0.00  0.00    -0.150 OA
BRANCH  16  21
ATOM     19  C   UNL     1       4.532  -3.003  24.682  0.00  0.00    +0.046 C 
ATOM     20  C   UNL     1       4.218  -4.467  24.545  0.00  0.00    -0.024 A 
ATOM     21  C   UNL     1       4.979  -5.499  25.131  0.00  0.00    +0.111 A 
ATOM     22  C   UNL     1       4.568  -6.838  24.992  0.00  0.00    +0.029 A 
ATOM     23  C   UNL     1       3.427  -7.159  24.256  0.00  0.00    +0.002 A 
ATOM     24  C   UNL     1       2.679  -6.149  23.663  0.00  0.00    +0.000 A 
ATOM     25  C   UNL     1       3.069  -4.818  23.808  0.00  0.00    +0.005 A 
ENDBRANCH  16  21
ENDBRANCH  14  16
ENDBRANCH   1  14
BRANCH   5  26
ATOM     26  C   UNL     1       6.870  -5.046  22.034  0.00  0.00    +0.345 C 
ATOM     27  O   UNL     1       7.042  -6.257  22.070  0.00  0.00    -0.244 OA
BRANCH  26  28
ATOM     28  O   UNL     1       5.966  -4.491  21.184  0.00  0.00    -0.477 OA
ATOM     29  H   UNL     1       5.442  -5.159  20.702  0.00  0.00    +0.295 HD
ENDBRANCH  26  28
ENDBRANCH   5  26
TORSDOF 7
ENDMDL
MODEL 2
REMARK VINA RESULT:      -7.0      3.840      8.847
REMARK  Name = 
REMARK  8 active torsions:
REMARK  status: ('A' for Active; 'I' for Inactive)
REMARK    1  A    between atoms: C_1  and  C_2
REMARK    2  A    between atoms: C_7  and  S_8
REMARK    3  A    between atoms: S_8  and  N_11
REMARK    4  A    between atoms: N_11  and  C_12
REMARK    5  A    between atoms: C_13  and  C_25
REMARK    6  A    between atoms: C_15  and  C_17
REMARK    7  A    between atoms: C_20  and  C_23
REMARK    8  A    between atoms: C_25  and  O_26
REMARK                            x       y       z     vdW  Elec       q    Type
REMARK                         _______ _______ _______ _____ _____    ______ ____
ROOT
ATOM      1  C   UNL     1       9.418  -0.158  24.770  0.00  0.00    +0.070 A 
ATOM      2  C   UNL     1       8.788  -0.873  25.853  0.00  0.00    +0.041 A 
ATOM      3  C   UNL     1       8.418  -2.169  25.514  0.00  0.00    +0.022 A 
ATOM      4  S   UNL     1       8.947  -2.524  23.917  0.00  0.00    -0.080 S 
ATOM      5  C   UNL     1       9.498  -0.936  23.628  0.00  0.00    +0.119 A 
ENDROOT
BRANCH   3   6
ATOM      6  C   UNL     1       7.728  -3.229  26.290  0.00  0.00    -0.011 A 
ATOM      7  C   UNL     1       6.435  -3.019  26.813  0.00  0.00    +0.010 A 
ATOM      8  C   UNL     1       5.729  -4.033  27.473  0.00  0.00    +0.019 A 
ATOM      9  C   UNL     1       6.312  -5.286  27.647  0.00  0.00    +0.052 A 
ATOM     10  C   UNL     1       7.608  -5.506  27.170  0.00  0.00    +0.019 A 
ATOM     11  C   UNL     1       8.310  -4.486  26.502  0.00  0.00    +0.010 A 
BRANCH   9  12
ATOM     12  C   UNL     1       5.580  -6.338  28.296  0.00  0.00    +0.099 C 
ATOM     13  N   UNL     1       4.986  -7.185  28.817  0.00  0.00    -0.191 NA
ENDBRANCH   9  12
ENDBRANCH   3   6
BRANCH   1  14
ATOM     14  N   UNL     1       9.827   1.202  24.840  0.00  0.00    -0.215 N 
ATOM     15  H   UNL     1      10.504   1.464  24.111  0.00  0.00    +0.174 HD
BRANCH  14  16
ATOM     16  S   UNL     1       8.622   2.431  24.632  0.00  0.00    +0.073 S 
ATOM     17  O   UNL     1       7.880   1.991  23.466  0.00  0.00    -0.150 OA
ATOM     18  O   UNL     1       7.947   2.657  25.886  0.00  0.00    -0.150 OA
BRANCH  16  21
ATOM     19  C   UNL     1       7.597   5.494  24.425  0.00  0.00    +0.046 C 
ATOM     20  C   UNL     1       9.024   5.164  24.088  0.00  0.00    -0.024 A 
ATOM     21  C   UNL     1       9.578   3.869  24.165  0.00  0.00    +0.111 A 
ATOM     22  C   UNL     1      10.912   3.653  23.772  0.00  0.00    +0.029 A 
ATOM     23  C   UNL     1      11.704   4.713  23.329  0.00  0.00    +0.002 A 
ATOM     24  C   UNL     1      11.170   5.995  23.264  0.00  0.00    +0.000 A 
ATOM     25  C   UNL     1       9.845   6.217  23.638  0.00  0.00    +0.005 A 
ENDBRANCH  16  21
ENDBRANCH  14  16
ENDBRANCH   1  14
BRANCH   5  26
ATOM     26  C   UNL     1       9.949  -0.619  22.287  0.00  0.00    +0.345 C 
ATOM     27  O   UNL     1      10.039   0.499  21.797  0.00  0.00    -0.244 OA
BRANCH  26  28
ATOM     28  O   UNL     1      10.328  -1.723  21.589  0.00  0.00    -0.477 OA
ATOM     29  H   UNL     1      10.842  -2.353  22.130  0.00  0.00    +0.295 HD
ENDBRANCH  26  28
ENDBRANCH   5  26
TORSDOF 7
ENDMDL
MODEL 3
REMARK VINA RESULT:      -7.0      2.319      3.340
REMARK  Name = 
REMARK  8 active torsions:
REMARK  status: ('A' for Active; 'I' for Inactive)
REMARK    1  A    between atoms: C_1  and  C_2
REMARK    2  A    between atoms: C_7  and  S_8
REMARK    3  A    between atoms: S_8  and  N_11
REMARK    4  A    between atoms: N_11  and  C_12
REMARK    5  A    between atoms: C_13  and  C_25
REMARK    6  A    between atoms: C_15  and  C_17
REMARK    7  A    between atoms: C_20  and  C_23
REMARK    8  A    between atoms: C_25  and  O_26
REMARK                            x       y       z     vdW  Elec       q    Type
REMARK                         _______ _______ _______ _____ _____    ______ ____
ROOT
ATOM      1  C   UNL     1       6.385  -3.151  26.542  0.00  0.00    +0.070 A 
ATOM      2  C   UNL     1       6.675  -1.810  26.097  0.00  0.00    +0.041 A 
ATOM      3  C   UNL     1       8.010  -1.618  25.762  0.00  0.00    +0.022 A 
ATOM      4  S   UNL     1       8.858  -3.108  25.890  0.00  0.00    -0.080 S 
ATOM      5  C   UNL     1       7.520  -3.942  26.541  0.00  0.00    +0.119 A 
ENDROOT
BRANCH   3   6
ATOM      6  C   UNL     1       8.744  -0.417  25.296  0.00  0.00    -0.011 A 
ATOM      7  C   UNL     1      10.076  -0.513  24.842  0.00  0.00    +0.010 A 
ATOM      8  C   UNL     1      10.762   0.590  24.318  0.00  0.00    +0.019 A 
ATOM      9  C   UNL     1      10.134   1.833  24.253  0.00  0.00    +0.052 A 
ATOM     10  C   UNL     1       8.827   1.960  24.732  0.00  0.00    +0.019 A 
ATOM     11  C   UNL     1       8.141   0.847  25.253  0.00  0.00    +0.010 A 
BRANCH   9  12
ATOM     12  C   UNL     1      10.822   2.959  23.687  0.00  0.00    +0.099 C 
ATOM     13  N   UNL     1      11.376   3.866  23.227  0.00  0.00    -0.191 NA
ENDBRANCH   9  12
ENDBRANCH   3   6
BRANCH   1  14
ATOM     14  N   UNL     1       5.111  -3.583  27.004  0.00  0.00    -0.215 N 
ATOM     15  H   UNL     1       4.699  -2.956  27.709  0.00  0.00    +0.174 HD
BRANCH  14  16
ATOM     16  S   UNL     1       3.816  -3.692  25.856  0.00  0.00    +0.073 S 
ATOM     17  O   UNL     1       2.951  -4.714  26.411  0.00  0.00    -0.150 OA
ATOM     18  O   UNL     1       3.306  -2.370  25.584  0.00  0.00    -0.150 OA
BRANCH  16  21
ATOM     19  C   UNL     1       4.745  -6.753  25.370  0.00  0.00    +0.046 C 
ATOM     20  C   UNL     1       4.992  -5.723  24.304  0.00  0.00    -0.024 A 
ATOM     21  C   UNL     1       4.610  -4.370  24.405  0.00  0.00    +0.111 A 
ATOM     22  C   UNL     1       4.939  -3.470  23.374  0.00  0.00    +0.029 A 
ATOM     23  C   UNL     1       5.620  -3.908  22.237  0.00  0.00    +0.002 A 
ATOM     24  C   UNL     1       5.988  -5.244  22.123  0.00  0.00    +0.000 A 
ATOM     25  C   UNL     1       5.679  -6.140  23.146  0.00  0.00    +0.005 A 
ENDBRANCH  16  21
ENDBRANCH  14  16
ENDBRANCH   1  14
BRANCH   5  26
ATOM     26  C   UNL     1       7.737  -5.302  26.995  0.00  0.00    +0.345 C 
ATOM     27  O   UNL     1       7.169  -5.854  27.928  0.00  0.00    -0.244 OA
BRANCH  26  28
ATOM     28  O   UNL     1       8.643  -5.969  26.232  0.00  0.00    -0.477 OA
ATOM     29  H   UNL     1       8.233  -6.423  25.470  0.00  0.00    +0.295 HD
ENDBRANCH  26  28
ENDBRANCH   5  26
TORSDOF 7
ENDMDL
MODEL 4
REMARK VINA RESULT:      -6.8      1.931      3.024
REMARK  Name = 
REMARK  8 active torsions:
REMARK  status: ('A' for Active; 'I' for Inactive)
REMARK    1  A    between atoms: C_1  and  C_2
REMARK    2  A    between atoms: C_7  and  S_8
REMARK    3  A    between atoms: S_8  and  N_11
REMARK    4  A    between atoms: N_11  and  C_12
REMARK    5  A    between atoms: C_13  and  C_25
REMARK    6  A    between atoms: C_15  and  C_17
REMARK    7  A    between atoms: C_20  and  C_23
REMARK    8  A    between atoms: C_25  and  O_26
REMARK                            x       y       z     vdW  Elec       q    Type
REMARK                         _______ _______ _______ _____ _____    ______ ____
ROOT
ATOM      1  C   UNL     1       8.113  -3.410  23.052  0.00  0.00    +0.070 A 
ATOM      2  C   UNL     1       8.136  -2.025  22.648  0.00  0.00    +0.041 A 
ATOM      3  C   UNL     1       8.841  -1.209  23.523  0.00  0.00    +0.022 A 
ATOM      4  S   UNL     1       9.556  -2.166  24.759  0.00  0.00    -0.080 S 
ATOM      5  C   UNL     1       8.799  -3.603  24.237  0.00  0.00    +0.119 A 
ENDROOT
BRANCH   3   6
ATOM      6  C   UNL     1       9.091   0.254  23.519  0.00  0.00    -0.011 A 
ATOM      7  C   UNL     1       8.592   1.077  24.550  0.00  0.00    +0.010 A 
ATOM      8  C   UNL     1       8.887   2.445  24.614  0.00  0.00    +0.019 A 
ATOM      9  C   UNL     1       9.678   3.033  23.629  0.00  0.00    +0.052 A 
ATOM     10  C   UNL     1      10.152   2.244  22.576  0.00  0.00    +0.019 A 
ATOM     11  C   UNL     1       9.858   0.869  22.520  0.00  0.00    +0.010 A 
BRANCH   9  12
ATOM     12  C   UNL     1      10.008   4.428  23.707  0.00  0.00    +0.099 C 
ATOM     13  N   UNL     1      10.277   5.553  23.775  0.00  0.00    -0.191 NA
ENDBRANCH   9  12
ENDBRANCH   3   6
BRANCH   1  14
ATOM     14  N   UNL     1       7.403  -4.432  22.364  0.00  0.00    -0.215 N 
ATOM     15  H   UNL     1       7.650  -5.382  22.675  0.00  0.00    +0.174 HD
BRANCH  14  16
ATOM     16  S   UNL     1       5.676  -4.471  22.511  0.00  0.00    +0.073 S 
ATOM     17  O   UNL     1       5.271  -3.123  22.165  0.00  0.00    -0.150 OA
ATOM     18  O   UNL     1       5.159  -5.602  21.779  0.00  0.00    -0.150 OA
BRANCH  16  21
ATOM     19  C   UNL     1       5.227  -2.165  24.736  0.00  0.00    +0.046 C 
ATOM     20  C   UNL     1       5.251  -3.608  25.156  0.00  0.00    -0.024 A 
ATOM     21  C   UNL     1       5.418  -4.690  24.267  0.00  0.00    +0.111 A 
ATOM     22  C   UNL     1       5.485  -6.004  24.767  0.00  0.00    +0.029 A 
ATOM     23  C   UNL     1       5.362  -6.252  26.135  0.00  0.00    +0.002 A 
ATOM     24  C   UNL     1       5.183  -5.192  27.017  0.00  0.00    +0.000 A 
ATOM     25  C   UNL     1       5.130  -3.886  26.533  0.00  0.00    +0.005 A 
ENDBRANCH  16  21
ENDBRANCH  14  16
ENDBRANCH   1  14
BRANCH   5  26
ATOM     26  C   UNL     1       8.958  -4.781  25.068  0.00  0.00    +0.345 C 
ATOM     27  O   UNL     1       8.659  -4.880  26.250  0.00  0.00    -0.244 OA
BRANCH  26  28
ATOM     28  O   UNL     1       9.454  -5.843  24.379  0.00  0.00    -0.477 OA
ATOM     29  H   UNL     1       9.767  -5.601  23.486  0.00  0.00    +0.295 HD
ENDBRANCH  26  28
ENDBRANCH   5  26
TORSDOF 7
ENDMDL
MODEL 5
REMARK VINA RESULT:      -6.8      1.158      2.116
REMARK  Name = 
REMARK  8 active torsions:
REMARK  status: ('A' for Active; 'I' for Inactive)
REMARK    1  A    between atoms: C_1  and  C_2
REMARK    2  A    between atoms: C_7  and  S_8
REMARK    3  A    between atoms: S_8  and  N_11
REMARK    4  A    between atoms: N_11  and  C_12
REMARK    5  A    between atoms: C_13  and  C_25
REMARK    6  A    between atoms: C_15  and  C_17
REMARK    7  A    between atoms: C_20  and  C_23
REMARK    8  A    between atoms: C_25  and  O_26
REMARK                            x       y       z     vdW  Elec       q    Type
REMARK                         _______ _______ _______ _____ _____    ______ ____
ROOT
ATOM      1  C   UNL     1       7.935  -4.027  23.992  0.00  0.00    +0.070 A 
ATOM      2  C   UNL     1       8.708  -2.876  24.392  0.00  0.00    +0.041 A 
ATOM      3  C   UNL     1       8.760  -1.884  23.421  0.00  0.00    +0.022 A 
ATOM      4  S   UNL     1       7.772  -2.330  22.086  0.00  0.00    -0.080 S 
ATOM      5  C   UNL     1       7.428  -3.877  22.714  0.00  0.00    +0.119 A 
ENDROOT
BRANCH   3   6
ATOM      6  C   UNL     1       9.451  -0.572  23.391  0.00  0.00    -0.011 A 
ATOM      7  C   UNL     1       9.454   0.219  22.223  0.00  0.00    +0.010 A 
ATOM      8  C   UNL     1      10.025   1.497  22.195  0.00  0.00    +0.019 A 
ATOM      9  C   UNL     1      10.631   2.013  23.339  0.00  0.00    +0.052 A 
ATOM     10  C   UNL     1      10.674   1.231  24.497  0.00  0.00    +0.019 A 
ATOM     11  C   UNL     1      10.094  -0.050  24.522  0.00  0.00    +0.010 A 
BRANCH   9  12
ATOM     12  C   UNL     1      11.191   3.336  23.324  0.00  0.00    +0.099 C 
ATOM     13  N   UNL     1      11.645   4.401  23.315  0.00  0.00    -0.191 NA
ENDBRANCH   9  12
ENDBRANCH   3   6
BRANCH   1  14
ATOM     14  N   UNL     1       7.786  -5.203  24.779  0.00  0.00    -0.215 N 
ATOM     15  H   UNL     1       8.656  -5.743  24.875  0.00  0.00    +0.174 HD
BRANCH  14  16
ATOM     16  S   UNL     1       7.318  -5.025  26.439  0.00  0.00    +0.073 S 
ATOM     17  O   UNL     1       6.748  -6.314  26.776  0.00  0.00    -0.150 OA
ATOM     18  O   UNL     1       8.428  -4.495  27.194  0.00  0.00    -0.150 OA
BRANCH  16  21
ATOM     19  C   UNL     1       4.461  -5.362  24.958  0.00  0.00    +0.046 C 
ATOM     20  C   UNL     1       4.781  -4.078  25.672  0.00  0.00    -0.024 A 
ATOM     21  C   UNL     1       5.985  -3.835  26.365  0.00  0.00    +0.111 A 
ATOM     22  C   UNL     1       6.214  -2.577  26.953  0.00  0.00    +0.029 A 
ATOM     23  C   UNL     1       5.249  -1.571  26.879  0.00  0.00    +0.002 A 
ATOM     24  C   UNL     1       4.054  -1.807  26.210  0.00  0.00    +0.000 A 
ATOM     25  C   UNL     1       3.824  -3.045  25.612  0.00  0.00    +0.005 A 
ENDBRANCH  16  21
ENDBRANCH  14  16
ENDBRANCH   1  14
BRANCH   5  26
ATOM     26  C   UNL     1       6.691  -4.794  21.865  0.00  0.00    +0.345 C 
ATOM     27  O   UNL     1       7.116  -5.835  21.383  0.00  0.00    -0.244 OA
BRANCH  26  28
ATOM     28  O   UNL     1       5.403  -4.406  21.672  0.00  0.00    -0.477 OA
ATOM     29  H   UNL     1       5.291  -3.437  21.707  0.00  0.00    +0.295 HD
ENDBRANCH  26  28
ENDBRANCH   5  26
TORSDOF 7
ENDMDL
MODEL 6
REMARK VINA RESULT:      -6.7      1.743      2.159
REMARK  Name = 
REMARK  8 active torsions:
REMARK  status: ('A' for Active; 'I' for Inactive)
REMARK    1  A    between atoms: C_1  and  C_2
REMARK    2  A    between atoms: C_7  and  S_8
REMARK    3  A    between atoms: S_8  and  N_11
REMARK    4  A    between atoms: N_11  and  C_12
REMARK    5  A    between atoms: C_13  and  C_25
REMARK    6  A    between atoms: C_15  and  C_17
REMARK    7  A    between atoms: C_20  and  C_23
REMARK    8  A    between atoms: C_25  and  O_26
REMARK                            x       y       z     vdW  Elec       q    Type
REMARK                         _______ _______ _______ _____ _____    ______ ____
ROOT
ATOM      1  C   UNL     1       8.068  -3.440  26.161  0.00  0.00    +0.070 A 
ATOM      2  C   UNL     1       8.146  -2.006  26.298  0.00  0.00    +0.041 A 
ATOM      3  C   UNL     1       8.766  -1.383  25.222  0.00  0.00    +0.022 A 
ATOM      4  S   UNL     1       9.139  -2.550  24.016  0.00  0.00    -0.080 S 
ATOM      5  C   UNL     1       8.645  -3.868  24.979  0.00  0.00    +0.119 A 
ENDROOT
BRANCH   3   6
ATOM      6  C   UNL     1       9.083   0.042  24.959  0.00  0.00    -0.011 A 
ATOM      7  C   UNL     1      10.291   0.411  24.331  0.00  0.00    +0.010 A 
ATOM      8  C   UNL     1      10.575   1.741  23.995  0.00  0.00    +0.019 A 
ATOM      9  C   UNL     1       9.660   2.746  24.300  0.00  0.00    +0.052 A 
ATOM     10  C   UNL     1       8.473   2.408  24.957  0.00  0.00    +0.019 A 
ATOM     11  C   UNL     1       8.189   1.070  25.287  0.00  0.00    +0.010 A 
BRANCH   9  12
ATOM     12  C   UNL     1       9.933   4.106  23.929  0.00  0.00    +0.099 C 
ATOM     13  N   UNL     1      10.153   5.202  23.626  0.00  0.00    -0.191 NA
ENDBRANCH   9  12
ENDBRANCH   3   6
BRANCH   1  14
ATOM     14  N   UNL     1       7.542  -4.311  27.155  0.00  0.00    -0.215 N 
ATOM     15  H   UNL     1       7.789  -4.033  28.114  0.00  0.00    +0.174 HD
BRANCH  14  16
ATOM     16  S   UNL     1       5.820  -4.461  27.284  0.00  0.00    +0.073 S 
ATOM     17  O   UNL     1       5.638  -5.646  28.100  0.00  0.00    -0.150 OA
ATOM     18  O   UNL     1       5.259  -3.197  27.693  0.00  0.00    -0.150 OA
BRANCH  16  21
ATOM     19  C   UNL     1       4.834  -2.411  24.982  0.00  0.00    +0.046 C 
ATOM     20  C   UNL     1       4.883  -3.886  24.693  0.00  0.00    -0.024 A 
ATOM     21  C   UNL     1       5.316  -4.861  25.615  0.00  0.00    +0.111 A 
ATOM     22  C   UNL     1       5.269  -6.224  25.268  0.00  0.00    +0.029 A 
ATOM     23  C   UNL     1       4.821  -6.622  24.007  0.00  0.00    +0.002 A 
ATOM     24  C   UNL     1       4.406  -5.666  23.087  0.00  0.00    +0.000 A 
ATOM     25  C   UNL     1       4.435  -4.314  23.427  0.00  0.00    +0.005 A 
ENDBRANCH  16  21
ENDBRANCH  14  16
ENDBRANCH   1  14
BRANCH   5  26
ATOM     26  C   UNL     1       8.891  -5.201  24.464  0.00  0.00    +0.345 C 
ATOM     27  O   UNL     1       8.401  -5.690  23.455  0.00  0.00    -0.244 OA
BRANCH  26  28
ATOM     28  O   UNL     1       9.796  -5.890  25.208  0.00  0.00    -0.477 OA
ATOM     29  H   UNL     1       9.436  -6.727  25.561  0.00  0.00    +0.295 HD
ENDBRANCH  26  28
ENDBRANCH   5  26
TORSDOF 7
ENDMDL
MODEL 7
REMARK VINA RESULT:      -6.7      3.607      8.722
REMARK  Name = 
REMARK  8 active torsions:
REMARK  status: ('A' for Active; 'I' for Inactive)
REMARK    1  A    between atoms: C_1  and  C_2
REMARK    2  A    between atoms: C_7  and  S_8
REMARK    3  A    between atoms: S_8  and  N_11
REMARK    4  A    between atoms: N_11  and  C_12
REMARK    5  A    between atoms: C_13  and  C_25
REMARK    6  A    between atoms: C_15  and  C_17
REMARK    7  A    between atoms: C_20  and  C_23
REMARK    8  A    between atoms: C_25  and  O_26
REMARK                            x       y       z     vdW  Elec       q    Type
REMARK                         _______ _______ _______ _____ _____    ______ ____
ROOT
ATOM      1  C   UNL     1       7.936  -0.347  23.791  0.00  0.00    +0.070 A 
ATOM      2  C   UNL     1       6.922  -1.212  24.343  0.00  0.00    +0.041 A 
ATOM      3  C   UNL     1       6.902  -2.474  23.764  0.00  0.00    +0.022 A 
ATOM      4  S   UNL     1       8.194  -2.615  22.638  0.00  0.00    -0.080 S 
ATOM      5  C   UNL     1       8.656  -0.981  22.795  0.00  0.00    +0.119 A 
ENDROOT
BRANCH   3   6
ATOM      6  C   UNL     1       6.025  -3.649  23.994  0.00  0.00    -0.011 A 
ATOM      7  C   UNL     1       4.900  -3.884  23.176  0.00  0.00    +0.010 A 
ATOM      8  C   UNL     1       4.107  -5.030  23.318  0.00  0.00    +0.019 A 
ATOM      9  C   UNL     1       4.409  -5.966  24.304  0.00  0.00    +0.052 A 
ATOM     10  C   UNL     1       5.497  -5.735  25.152  0.00  0.00    +0.019 A 
ATOM     11  C   UNL     1       6.294  -4.585  25.001  0.00  0.00    +0.010 A 
BRANCH   9  12
ATOM     12  C   UNL     1       3.618  -7.158  24.433  0.00  0.00    +0.099 C 
ATOM     13  N   UNL     1       2.983  -8.121  24.536  0.00  0.00    -0.191 NA
ENDBRANCH   9  12
ENDBRANCH   3   6
BRANCH   1  14
ATOM     14  N   UNL     1       8.117   1.014  24.165  0.00  0.00    -0.215 N 
ATOM     15  H   UNL     1       9.011   1.410  23.845  0.00  0.00    +0.174 HD
BRANCH  14  16
ATOM     16  S   UNL     1       6.994   2.187  23.558  0.00  0.00    +0.073 S 
ATOM     17  O   UNL     1       6.801   1.794  22.176  0.00  0.00    -0.150 OA
ATOM     18  O   UNL     1       5.869   2.281  24.456  0.00  0.00    -0.150 OA
BRANCH  16  21
ATOM     19  C   UNL     1       5.978   5.143  22.724  0.00  0.00    +0.046 C 
ATOM     20  C   UNL     1       7.400   4.944  23.169  0.00  0.00    -0.024 A 
ATOM     21  C   UNL     1       7.938   3.705  23.573  0.00  0.00    +0.111 A 
ATOM     22  C   UNL     1       9.300   3.611  23.916  0.00  0.00    +0.029 A 
ATOM     23  C   UNL     1      10.121   4.740  23.885  0.00  0.00    +0.002 A 
ATOM     24  C   UNL     1       9.595   5.968  23.502  0.00  0.00    +0.000 A 
ATOM     25  C   UNL     1       8.250   6.068  23.146  0.00  0.00    +0.005 A 
ENDBRANCH  16  21
ENDBRANCH  14  16
ENDBRANCH   1  14
BRANCH   5  26
ATOM     26  C   UNL     1       9.686  -0.490  21.900  0.00  0.00    +0.345 C 
ATOM     27  O   UNL     1       9.836   0.668  21.533  0.00  0.00    -0.244 OA
BRANCH  26  28
ATOM     28  O   UNL     1      10.550  -1.465  21.512  0.00  0.00    -0.477 OA
ATOM     29  H   UNL     1      11.457  -1.321  21.846  0.00  0.00    +0.295 HD
ENDBRANCH  26  28
ENDBRANCH   5  26
TORSDOF 7
ENDMDL
MODEL 8
REMARK VINA RESULT:      -6.7      3.324      8.595
REMARK  Name = 
REMARK  8 active torsions:
REMARK  status: ('A' for Active; 'I' for Inactive)
REMARK    1  A    between atoms: C_1  and  C_2
REMARK    2  A    between atoms: C_7  and  S_8
REMARK    3  A    between atoms: S_8  and  N_11
REMARK    4  A    between atoms: N_11  and  C_12
REMARK    5  A    between atoms: C_13  and  C_25
REMARK    6  A    between atoms: C_15  and  C_17
REMARK    7  A    between atoms: C_20  and  C_23
REMARK    8  A    between atoms: C_25  and  O_26
REMARK                            x       y       z     vdW  Elec       q    Type
REMARK                         _______ _______ _______ _____ _____    ______ ____
ROOT
ATOM      1  C   UNL     1       7.417  -0.790  23.462  0.00  0.00    +0.070 A 
ATOM      2  C   UNL     1       6.411  -1.686  23.978  0.00  0.00    +0.041 A 
ATOM      3  C   UNL     1       6.520  -2.979  23.481  0.00  0.00    +0.022 A 
ATOM      4  S   UNL     1       7.915  -3.101  22.484  0.00  0.00    -0.080 S 
ATOM      5  C   UNL     1       8.260  -1.433  22.574  0.00  0.00    +0.119 A 
ENDROOT
BRANCH   3   6
ATOM      6  C   UNL     1       5.698  -4.193  23.710  0.00  0.00    -0.011 A 
ATOM      7  C   UNL     1       6.061  -5.140  24.690  0.00  0.00    +0.010 A 
ATOM      8  C   UNL     1       5.257  -6.249  24.983  0.00  0.00    +0.019 A 
ATOM      9  C   UNL     1       4.070  -6.451  24.283  0.00  0.00    +0.052 A 
ATOM     10  C   UNL     1       3.709  -5.547  23.280  0.00  0.00    +0.019 A 
ATOM     11  C   UNL     1       4.517  -4.431  22.994  0.00  0.00    +0.010 A 
BRANCH   9  12
ATOM     12  C   UNL     1       3.227  -7.570  24.601  0.00  0.00    +0.099 C 
ATOM     13  N   UNL     1       2.544  -8.469  24.861  0.00  0.00    -0.191 NA
ENDBRANCH   9  12
ENDBRANCH   3   6
BRANCH   1  14
ATOM     14  N   UNL     1       7.480   0.599  23.762  0.00  0.00    -0.215 N 
ATOM     15  H   UNL     1       6.559   1.020  23.946  0.00  0.00    +0.174 HD
BRANCH  14  16
ATOM     16  S   UNL     1       8.360   1.093  25.171  0.00  0.00    +0.073 S 
ATOM     17  O   UNL     1       7.417   0.890  26.254  0.00  0.00    -0.150 OA
ATOM     18  O   UNL     1       9.645   0.437  25.187  0.00  0.00    -0.150 OA
BRANCH  16  21
ATOM     19  C   UNL     1      10.390   2.592  23.146  0.00  0.00    +0.046 C 
ATOM     20  C   UNL     1       9.492   3.406  24.035  0.00  0.00    -0.024 A 
ATOM     21  C   UNL     1       8.558   2.855  24.936  0.00  0.00    +0.111 A 
ATOM     22  C   UNL     1       7.802   3.702  25.768  0.00  0.00    +0.029 A 
ATOM     23  C   UNL     1       7.949   5.088  25.693  0.00  0.00    +0.002 A 
ATOM     24  C   UNL     1       8.857   5.640  24.798  0.00  0.00    +0.000 A 
ATOM     25  C   UNL     1       9.621   4.808  23.980  0.00  0.00    +0.005 A 
ENDBRANCH  16  21
ENDBRANCH  14  16
ENDBRANCH   1  14
BRANCH   5  26
ATOM     26  C   UNL     1       9.336  -0.928  21.742  0.00  0.00    +0.345 C 
ATOM     27  O   UNL     1       9.317   0.099  21.078  0.00  0.00    -0.244 OA
BRANCH  26  28
ATOM     28  O   UNL     1      10.448  -1.708  21.796  0.00  0.00    -0.477 OA
ATOM     29  H   UNL     1      10.996  -1.640  20.990  0.00  0.00    +0.295 HD
ENDBRANCH  26  28
ENDBRANCH   5  26
TORSDOF 7
ENDMDL
MODEL 9
REMARK VINA RESULT:      -6.7      3.038      8.508
REMARK  Name = 
REMARK  8 active torsions:
REMARK  status: ('A' for Active; 'I' for Inactive)
REMARK    1  A    between atoms: C_1  and  C_2
REMARK    2  A    between atoms: C_7  and  S_8
REMARK    3  A    between atoms: S_8  and  N_11
REMARK    4  A    between atoms: N_11  and  C_12
REMARK    5  A    between atoms: C_13  and  C_25
REMARK    6  A    between atoms: C_15  and  C_17
REMARK    7  A    between atoms: C_20  and  C_23
REMARK    8  A    between atoms: C_25  and  O_26
REMARK                            x       y       z     vdW  Elec       q    Type
REMARK                         _______ _______ _______ _____ _____    ______ ____
ROOT
ATOM      1  C   UNL     1       6.776  -1.924  23.216  0.00  0.00    +0.070 A 
ATOM      2  C   UNL     1       5.579  -2.672  23.512  0.00  0.00    +0.041 A 
ATOM      3  C   UNL     1       5.819  -4.019  23.756  0.00  0.00    +0.022 A 
ATOM      4  S   UNL     1       7.511  -4.319  23.730  0.00  0.00    -0.080 S 
ATOM      5  C   UNL     1       7.897  -2.734  23.234  0.00  0.00    +0.119 A 
ENDROOT
BRANCH   3   6
ATOM      6  C   UNL     1       4.899  -5.142  24.064  0.00  0.00    -0.011 A 
ATOM      7  C   UNL     1       3.760  -5.384  23.269  0.00  0.00    +0.010 A 
ATOM      8  C   UNL     1       2.925  -6.487  23.486  0.00  0.00    +0.019 A 
ATOM      9  C   UNL     1       3.200  -7.372  24.526  0.00  0.00    +0.052 A 
ATOM     10  C   UNL     1       4.302  -7.131  25.351  0.00  0.00    +0.019 A 
ATOM     11  C   UNL     1       5.141  -6.025  25.125  0.00  0.00    +0.010 A 
BRANCH   9  12
ATOM     12  C   UNL     1       2.364  -8.522  24.734  0.00  0.00    +0.099 C 
ATOM     13  N   UNL     1       1.687  -9.448  24.897  0.00  0.00    -0.191 NA
ENDBRANCH   9  12
ENDBRANCH   3   6
BRANCH   1  14
ATOM     14  N   UNL     1       6.791  -0.546  22.865  0.00  0.00    -0.215 N 
ATOM     15  H   UNL     1       5.956  -0.248  22.343  0.00  0.00    +0.174 HD
BRANCH  14  16
ATOM     16  S   UNL     1       6.822   0.625  24.143  0.00  0.00    +0.073 S 
ATOM     17  O   UNL     1       5.668   1.461  23.872  0.00  0.00    -0.150 OA
ATOM     18  O   UNL     1       6.952  -0.053  25.410  0.00  0.00    -0.150 OA
BRANCH  16  21
ATOM     19  C   UNL     1       7.840   3.299  25.655  0.00  0.00    +0.046 C 
ATOM     20  C   UNL     1       8.633   2.750  24.502  0.00  0.00    -0.024 A 
ATOM     21  C   UNL     1       8.290   1.582  23.789  0.00  0.00    +0.111 A 
ATOM     22  C   UNL     1       9.067   1.182  22.686  0.00  0.00    +0.029 A 
ATOM     23  C   UNL     1      10.190   1.916  22.303  0.00  0.00    +0.002 A 
ATOM     24  C   UNL     1      10.543   3.060  23.009  0.00  0.00    +0.000 A 
ATOM     25  C   UNL     1       9.772   3.473  24.094  0.00  0.00    +0.005 A 
ENDBRANCH  16  21
ENDBRANCH  14  16
ENDBRANCH   1  14
BRANCH   5  26
ATOM     26  C   UNL     1       9.282  -2.456  22.904  0.00  0.00    +0.345 C 
ATOM     27  O   UNL     1      10.253  -2.658  23.621  0.00  0.00    -0.244 OA
BRANCH  26  28
ATOM     28  O   UNL     1       9.430  -1.965  21.645  0.00  0.00    -0.477 OA
ATOM     29  H   UNL     1      10.074  -2.474  21.115  0.00  0.00    +0.295 HD
ENDBRANCH  26  28
ENDBRANCH   5  26
TORSDOF 7
ENDMDL
