MODEL 1
REMARK VINA RESULT:      -7.3      0.000      0.000
REMARK  Name = 
REMARK  4 active torsions:
REMARK  status: ('A' for Active; 'I' for Inactive)
REMARK    1  A    between atoms: C_1  and  N_2
REMARK    2  A    between atoms: C_4  and  O_5
REMARK    3  A    between atoms: C_4  and  N_6
REMARK    4  A    between atoms: N_6  and  C_7
REMARK                            x       y       z     vdW  Elec       q    Type
REMARK                         _______ _______ _______ _____ _____    ______ ____
ROOT
ATOM      1  C   UNL     1       9.814   0.885  21.781  0.00  0.00    +0.158 C 
ATOM      2  N   UNL     1       9.305   0.164  22.964  0.00  0.00    -0.197 N 
ATOM      3  S   UNL     1       9.357  -1.508  22.715  0.00  0.00    +0.076 S 
ATOM      4  O   UNL     1      10.733  -1.917  22.560  0.00  0.00    -0.150 OA
ATOM      5  O   UNL     1       8.330  -1.856  21.753  0.00  0.00    -0.150 OA
ATOM      6  C   UNL     1       8.864  -2.329  24.122  0.00  0.00    +0.128 A 
ATOM      7  C   UNL     1       8.808  -3.743  24.268  0.00  0.00    +0.057 A 
ATOM      8  C   UNL     1       8.354  -4.068  25.519  0.00  0.00    +0.081 A 
ATOM      9  S   UNL     1       8.016  -2.718  26.486  0.00  0.00    -0.071 S 
ATOM     10 CL   UNL     1       8.110  -5.649  26.138  0.00  0.00    -0.076 Cl
ATOM     11  C   UNL     1       8.468  -1.638  25.232  0.00  0.00    +0.089 A 
ATOM     12  C   UNL     1       8.400  -0.205  25.400  0.00  0.00    +0.222 C 
ATOM     13  O   UNL     1       8.017   0.307  26.451  0.00  0.00    -0.284 OA
ATOM     14  C   UNL     1       8.803   0.703  24.228  0.00  0.00    +0.156 C 
ATOM     15  C   UNL     1       8.695   2.051  24.430  0.00  0.00    +0.210 C 
ENDROOT
BRANCH  15  16
ATOM     16  N   UNL     1       8.976   3.078  23.560  0.00  0.00    -0.269 N 
ATOM     17  H   UNL     1       9.132   2.734  22.611  0.00  0.00    +0.156 HD
BRANCH  16  18
ATOM     18  C   UNL     1      10.006   4.023  23.739  0.00  0.00    +0.125 A 
ATOM     19  N   UNL     1      11.232   3.628  23.339  0.00  0.00    -0.240 NA
ATOM     20  C   UNL     1      12.226   4.543  23.346  0.00  0.00    +0.113 A 
ATOM     21  C   UNL     1      12.058   5.859  23.736  0.00  0.00    +0.020 A 
ATOM     22  C   UNL     1      10.799   6.254  24.160  0.00  0.00    +0.005 A 
ATOM     23  C   UNL     1       9.761   5.326  24.163  0.00  0.00    +0.044 A 
ENDBRANCH  16  18
ENDBRANCH  15  16
BRANCH  15  24
ATOM     24  O   UNL     1       8.328   2.601  25.651  0.00  0.00    -0.494 OA
ATOM     25  H   UNL     1       7.949   1.911  26.238  0.00  0.00    +0.294 HD
ENDBRANCH  15  24
TORSDOF 3
ENDMDL
MODEL 2
REMARK VINA RESULT:      -7.3      3.210      5.076
REMARK  Name = 
REMARK  4 active torsions:
REMARK  status: ('A' for Active; 'I' for Inactive)
REMARK    1  A    between atoms: C_1  and  N_2
REMARK    2  A    between atoms: C_4  and  O_5
REMARK    3  A    between atoms: C_4  and  N_6
REMARK    4  A    between atoms: N_6  and  C_7
REMARK                            x       y       z     vdW  Elec       q    Type
REMARK                         _______ _______ _______ _____ _____    ______ ____
ROOT
ATOM      1  C   UNL     1       8.946  -2.789  26.371  0.00  0.00    +0.158 C 
ATOM      2  N   UNL     1       8.042  -3.482  25.433  0.00  0.00    -0.197 N 
ATOM      3  S   UNL     1       7.050  -4.578  26.255  0.00  0.00    +0.076 S 
ATOM      4  O   UNL     1       6.198  -3.849  27.165  0.00  0.00    -0.150 OA
ATOM      5  O   UNL     1       7.867  -5.696  26.684  0.00  0.00    -0.150 OA
ATOM      6  C   UNL     1       5.945  -5.295  25.179  0.00  0.00    +0.128 A 
ATOM      7  C   UNL     1       4.951  -6.248  25.539  0.00  0.00    +0.057 A 
ATOM      8  C   UNL     1       4.244  -6.630  24.429  0.00  0.00    +0.081 A 
ATOM      9  S   UNL     1       4.753  -5.862  23.007  0.00  0.00    -0.071 S 
ATOM     10 CL   UNL     1       2.962  -7.769  24.378  0.00  0.00    -0.076 Cl
ATOM     11  C   UNL     1       5.963  -4.985  23.848  0.00  0.00    +0.089 A 
ATOM     12  C   UNL     1       6.850  -4.068  23.169  0.00  0.00    +0.222 C 
ATOM     13  O   UNL     1       6.776  -3.874  21.957  0.00  0.00    -0.284 OA
ATOM     14  C   UNL     1       7.924  -3.329  23.983  0.00  0.00    +0.156 C 
ATOM     15  C   UNL     1       8.754  -2.495  23.289  0.00  0.00    +0.210 C 
ENDROOT
BRANCH  15  16
ATOM     16  N   UNL     1       9.793  -1.727  23.758  0.00  0.00    -0.269 N 
ATOM     17  H   UNL     1       9.944  -1.870  24.758  0.00  0.00    +0.156 HD
BRANCH  16  18
ATOM     18  C   UNL     1       9.891  -0.329  23.609  0.00  0.00    +0.125 A 
ATOM     19  N   UNL     1      10.062   0.110  22.345  0.00  0.00    -0.240 NA
ATOM     20  C   UNL     1      10.011   1.442  22.125  0.00  0.00    +0.113 A 
ATOM     21  C   UNL     1       9.793   2.378  23.119  0.00  0.00    +0.020 A 
ATOM     22  C   UNL     1       9.634   1.922  24.417  0.00  0.00    +0.005 A 
ATOM     23  C   UNL     1       9.685   0.553  24.667  0.00  0.00    +0.044 A 
ENDBRANCH  16  18
ENDBRANCH  15  16
BRANCH  15  24
ATOM     24  O   UNL     1       8.602  -2.241  21.932  0.00  0.00    -0.494 OA
ATOM     25  H   UNL     1       9.218  -2.798  21.407  0.00  0.00    +0.294 HD
ENDBRANCH  15  24
TORSDOF 3
ENDMDL
MODEL 3
REMARK VINA RESULT:      -7.1      2.422      3.341
REMARK  Name = 
REMARK  4 active torsions:
REMARK  status: ('A' for Active; 'I' for Inactive)
REMARK    1  A    between atoms: C_1  and  N_2
REMARK    2  A    between atoms: C_4  and  O_5
REMARK    3  A    between atoms: C_4  and  N_6
REMARK    4  A    between atoms: N_6  and  C_7
REMARK                            x       y       z     vdW  Elec       q    Type
REMARK                         _______ _______ _______ _____ _____    ______ ____
ROOT
ATOM      1  C   UNL     1      10.049  -2.294  23.707  0.00  0.00    +0.158 C 
ATOM      2  N   UNL     1       8.816  -2.588  24.462  0.00  0.00    -0.197 N 
ATOM      3  S   UNL     1       8.115  -4.031  23.926  0.00  0.00    +0.076 S 
ATOM      4  O   UNL     1       9.020  -5.122  24.199  0.00  0.00    -0.150 OA
ATOM      5  O   UNL     1       7.551  -3.801  22.611  0.00  0.00    -0.150 OA
ATOM      6  C   UNL     1       6.752  -4.412  24.871  0.00  0.00    +0.128 A 
ATOM      7  C   UNL     1       5.938  -5.567  24.707  0.00  0.00    +0.057 A 
ATOM      8  C   UNL     1       4.917  -5.555  25.621  0.00  0.00    +0.081 A 
ATOM      9  S   UNL     1       4.945  -4.206  26.646  0.00  0.00    -0.071 S 
ATOM     10 CL   UNL     1       3.683  -6.734  25.789  0.00  0.00    -0.076 Cl
ATOM     11  C   UNL     1       6.345  -3.581  25.877  0.00  0.00    +0.089 A 
ATOM     12  C   UNL     1       6.946  -2.333  26.287  0.00  0.00    +0.222 C 
ATOM     13  O   UNL     1       6.483  -1.663  27.208  0.00  0.00    -0.284 OA
ATOM     14  C   UNL     1       8.189  -1.824  25.540  0.00  0.00    +0.156 C 
ATOM     15  C   UNL     1       8.703  -0.625  25.950  0.00  0.00    +0.210 C 
ENDROOT
BRANCH  15  16
ATOM     16  N   UNL     1       9.789   0.060  25.459  0.00  0.00    -0.269 N 
ATOM     17  H   UNL     1      10.475   0.251  26.191  0.00  0.00    +0.156 HD
BRANCH  16  18
ATOM     18  C   UNL     1       9.719   1.277  24.751  0.00  0.00    +0.125 A 
ATOM     19  N   UNL     1       8.652   2.052  25.033  0.00  0.00    -0.240 NA
ATOM     20  C   UNL     1       8.611   3.292  24.499  0.00  0.00    +0.113 A 
ATOM     21  C   UNL     1       9.600   3.811  23.684  0.00  0.00    +0.020 A 
ATOM     22  C   UNL     1      10.686   3.004  23.386  0.00  0.00    +0.005 A 
ATOM     23  C   UNL     1      10.746   1.721  23.924  0.00  0.00    +0.044 A 
ENDBRANCH  16  18
ENDBRANCH  15  16
BRANCH  15  24
ATOM     24  O   UNL     1       8.201   0.075  27.040  0.00  0.00    -0.494 OA
ATOM     25  H   UNL     1       8.541   0.997  27.041  0.00  0.00    +0.294 HD
ENDBRANCH  15  24
TORSDOF 3
ENDMDL
MODEL 4
REMARK VINA RESULT:      -7.1      5.361      9.512
REMARK  Name = 
REMARK  4 active torsions:
REMARK  status: ('A' for Active; 'I' for Inactive)
REMARK    1  A    between atoms: C_1  and  N_2
REMARK    2  A    between atoms: C_4  and  O_5
REMARK    3  A    between atoms: C_4  and  N_6
REMARK    4  A    between atoms: N_6  and  C_7
REMARK                            x       y       z     vdW  Elec       q    Type
REMARK                         _______ _______ _______ _____ _____    ______ ____
ROOT
ATOM      1  C   UNL     1       5.542  -6.003  26.401  0.00  0.00    +0.158 C 
ATOM      2  N   UNL     1       6.228  -5.116  25.444  0.00  0.00    -0.197 N 
ATOM      3  S   UNL     1       7.142  -3.948  26.258  0.00  0.00    +0.076 S 
ATOM      4  O   UNL     1       8.185  -4.608  27.009  0.00  0.00    -0.150 OA
ATOM      5  O   UNL     1       6.230  -3.000  26.865  0.00  0.00    -0.150 OA
ATOM      6  C   UNL     1       8.009  -2.996  25.146  0.00  0.00    +0.128 A 
ATOM      7  C   UNL     1       8.893  -1.935  25.489  0.00  0.00    +0.057 A 
ATOM      8  C   UNL     1       9.411  -1.370  24.354  0.00  0.00    +0.081 A 
ATOM      9  S   UNL     1       8.859  -2.097  22.926  0.00  0.00    -0.071 S 
ATOM     10 CL   UNL     1      10.506  -0.052  24.277  0.00  0.00    -0.076 Cl
ATOM     11  C   UNL     1       7.886  -3.205  23.801  0.00  0.00    +0.089 A 
ATOM     12  C   UNL     1       7.066  -4.191  23.134  0.00  0.00    +0.222 C 
ATOM     13  O   UNL     1       7.030  -4.280  21.908  0.00  0.00    -0.284 OA
ATOM     14  C   UNL     1       6.204  -5.140  23.981  0.00  0.00    +0.156 C 
ATOM     15  C   UNL     1       5.427  -6.035  23.301  0.00  0.00    +0.210 C 
ENDROOT
BRANCH  15  16
ATOM     16  N   UNL     1       4.565  -6.982  23.800  0.00  0.00    -0.269 N 
ATOM     17  H   UNL     1       4.792  -7.916  23.456  0.00  0.00    +0.156 HD
BRANCH  16  18
ATOM     18  C   UNL     1       3.160  -6.927  23.693  0.00  0.00    +0.125 A 
ATOM     19  N   UNL     1       2.672  -5.878  23.001  0.00  0.00    -0.240 NA
ATOM     20  C   UNL     1       1.346  -5.854  22.738  0.00  0.00    +0.113 A 
ATOM     21  C   UNL     1       0.466  -6.844  23.134  0.00  0.00    +0.020 A 
ATOM     22  C   UNL     1       0.972  -7.911  23.858  0.00  0.00    +0.005 A 
ATOM     23  C   UNL     1       2.335  -7.953  24.143  0.00  0.00    +0.044 A 
ENDBRANCH  16  18
ENDBRANCH  15  16
BRANCH  15  24
ATOM     24  O   UNL     1       5.460  -6.161  21.918  0.00  0.00    -0.494 OA
ATOM     25  H   UNL     1       5.482  -5.276  21.493  0.00  0.00    +0.294 HD
ENDBRANCH  15  24
TORSDOF 3
ENDMDL
MODEL 5
REMARK VINA RESULT:      -7.0      3.717      7.188
REMARK  Name = 
REMARK  4 active torsions:
REMARK  status: ('A' for Active; 'I' for Inactive)
REMARK    1  A    between atoms: C_1  and  N_2
REMARK    2  A    between atoms: C_4  and  O_5
REMARK    3  A    between atoms: C_4  and  N_6
REMARK    4  A    between atoms: N_6  and  C_7
REMARK                            x       y       z     vdW  Elec       q    Type
REMARK                         _______ _______ _______ _____ _____    ______ ____
ROOT
ATOM      1  C   UNL     1      10.228  -1.623  22.822  0.00  0.00    +0.158 C 
ATOM      2  N   UNL     1       9.446  -0.625  23.575  0.00  0.00    -0.197 N 
ATOM      3  S   UNL     1      10.155   0.906  23.457  0.00  0.00    +0.076 S 
ATOM      4  O   UNL     1      10.123   1.333  22.078  0.00  0.00    -0.150 OA
ATOM      5  O   UNL     1      11.374   0.903  24.241  0.00  0.00    -0.150 OA
ATOM      6  C   UNL     1       9.190   2.065  24.245  0.00  0.00    +0.128 A 
ATOM      7  C   UNL     1       9.478   3.457  24.321  0.00  0.00    +0.057 A 
ATOM      8  C   UNL     1       8.505   4.099  25.040  0.00  0.00    +0.081 A 
ATOM      9  S   UNL     1       7.283   3.064  25.595  0.00  0.00    -0.071 S 
ATOM     10 CL   UNL     1       8.442   5.774  25.404  0.00  0.00    -0.076 Cl
ATOM     11  C   UNL     1       8.039   1.699  24.883  0.00  0.00    +0.089 A 
ATOM     12  C   UNL     1       7.478   0.373  24.997  0.00  0.00    +0.222 C 
ATOM     13  O   UNL     1       6.431   0.162  25.608  0.00  0.00    -0.284 OA
ATOM     14  C   UNL     1       8.219  -0.808  24.350  0.00  0.00    +0.156 C 
ATOM     15  C   UNL     1       7.660  -2.045  24.510  0.00  0.00    +0.210 C 
ENDROOT
BRANCH  15  16
ATOM     16  N   UNL     1       8.110  -3.260  24.051  0.00  0.00    -0.269 N 
ATOM     17  H   UNL     1       9.041  -3.184  23.636  0.00  0.00    +0.156 HD
BRANCH  16  18
ATOM     18  C   UNL     1       7.415  -4.084  23.143  0.00  0.00    +0.125 A 
ATOM     19  N   UNL     1       6.614  -3.439  22.271  0.00  0.00    -0.240 NA
ATOM     20  C   UNL     1       6.040  -4.163  21.283  0.00  0.00    +0.113 A 
ATOM     21  C   UNL     1       6.230  -5.522  21.116  0.00  0.00    +0.020 A 
ATOM     22  C   UNL     1       7.042  -6.180  22.025  0.00  0.00    +0.005 A 
ATOM     23  C   UNL     1       7.640  -5.454  23.052  0.00  0.00    +0.044 A 
ENDBRANCH  16  18
ENDBRANCH  15  16
BRANCH  15  24
ATOM     24  O   UNL     1       6.441  -2.243  25.145  0.00  0.00    -0.494 OA
ATOM     25  H   UNL     1       6.358  -3.174  25.447  0.00  0.00    +0.294 HD
ENDBRANCH  15  24
TORSDOF 3
ENDMDL
MODEL 6
REMARK VINA RESULT:      -7.0      2.717      3.479
REMARK  Name = 
REMARK  4 active torsions:
REMARK  status: ('A' for Active; 'I' for Inactive)
REMARK    1  A    between atoms: C_1  and  N_2
REMARK    2  A    between atoms: C_4  and  O_5
REMARK    3  A    between atoms: C_4  and  N_6
REMARK    4  A    between atoms: N_6  and  C_7
REMARK                            x       y       z     vdW  Elec       q    Type
REMARK                         _______ _______ _______ _____ _____    ______ ____
ROOT
ATOM      1  C   UNL     1       8.673  -2.041  22.198  0.00  0.00    +0.158 C 
ATOM      2  N   UNL     1       7.643  -2.392  23.193  0.00  0.00    -0.197 N 
ATOM      3  S   UNL     1       7.750  -4.027  23.615  0.00  0.00    +0.076 S 
ATOM      4  O   UNL     1       9.022  -4.264  24.257  0.00  0.00    -0.150 OA
ATOM      5  O   UNL     1       7.288  -4.817  22.491  0.00  0.00    -0.150 OA
ATOM      6  C   UNL     1       6.624  -4.396  24.837  0.00  0.00    +0.128 A 
ATOM      7  C   UNL     1       6.459  -5.674  25.440  0.00  0.00    +0.057 A 
ATOM      8  C   UNL     1       5.457  -5.627  26.373  0.00  0.00    +0.081 A 
ATOM      9  S   UNL     1       4.748  -4.094  26.524  0.00  0.00    -0.071 S 
ATOM     10 CL   UNL     1       4.897  -6.930  27.337  0.00  0.00    -0.076 Cl
ATOM     11  C   UNL     1       5.774  -3.440  25.316  0.00  0.00    +0.089 A 
ATOM     12  C   UNL     1       5.683  -2.057  24.908  0.00  0.00    +0.222 C 
ATOM     13  O   UNL     1       4.867  -1.285  25.409  0.00  0.00    -0.284 OA
ATOM     14  C   UNL     1       6.622  -1.542  23.805  0.00  0.00    +0.156 C 
ATOM     15  C   UNL     1       6.476  -0.234  23.437  0.00  0.00    +0.210 C 
ENDROOT
BRANCH  15  16
ATOM     16  N   UNL     1       7.169   0.476  22.485  0.00  0.00    -0.269 N 
ATOM     17  H   UNL     1       7.527  -0.135  21.748  0.00  0.00    +0.156 HD
BRANCH  16  18
ATOM     18  C   UNL     1       8.253   1.336  22.752  0.00  0.00    +0.125 A 
ATOM     19  N   UNL     1       8.291   1.851  23.998  0.00  0.00    -0.240 NA
ATOM     20  C   UNL     1       9.384   2.559  24.357  0.00  0.00    +0.113 A 
ATOM     21  C   UNL     1      10.464   2.783  23.523  0.00  0.00    +0.020 A 
ATOM     22  C   UNL     1      10.412   2.263  22.240  0.00  0.00    +0.005 A 
ATOM     23  C   UNL     1       9.293   1.532  21.848  0.00  0.00    +0.044 A 
ENDBRANCH  16  18
ENDBRANCH  15  16
BRANCH  15  24
ATOM     24  O   UNL     1       5.595   0.633  24.070  0.00  0.00    -0.494 OA
ATOM     25  H   UNL     1       5.395   1.402  23.493  0.00  0.00    +0.294 HD
ENDBRANCH  15  24
TORSDOF 3
ENDMDL
MODEL 7
REMARK VINA RESULT:      -7.0      3.565      7.500
REMARK  Name = 
REMARK  4 active torsions:
REMARK  status: ('A' for Active; 'I' for Inactive)
REMARK    1  A    between atoms: C_1  and  N_2
REMARK    2  A    between atoms: C_4  and  O_5
REMARK    3  A    between atoms: C_4  and  N_6
REMARK    4  A    between atoms: N_6  and  C_7
REMARK                            x       y       z     vdW  Elec       q    Type
REMARK                         _______ _______ _______ _____ _____    ______ ____
ROOT
ATOM      1  C   UNL     1       6.649  -1.552  25.618  0.00  0.00    +0.158 C 
ATOM      2  N   UNL     1       7.622  -0.644  24.983  0.00  0.00    -0.197 N 
ATOM      3  S   UNL     1       7.238   0.971  25.311  0.00  0.00    +0.076 S 
ATOM      4  O   UNL     1       7.348   1.199  26.733  0.00  0.00    -0.150 OA
ATOM      5  O   UNL     1       6.048   1.316  24.559  0.00  0.00    -0.150 OA
ATOM      6  C   UNL     1       8.423   2.003  24.659  0.00  0.00    +0.128 A 
ATOM      7  C   UNL     1       8.424   3.422  24.768  0.00  0.00    +0.057 A 
ATOM      8  C   UNL     1       9.511   3.942  24.118  0.00  0.00    +0.081 A 
ATOM      9  S   UNL     1      10.502   2.763  23.410  0.00  0.00    -0.071 S 
ATOM     10 CL   UNL     1       9.915   5.602  23.970  0.00  0.00    -0.076 Cl
ATOM     11  C   UNL     1       9.480   1.498  23.956  0.00  0.00    +0.089 A 
ATOM     12  C   UNL     1       9.760   0.112  23.661  0.00  0.00    +0.222 C 
ATOM     13  O   UNL     1      10.746  -0.225  23.007  0.00  0.00    -0.284 OA
ATOM     14  C   UNL     1       8.791  -0.968  24.166  0.00  0.00    +0.156 C 
ATOM     15  C   UNL     1       9.088  -2.261  23.837  0.00  0.00    +0.210 C 
ENDROOT
BRANCH  15  16
ATOM     16  N   UNL     1       8.398  -3.409  24.147  0.00  0.00    -0.269 N 
ATOM     17  H   UNL     1       9.011  -4.120  24.550  0.00  0.00    +0.156 HD
BRANCH  16  18
ATOM     18  C   UNL     1       7.604  -4.140  23.239  0.00  0.00    +0.125 A 
ATOM     19  N   UNL     1       6.799  -3.402  22.448  0.00  0.00    -0.240 NA
ATOM     20  C   UNL     1       6.130  -4.035  21.460  0.00  0.00    +0.113 A 
ATOM     21  C   UNL     1       6.225  -5.392  21.213  0.00  0.00    +0.020 A 
ATOM     22  C   UNL     1       7.042  -6.146  22.039  0.00  0.00    +0.005 A 
ATOM     23  C   UNL     1       7.739  -5.514  23.066  0.00  0.00    +0.044 A 
ENDBRANCH  16  18
ENDBRANCH  15  16
BRANCH  15  24
ATOM     24  O   UNL     1      10.246  -2.618  23.158  0.00  0.00    -0.494 OA
ATOM     25  H   UNL     1      10.953  -1.954  23.312  0.00  0.00    +0.294 HD
ENDBRANCH  15  24
TORSDOF 3
ENDMDL
MODEL 8
REMARK VINA RESULT:      -7.0      5.576      9.103
REMARK  Name = 
REMARK  4 active torsions:
REMARK  status: ('A' for Active; 'I' for Inactive)
REMARK    1  A    between atoms: C_1  and  N_2
REMARK    2  A    between atoms: C_4  and  O_5
REMARK    3  A    between atoms: C_4  and  N_6
REMARK    4  A    between atoms: N_6  and  C_7
REMARK                            x       y       z     vdW  Elec       q    Type
REMARK                         _______ _______ _______ _____ _____    ______ ____
ROOT
ATOM      1  C   UNL     1       4.916  -6.416  24.101  0.00  0.00    +0.158 C 
ATOM      2  N   UNL     1       5.981  -5.412  24.281  0.00  0.00    -0.197 N 
ATOM      3  S   UNL     1       6.331  -4.639  22.818  0.00  0.00    +0.076 S 
ATOM      4  O   UNL     1       5.164  -3.908  22.383  0.00  0.00    -0.150 OA
ATOM      5  O   UNL     1       7.021  -5.582  21.961  0.00  0.00    -0.150 OA
ATOM      6  C   UNL     1       7.488  -3.415  23.059  0.00  0.00    +0.128 A 
ATOM      7  C   UNL     1       7.994  -2.554  22.045  0.00  0.00    +0.057 A 
ATOM      8  C   UNL     1       8.921  -1.697  22.576  0.00  0.00    +0.081 A 
ATOM      9  S   UNL     1       9.165  -1.914  24.240  0.00  0.00    -0.071 S 
ATOM     10 CL   UNL     1       9.805  -0.496  21.729  0.00  0.00    -0.076 Cl
ATOM     11  C   UNL     1       8.023  -3.192  24.296  0.00  0.00    +0.089 A 
ATOM     12  C   UNL     1       7.728  -3.896  25.523  0.00  0.00    +0.222 C 
ATOM     13  O   UNL     1       8.283  -3.609  26.583  0.00  0.00    -0.284 OA
ATOM     14  C   UNL     1       6.707  -5.044  25.497  0.00  0.00    +0.156 C 
ATOM     15  C   UNL     1       6.485  -5.694  26.679  0.00  0.00    +0.210 C 
ENDROOT
BRANCH  15  16
ATOM     16  N   UNL     1       5.642  -6.749  26.936  0.00  0.00    -0.269 N 
ATOM     17  H   UNL     1       5.221  -7.112  26.079  0.00  0.00    +0.156 HD
BRANCH  16  18
ATOM     18  C   UNL     1       4.561  -6.713  27.841  0.00  0.00    +0.125 A 
ATOM     19  N   UNL     1       4.870  -6.984  29.125  0.00  0.00    -0.240 NA
ATOM     20  C   UNL     1       3.907  -6.817  30.057  0.00  0.00    +0.113 A 
ATOM     21  C   UNL     1       2.626  -6.382  29.770  0.00  0.00    +0.020 A 
ATOM     22  C   UNL     1       2.311  -6.120  28.447  0.00  0.00    +0.005 A 
ATOM     23  C   UNL     1       3.289  -6.288  27.470  0.00  0.00    +0.044 A 
ENDBRANCH  16  18
ENDBRANCH  15  16
BRANCH  15  24
ATOM     24  O   UNL     1       7.072  -5.303  27.875  0.00  0.00    -0.494 OA
ATOM     25  H   UNL     1       6.387  -5.001  28.511  0.00  0.00    +0.294 HD
ENDBRANCH  15  24
TORSDOF 3
ENDMDL
MODEL 9
REMARK VINA RESULT:      -6.9      3.397      4.943
REMARK  Name = 
REMARK  4 active torsions:
REMARK  status: ('A' for Active; 'I' for Inactive)
REMARK    1  A    between atoms: C_1  and  N_2
REMARK    2  A    between atoms: C_4  and  O_5
REMARK    3  A    between atoms: C_4  and  N_6
REMARK    4  A    between atoms: N_6  and  C_7
REMARK                            x       y       z     vdW  Elec       q    Type
REMARK                         _______ _______ _______ _____ _____    ______ ____
ROOT
ATOM      1  C   UNL     1       6.183  -2.095  22.614  0.00  0.00    +0.158 C 
ATOM      2  N   UNL     1       6.430  -2.912  23.816  0.00  0.00    -0.197 N 
ATOM      3  S   UNL     1       4.972  -3.339  24.560  0.00  0.00    +0.076 S 
ATOM      4  O   UNL     1       4.212  -4.174  23.659  0.00  0.00    -0.150 OA
ATOM      5  O   UNL     1       4.412  -2.153  25.177  0.00  0.00    -0.150 OA
ATOM      6  C   UNL     1       5.264  -4.365  25.886  0.00  0.00    +0.128 A 
ATOM      7  C   UNL     1       4.261  -4.930  26.722  0.00  0.00    +0.057 A 
ATOM      8  C   UNL     1       4.841  -5.692  27.701  0.00  0.00    +0.081 A 
ATOM      9  S   UNL     1       6.533  -5.734  27.610  0.00  0.00    -0.071 S 
ATOM     10 CL   UNL     1       4.028  -6.550  28.944  0.00  0.00    -0.076 Cl
ATOM     11  C   UNL     1       6.540  -4.707  26.237  0.00  0.00    +0.089 A 
ATOM     12  C   UNL     1       7.769  -4.294  25.601  0.00  0.00    +0.222 C 
ATOM     13  O   UNL     1       8.868  -4.663  26.014  0.00  0.00    -0.284 OA
ATOM     14  C   UNL     1       7.702  -3.357  24.385  0.00  0.00    +0.156 C 
ATOM     15  C   UNL     1       8.894  -2.975  23.837  0.00  0.00    +0.210 C 
ENDROOT
BRANCH  15  16
ATOM     16  N   UNL     1       9.124  -2.147  22.764  0.00  0.00    -0.269 N 
ATOM     17  H   UNL     1       9.844  -2.525  22.146  0.00  0.00    +0.156 HD
BRANCH  16  18
ATOM     18  C   UNL     1       9.459  -0.781  22.860  0.00  0.00    +0.125 A 
ATOM     19  N   UNL     1       9.952  -0.387  24.051  0.00  0.00    -0.240 NA
ATOM     20  C   UNL     1      10.429   0.874  24.153  0.00  0.00    +0.113 A 
ATOM     21  C   UNL     1      10.442   1.778  23.107  0.00  0.00    +0.020 A 
ATOM     22  C   UNL     1       9.919   1.371  21.890  0.00  0.00    +0.005 A 
ATOM     23  C   UNL     1       9.419   0.077  21.765  0.00  0.00    +0.044 A 
ENDBRANCH  16  18
ENDBRANCH  15  16
BRANCH  15  24
ATOM     24  O   UNL     1      10.117  -3.463  24.281  0.00  0.00    -0.494 OA
ATOM     25  H   UNL     1      10.162  -3.436  25.262  0.00  0.00    +0.294 HD
ENDBRANCH  15  24
TORSDOF 3
ENDMDL
