MODEL 1
REMARK VINA RESULT:      -4.3      0.000      0.000
REMARK  Name = 
REMARK  5 active torsions:
REMARK  status: ('A' for Active; 'I' for Inactive)
REMARK    1  A    between atoms: O_1  and  C_2
REMARK    2  A    between atoms: C_2  and  C_3
REMARK    3  A    between atoms: C_6  and  O_8
REMARK    4  A    between atoms: C_9  and  O_11
REMARK    5  A    between atoms: C_12  and  O_14
REMARK                            x       y       z     vdW  Elec       q    Type
REMARK                         _______ _______ _______ _____ _____    ______ ____
ROOT
ATOM      1  C   UNL     1       9.570   1.139  23.620  0.00  0.00    +0.178 C 
ATOM      2  C   UNL     1      10.035   0.850  22.190  0.00  0.00    +0.179 C 
ATOM      3  C   UNL     1       9.247  -0.384  21.752  0.00  0.00    +0.201 C 
ATOM      4  C   UNL     1       8.406  -0.754  22.975  0.00  0.00    +0.279 C 
ATOM      5  O   UNL     1       8.351   0.392  23.809  0.00  0.00    -0.341 OA
ENDROOT
BRANCH   2   6
ATOM      6  O   UNL     1       9.708   1.962  21.339  0.00  0.00    -0.386 OA
ATOM      7  H   UNL     1      10.472   2.566  21.319  0.00  0.00    +0.210 HD
ENDBRANCH   2   6
BRANCH   3   8
ATOM      8  O   UNL     1      10.105  -1.452  21.344  0.00  0.00    -0.384 OA
ATOM      9  H   UNL     1       9.535  -2.251  21.315  0.00  0.00    +0.210 HD
ENDBRANCH   3   8
BRANCH   4  10
ATOM     10  O   UNL     1       9.031  -1.819  23.682  0.00  0.00    -0.365 OA
ATOM     11  H   UNL     1       9.984  -1.650  23.567  0.00  0.00    +0.213 HD
ENDBRANCH   4  10
BRANCH   1  12
ATOM     12  C   UNL     1      10.628   0.740  24.660  0.00  0.00    +0.190 C 
BRANCH  12  13
ATOM     13  O   UNL     1       9.990   0.236  25.834  0.00  0.00    -0.392 OA
ATOM     14  H   UNL     1       9.535   0.985  26.257  0.00  0.00    +0.210 HD
ENDBRANCH  12  13
ENDBRANCH   1  12
TORSDOF 5
ENDMDL
MODEL 2
REMARK VINA RESULT:      -4.1      1.277      3.537
REMARK  Name = 
REMARK  5 active torsions:
REMARK  status: ('A' for Active; 'I' for Inactive)
REMARK    1  A    between atoms: O_1  and  C_2
REMARK    2  A    between atoms: C_2  and  C_3
REMARK    3  A    between atoms: C_6  and  O_8
REMARK    4  A    between atoms: C_9  and  O_11
REMARK    5  A    between atoms: C_12  and  O_14
REMARK                            x       y       z     vdW  Elec       q    Type
REMARK                         _______ _______ _______ _____ _____    ______ ____
ROOT
ATOM      1  C   UNL     1       9.490  -0.208  23.412  0.00  0.00    +0.178 C 
ATOM      2  C   UNL     1      10.325   0.688  24.332  0.00  0.00    +0.179 C 
ATOM      3  C   UNL     1      10.006   2.119  23.898  0.00  0.00    +0.201 C 
ATOM      4  C   UNL     1       9.039   1.955  22.724  0.00  0.00    +0.279 C 
ATOM      5  O   UNL     1       8.499   0.646  22.805  0.00  0.00    -0.341 OA
ENDROOT
BRANCH   2   6
ATOM      6  O   UNL     1       9.919   0.495  25.698  0.00  0.00    -0.386 OA
ATOM      7  H   UNL     1       8.955   0.354  25.712  0.00  0.00    +0.210 HD
ENDBRANCH   2   6
BRANCH   3   8
ATOM      8  O   UNL     1      11.183   2.842  23.528  0.00  0.00    -0.384 OA
ATOM      9  H   UNL     1      11.054   3.751  23.874  0.00  0.00    +0.210 HD
ENDBRANCH   3   8
BRANCH   4  10
ATOM     10  O   UNL     1       9.744   2.097  21.497  0.00  0.00    -0.365 OA
ATOM     11  H   UNL     1       9.885   3.058  21.416  0.00  0.00    +0.213 HD
ENDBRANCH   4  10
BRANCH   1  12
ATOM     12  C   UNL     1      10.352  -0.898  22.345  0.00  0.00    +0.190 C 
BRANCH  12  13
ATOM     13  O   UNL     1       9.638  -0.962  21.110  0.00  0.00    -0.392 OA
ATOM     14  H   UNL     1       9.235  -1.846  21.057  0.00  0.00    +0.210 HD
ENDBRANCH  12  13
ENDBRANCH   1  12
TORSDOF 5
ENDMDL
MODEL 3
REMARK VINA RESULT:      -4.0      1.619      2.222
REMARK  Name = 
REMARK  5 active torsions:
REMARK  status: ('A' for Active; 'I' for Inactive)
REMARK    1  A    between atoms: O_1  and  C_2
REMARK    2  A    between atoms: C_2  and  C_3
REMARK    3  A    between atoms: C_6  and  O_8
REMARK    4  A    between atoms: C_9  and  O_11
REMARK    5  A    between atoms: C_12  and  O_14
REMARK                            x       y       z     vdW  Elec       q    Type
REMARK                         _______ _______ _______ _____ _____    ______ ____
ROOT
ATOM      1  C   UNL     1       9.771  -0.179  23.330  0.00  0.00    +0.178 C 
ATOM      2  C   UNL     1      10.259  -1.538  22.817  0.00  0.00    +0.179 C 
ATOM      3  C   UNL     1       9.317  -2.566  23.443  0.00  0.00    +0.201 C 
ATOM      4  C   UNL     1       8.370  -1.737  24.313  0.00  0.00    +0.279 C 
ATOM      5  O   UNL     1       8.445  -0.396  23.856  0.00  0.00    -0.341 OA
ENDROOT
BRANCH   2   6
ATOM      6  O   UNL     1      10.145  -1.585  21.384  0.00  0.00    -0.386 OA
ATOM      7  H   UNL     1       9.621  -2.371  21.146  0.00  0.00    +0.210 HD
ENDBRANCH   2   6
BRANCH   3   8
ATOM      8  O   UNL     1      10.025  -3.549  24.203  0.00  0.00    -0.384 OA
ATOM      9  H   UNL     1      10.929  -3.574  23.824  0.00  0.00    +0.210 HD
ENDBRANCH   3   8
BRANCH   4  10
ATOM     10  O   UNL     1       8.792  -1.794  25.670  0.00  0.00    -0.365 OA
ATOM     11  H   UNL     1       8.299  -2.551  26.038  0.00  0.00    +0.213 HD
ENDBRANCH   4  10
BRANCH   1  12
ATOM     12  C   UNL     1      10.703   0.397  24.406  0.00  0.00    +0.190 C 
BRANCH  12  13
ATOM     13  O   UNL     1       9.933   1.028  25.430  0.00  0.00    -0.392 OA
ATOM     14  H   UNL     1      10.251   1.944  25.504  0.00  0.00    +0.210 HD
ENDBRANCH  12  13
ENDBRANCH   1  12
TORSDOF 5
ENDMDL
MODEL 4
REMARK VINA RESULT:      -4.0      1.298      3.053
REMARK  Name = 
REMARK  5 active torsions:
REMARK  status: ('A' for Active; 'I' for Inactive)
REMARK    1  A    between atoms: O_1  and  C_2
REMARK    2  A    between atoms: C_2  and  C_3
REMARK    3  A    between atoms: C_6  and  O_8
REMARK    4  A    between atoms: C_9  and  O_11
REMARK    5  A    between atoms: C_12  and  O_14
REMARK                            x       y       z     vdW  Elec       q    Type
REMARK                         _______ _______ _______ _____ _____    ______ ____
ROOT
ATOM      1  C   UNL     1       8.718   0.094  22.071  0.00  0.00    +0.178 C 
ATOM      2  C   UNL     1      10.162  -0.295  22.405  0.00  0.00    +0.179 C 
ATOM      3  C   UNL     1      10.255  -0.231  23.929  0.00  0.00    +0.201 C 
ATOM      4  C   UNL     1       8.868   0.234  24.377  0.00  0.00    +0.279 C 
ATOM      5  O   UNL     1       7.974  -0.014  23.303  0.00  0.00    -0.341 OA
ENDROOT
BRANCH   2   6
ATOM      6  O   UNL     1      10.417  -1.639  21.960  0.00  0.00    -0.386 OA
ATOM      7  H   UNL     1      11.381  -1.757  21.885  0.00  0.00    +0.210 HD
ENDBRANCH   2   6
BRANCH   3   8
ATOM      8  O   UNL     1      11.287   0.656  24.366  0.00  0.00    -0.384 OA
ATOM      9  H   UNL     1      10.824   1.410  24.790  0.00  0.00    +0.210 HD
ENDBRANCH   3   8
BRANCH   4  10
ATOM     10  O   UNL     1       8.895   1.629  24.651  0.00  0.00    -0.365 OA
ATOM     11  H   UNL     1       9.404   2.005  23.910  0.00  0.00    +0.213 HD
ENDBRANCH   4  10
BRANCH   1  12
ATOM     12  C   UNL     1       8.624   1.514  21.494  0.00  0.00    +0.190 C 
BRANCH  12  13
ATOM     13  O   UNL     1       9.895   2.160  21.579  0.00  0.00    -0.392 OA
ATOM     14  H   UNL     1      10.005   2.684  20.768  0.00  0.00    +0.210 HD
ENDBRANCH  12  13
ENDBRANCH   1  12
TORSDOF 5
ENDMDL
MODEL 5
REMARK VINA RESULT:      -4.0      1.067      3.051
REMARK  Name = 
REMARK  5 active torsions:
REMARK  status: ('A' for Active; 'I' for Inactive)
REMARK    1  A    between atoms: O_1  and  C_2
REMARK    2  A    between atoms: C_2  and  C_3
REMARK    3  A    between atoms: C_6  and  O_8
REMARK    4  A    between atoms: C_9  and  O_11
REMARK    5  A    between atoms: C_12  and  O_14
REMARK                            x       y       z     vdW  Elec       q    Type
REMARK                         _______ _______ _______ _____ _____    ______ ____
ROOT
ATOM      1  C   UNL     1       8.666  -0.803  23.237  0.00  0.00    +0.178 C 
ATOM      2  C   UNL     1       9.144  -0.377  21.847  0.00  0.00    +0.179 C 
ATOM      3  C   UNL     1       9.967   0.891  22.074  0.00  0.00    +0.201 C 
ATOM      4  C   UNL     1       9.875   1.140  23.581  0.00  0.00    +0.279 C 
ATOM      5  O   UNL     1       9.479  -0.081  24.185  0.00  0.00    -0.341 OA
ENDROOT
BRANCH   2   6
ATOM      6  O   UNL     1       9.981  -1.403  21.286  0.00  0.00    -0.386 OA
ATOM      7  H   UNL     1       9.408  -2.129  20.977  0.00  0.00    +0.210 HD
ENDBRANCH   2   6
BRANCH   3   8
ATOM      8  O   UNL     1       9.471   1.996  21.315  0.00  0.00    -0.384 OA
ATOM      9  H   UNL     1       8.494   1.944  21.380  0.00  0.00    +0.210 HD
ENDBRANCH   3   8
BRANCH   4  10
ATOM     10  O   UNL     1       8.892   2.134  23.844  0.00  0.00    -0.365 OA
ATOM     11  H   UNL     1       8.508   1.864  24.698  0.00  0.00    +0.213 HD
ENDBRANCH   4  10
BRANCH   1  12
ATOM     12  C   UNL     1       7.175  -0.503  23.450  0.00  0.00    +0.190 C 
BRANCH  12  13
ATOM     13  O   UNL     1       6.740   0.489  22.518  0.00  0.00    -0.392 OA
ATOM     14  H   UNL     1       7.448   0.593  21.859  0.00  0.00    +0.210 HD
ENDBRANCH  12  13
ENDBRANCH   1  12
TORSDOF 5
ENDMDL
MODEL 6
REMARK VINA RESULT:      -4.0      1.278      3.024
REMARK  Name = 
REMARK  5 active torsions:
REMARK  status: ('A' for Active; 'I' for Inactive)
REMARK    1  A    between atoms: O_1  and  C_2
REMARK    2  A    between atoms: C_2  and  C_3
REMARK    3  A    between atoms: C_6  and  O_8
REMARK    4  A    between atoms: C_9  and  O_11
REMARK    5  A    between atoms: C_12  and  O_14
REMARK                            x       y       z     vdW  Elec       q    Type
REMARK                         _______ _______ _______ _____ _____    ______ ____
ROOT
ATOM      1  C   UNL     1       9.831   0.060  22.572  0.00  0.00    +0.178 C 
ATOM      2  C   UNL     1       9.509   1.552  22.694  0.00  0.00    +0.179 C 
ATOM      3  C   UNL     1      10.146   1.995  24.011  0.00  0.00    +0.201 C 
ATOM      4  C   UNL     1      10.760   0.718  24.587  0.00  0.00    +0.279 C 
ATOM      5  O   UNL     1      10.887  -0.206  23.518  0.00  0.00    -0.341 OA
ENDROOT
BRANCH   2   6
ATOM      6  O   UNL     1      10.108   2.269  21.601  0.00  0.00    -0.386 OA
ATOM      7  H   UNL     1       9.404   2.754  21.132  0.00  0.00    +0.210 HD
ENDBRANCH   2   6
BRANCH   3   8
ATOM      8  O   UNL     1       9.190   2.581  24.899  0.00  0.00    -0.384 OA
ATOM      9  H   UNL     1       9.049   3.494  24.569  0.00  0.00    +0.210 HD
ENDBRANCH   3   8
BRANCH   4  10
ATOM     10  O   UNL     1       9.895   0.173  25.577  0.00  0.00    -0.365 OA
ATOM     11  H   UNL     1       9.119  -0.128  25.070  0.00  0.00    +0.213 HD
ENDBRANCH   4  10
BRANCH   1  12
ATOM     12  C   UNL     1       8.604  -0.819  22.856  0.00  0.00    +0.190 C 
BRANCH  12  13
ATOM     13  O   UNL     1       9.001  -1.999  23.555  0.00  0.00    -0.392 OA
ATOM     14  H   UNL     1       8.191  -2.496  23.762  0.00  0.00    +0.210 HD
ENDBRANCH  12  13
ENDBRANCH   1  12
TORSDOF 5
ENDMDL
MODEL 7
REMARK VINA RESULT:      -4.0      4.839      6.308
REMARK  Name = 
REMARK  5 active torsions:
REMARK  status: ('A' for Active; 'I' for Inactive)
REMARK    1  A    between atoms: O_1  and  C_2
REMARK    2  A    between atoms: C_2  and  C_3
REMARK    3  A    between atoms: C_6  and  O_8
REMARK    4  A    between atoms: C_9  and  O_11
REMARK    5  A    between atoms: C_12  and  O_14
REMARK                            x       y       z     vdW  Elec       q    Type
REMARK                         _______ _______ _______ _____ _____    ______ ____
ROOT
ATOM      1  C   UNL     1       8.016  -4.074  24.356  0.00  0.00    +0.178 C 
ATOM      2  C   UNL     1       7.511  -3.978  25.798  0.00  0.00    +0.179 C 
ATOM      3  C   UNL     1       8.603  -4.621  26.652  0.00  0.00    +0.201 C 
ATOM      4  C   UNL     1       9.652  -5.087  25.641  0.00  0.00    +0.279 C 
ATOM      5  O   UNL     1       9.426  -4.369  24.438  0.00  0.00    -0.341 OA
ENDROOT
BRANCH   2   6
ATOM      6  O   UNL     1       7.358  -2.596  26.168  0.00  0.00    -0.386 OA
ATOM      7  H   UNL     1       8.217  -2.271  26.494  0.00  0.00    +0.210 HD
ENDBRANCH   2   6
BRANCH   3   8
ATOM      8  O   UNL     1       8.100  -5.701  27.442  0.00  0.00    -0.384 OA
ATOM      9  H   UNL     1       8.396  -5.516  28.359  0.00  0.00    +0.210 HD
ENDBRANCH   3   8
BRANCH   4  10
ATOM     10  O   UNL     1       9.494  -6.479  25.392  0.00  0.00    -0.365 OA
ATOM     11  H   UNL     1       8.563  -6.654  25.618  0.00  0.00    +0.213 HD
ENDBRANCH   4  10
BRANCH   1  12
ATOM     12  C   UNL     1       7.273  -5.155  23.557  0.00  0.00    +0.190 C 
BRANCH  12  13
ATOM     13  O   UNL     1       8.191  -5.861  22.722  0.00  0.00    -0.392 OA
ATOM     14  H   UNL     1       8.205  -5.406  21.863  0.00  0.00    +0.210 HD
ENDBRANCH  12  13
ENDBRANCH   1  12
TORSDOF 5
ENDMDL
MODEL 8
REMARK VINA RESULT:      -3.9      4.478      6.332
REMARK  Name = 
REMARK  5 active torsions:
REMARK  status: ('A' for Active; 'I' for Inactive)
REMARK    1  A    between atoms: O_1  and  C_2
REMARK    2  A    between atoms: C_2  and  C_3
REMARK    3  A    between atoms: C_6  and  O_8
REMARK    4  A    between atoms: C_9  and  O_11
REMARK    5  A    between atoms: C_12  and  O_14
REMARK                            x       y       z     vdW  Elec       q    Type
REMARK                         _______ _______ _______ _____ _____    ______ ____
ROOT
ATOM      1  C   UNL     1       6.999  -4.639  25.546  0.00  0.00    +0.178 C 
ATOM      2  C   UNL     1       8.055  -5.546  26.183  0.00  0.00    +0.179 C 
ATOM      3  C   UNL     1       9.372  -4.781  26.059  0.00  0.00    +0.201 C 
ATOM      4  C   UNL     1       8.998  -3.496  25.317  0.00  0.00    +0.279 C 
ATOM      5  O   UNL     1       7.595  -3.329  25.447  0.00  0.00    -0.341 OA
ENDROOT
BRANCH   2   6
ATOM      6  O   UNL     1       7.743  -5.752  27.572  0.00  0.00    -0.386 OA
ATOM      7  H   UNL     1       8.564  -5.652  28.087  0.00  0.00    +0.210 HD
ENDBRANCH   2   6
BRANCH   3   8
ATOM      8  O   UNL     1      10.367  -5.535  25.362  0.00  0.00    -0.384 OA
ATOM      9  H   UNL     1      10.307  -5.248  24.426  0.00  0.00    +0.210 HD
ENDBRANCH   3   8
BRANCH   4  10
ATOM     10  O   UNL     1       9.330  -3.623  23.940  0.00  0.00    -0.365 OA
ATOM     11  H   UNL     1       9.434  -4.584  23.811  0.00  0.00    +0.213 HD
ENDBRANCH   4  10
BRANCH   1  12
ATOM     12  C   UNL     1       6.560  -5.150  24.165  0.00  0.00    +0.190 C 
BRANCH  12  13
ATOM     13  O   UNL     1       6.350  -4.048  23.282  0.00  0.00    -0.392 OA
ATOM     14  H   UNL     1       6.466  -3.236  23.805  0.00  0.00    +0.210 HD
ENDBRANCH  12  13
ENDBRANCH   1  12
TORSDOF 5
ENDMDL
MODEL 9
REMARK VINA RESULT:      -3.9      1.330      3.118
REMARK  Name = 
REMARK  5 active torsions:
REMARK  status: ('A' for Active; 'I' for Inactive)
REMARK    1  A    between atoms: O_1  and  C_2
REMARK    2  A    between atoms: C_2  and  C_3
REMARK    3  A    between atoms: C_6  and  O_8
REMARK    4  A    between atoms: C_9  and  O_11
REMARK    5  A    between atoms: C_12  and  O_14
REMARK                            x       y       z     vdW  Elec       q    Type
REMARK                         _______ _______ _______ _____ _____    ______ ____
ROOT
ATOM      1  C   UNL     1      10.319   0.120  22.963  0.00  0.00    +0.178 C 
ATOM      2  C   UNL     1       9.583   0.101  24.306  0.00  0.00    +0.179 C 
ATOM      3  C   UNL     1       9.136  -1.348  24.500  0.00  0.00    +0.201 C 
ATOM      4  C   UNL     1       9.606  -2.065  23.234  0.00  0.00    +0.279 C 
ATOM      5  O   UNL     1      10.609  -1.256  22.640  0.00  0.00    -0.341 OA
ENDROOT
BRANCH   2   6
ATOM      6  O   UNL     1      10.487   0.475  25.360  0.00  0.00    -0.386 OA
ATOM      7  H   UNL     1      11.211   0.998  24.970  0.00  0.00    +0.210 HD
ENDBRANCH   2   6
BRANCH   3   8
ATOM      8  O   UNL     1       7.722  -1.453  24.685  0.00  0.00    -0.384 OA
ATOM      9  H   UNL     1       7.586  -1.503  25.655  0.00  0.00    +0.210 HD
ENDBRANCH   3   8
BRANCH   4  10
ATOM     10  O   UNL     1       8.518  -2.204  22.328  0.00  0.00    -0.365 OA
ATOM     11  H   UNL     1       8.724  -1.572  21.615  0.00  0.00    +0.213 HD
ENDBRANCH   4  10
BRANCH   1  12
ATOM     12  C   UNL     1       9.482   0.780  21.858  0.00  0.00    +0.190 C 
BRANCH  12  13
ATOM     13  O   UNL     1      10.023   2.063  21.538  0.00  0.00    -0.392 OA
ATOM     14  H   UNL     1      10.991   1.978  21.555  0.00  0.00    +0.210 HD
ENDBRANCH  12  13
ENDBRANCH   1  12
TORSDOF 5
ENDMDL
