MODEL 1
REMARK VINA RESULT:      -7.1      0.000      0.000
REMARK  Name = 
REMARK  10 active torsions:
REMARK  status: ('A' for Active; 'I' for Inactive)
REMARK    1  A    between atoms: C_1  and  O_2
REMARK    2  A    between atoms: O_2  and  C_3
REMARK    3  A    between atoms: C_5  and  N_6
REMARK    4  A    between atoms: N_13  and  C_14
REMARK    5  A    between atoms: C_19  and  C_20
REMARK    6  A    between atoms: C_19  and  C_21
REMARK    7  A    between atoms: C_29  and  O_30
REMARK    8  A    between atoms: O_30  and  C_31
REMARK    9  A    between atoms: C_32  and  O_33
REMARK   10  A    between atoms: O_33  and  C_34
REMARK                            x       y       z     vdW  Elec       q    Type
REMARK                         _______ _______ _______ _____ _____    ______ ____
ROOT
ATOM      1  N   UNL     1       8.479  -1.695  24.793  0.00  0.00    -0.283 N 
ATOM      2  H   UNL     1       9.160  -2.282  25.256  0.00  0.00    +0.155 HD
ATOM      3  C   UNL     1       9.082  -0.473  24.486  0.00  0.00    +0.221 A 
ATOM      4  N   UNL     1       8.384   0.550  23.965  0.00  0.00    -0.196 NA
ATOM      5  C   UNL     1       8.986   1.741  23.728  0.00  0.00    +0.165 A 
ATOM      6  N   UNL     1       8.228   2.862  23.310  0.00  0.00    -0.282 N 
ATOM      7  H   UNL     1       8.758   3.690  23.062  0.00  0.00    +0.155 HD
ATOM      8  C   UNL     1      10.342   1.878  23.959  0.00  0.00    +0.181 A 
ATOM      9  F   UNL     1      10.991   3.025  23.718  0.00  0.00    -0.200 F 
ATOM     10  C   UNL     1      10.995   0.790  24.485  0.00  0.00    +0.156 A 
ATOM     11  N   UNL     1      10.387  -0.380  24.777  0.00  0.00    -0.220 NA
ENDROOT
BRANCH   6  12
ATOM     12  C   UNL     1       6.862   3.146  23.508  0.00  0.00    +0.126 A 
ATOM     13  N   UNL     1       5.986   2.895  22.498  0.00  0.00    -0.213 NA
ATOM     14  C   UNL     1       4.710   3.349  22.647  0.00  0.00    +0.169 A 
ATOM     15  C   UNL     1       4.278   4.083  23.748  0.00  0.00    +0.162 A 
ATOM     16  O   UNL     1       3.052   4.654  23.896  0.00  0.00    -0.474 OA
ATOM     17  C   UNL     1       2.261   4.671  22.707  0.00  0.00    +0.180 C 
ATOM     18  C   UNL     1       2.428   3.392  21.851  0.00  0.00    +0.262 C 
ATOM     19  O   UNL     1       1.508   2.836  21.259  0.00  0.00    -0.271 OA
ATOM     20  C   UNL     1       0.827   4.874  23.202  0.00  0.00    +0.065 C 
ATOM     21  C   UNL     1       2.647   5.881  21.835  0.00  0.00    +0.065 C 
ATOM     22  C   UNL     1       5.128   4.211  24.818  0.00  0.00    +0.052 A 
ATOM     23  N   UNL     1       3.739   2.983  21.709  0.00  0.00    -0.264 N 
ATOM     24  H   UNL     1       3.959   2.238  21.065  0.00  0.00    +0.156 HD
ATOM     25  C   UNL     1       6.416   3.720  24.699  0.00  0.00    +0.047 A 
ENDBRANCH   6  12
BRANCH   1  30
ATOM     26  C   UNL     1       4.964  -2.971  24.352  0.00  0.00    +0.167 A 
ATOM     27  C   UNL     1       5.114  -3.808  23.225  0.00  0.00    +0.204 A 
ATOM     28  C   UNL     1       6.393  -3.925  22.650  0.00  0.00    +0.167 A 
ATOM     29  C   UNL     1       7.481  -3.210  23.195  0.00  0.00    +0.073 A 
ATOM     30  C   UNL     1       7.345  -2.363  24.301  0.00  0.00    +0.041 A 
ATOM     31  C   UNL     1       6.079  -2.283  24.879  0.00  0.00    +0.073 A 
BRANCH  26  33
ATOM     32  C   UNL     1       3.551  -3.595  26.168  0.00  0.00    +0.277 C 
ATOM     33  O   UNL     1       3.730  -2.881  24.949  0.00  0.00    -0.491 OA
ENDBRANCH  26  33
BRANCH  27  34
ATOM     34  O   UNL     1       4.118  -4.517  22.610  0.00  0.00    -0.488 OA
ATOM     35  C   UNL     1       3.700  -5.785  23.082  0.00  0.00    +0.277 C 
ENDBRANCH  27  34
BRANCH  28  36
ATOM     36  O   UNL     1       6.782  -4.669  21.559  0.00  0.00    -0.491 OA
ATOM     37  C   UNL     1       7.193  -6.017  21.738  0.00  0.00    +0.277 C 
ENDBRANCH  28  36
ENDBRANCH   1  30
TORSDOF 5
ENDMDL
MODEL 2
REMARK VINA RESULT:      -7.0      2.134      7.315
REMARK  Name = 
REMARK  10 active torsions:
REMARK  status: ('A' for Active; 'I' for Inactive)
REMARK    1  A    between atoms: C_1  and  O_2
REMARK    2  A    between atoms: O_2  and  C_3
REMARK    3  A    between atoms: C_5  and  N_6
REMARK    4  A    between atoms: N_13  and  C_14
REMARK    5  A    between atoms: C_19  and  C_20
REMARK    6  A    between atoms: C_19  and  C_21
REMARK    7  A    between atoms: C_29  and  O_30
REMARK    8  A    between atoms: O_30  and  C_31
REMARK    9  A    between atoms: C_32  and  O_33
REMARK   10  A    between atoms: O_33  and  C_34
REMARK                            x       y       z     vdW  Elec       q    Type
REMARK                         _______ _______ _______ _____ _____    ______ ____
ROOT
ATOM      1  N   UNL     1       6.365   5.707  22.733  0.00  0.00    -0.283 N 
ATOM      2  H   UNL     1       6.283   6.683  22.483  0.00  0.00    +0.155 HD
ATOM      3  C   UNL     1       7.690   5.452  23.094  0.00  0.00    +0.221 A 
ATOM      4  N   UNL     1       8.122   4.209  23.368  0.00  0.00    -0.196 NA
ATOM      5  C   UNL     1       9.426   3.986  23.662  0.00  0.00    +0.165 A 
ATOM      6  N   UNL     1       9.916   2.665  23.816  0.00  0.00    -0.282 N 
ATOM      7  H   UNL     1      10.876   2.581  24.127  0.00  0.00    +0.155 HD
ATOM      8  C   UNL     1      10.299   5.054  23.749  0.00  0.00    +0.181 A 
ATOM      9  F   UNL     1      11.591   4.892  24.061  0.00  0.00    -0.200 F 
ATOM     10  C   UNL     1       9.788   6.297  23.463  0.00  0.00    +0.156 A 
ATOM     11  N   UNL     1       8.502   6.517  23.113  0.00  0.00    -0.220 NA
ENDROOT
BRANCH   6  12
ATOM     12  C   UNL     1       9.421   1.458  23.284  0.00  0.00    +0.126 A 
ATOM     13  N   UNL     1       8.396   0.831  23.921  0.00  0.00    -0.213 NA
ATOM     14  C   UNL     1       8.064  -0.420  23.493  0.00  0.00    +0.169 A 
ATOM     15  C   UNL     1       8.742  -1.093  22.481  0.00  0.00    +0.162 A 
ATOM     16  O   UNL     1       8.526  -2.379  22.094  0.00  0.00    -0.474 OA
ATOM     17  C   UNL     1       7.690  -3.130  22.976  0.00  0.00    +0.180 C 
ATOM     18  C   UNL     1       6.534  -2.291  23.573  0.00  0.00    +0.262 C 
ATOM     19  O   UNL     1       5.396  -2.714  23.747  0.00  0.00    -0.271 OA
ATOM     20  C   UNL     1       7.197  -4.306  22.130  0.00  0.00    +0.065 C 
ATOM     21  C   UNL     1       8.525  -3.690  24.143  0.00  0.00    +0.065 C 
ATOM     22  C   UNL     1       9.681  -0.402  21.757  0.00  0.00    +0.052 A 
ATOM     23  N   UNL     1       6.923  -1.040  24.013  0.00  0.00    -0.264 N 
ATOM     24  H   UNL     1       6.270  -0.473  24.533  0.00  0.00    +0.156 HD
ATOM     25  C   UNL     1      10.001   0.885  22.151  0.00  0.00    +0.047 A 
ENDBRANCH   6  12
BRANCH   1  30
ATOM     26  C   UNL     1       2.700   4.870  22.946  0.00  0.00    +0.167 A 
ATOM     27  C   UNL     1       2.740   3.616  23.592  0.00  0.00    +0.204 A 
ATOM     28  C   UNL     1       3.997   3.091  23.945  0.00  0.00    +0.167 A 
ATOM     29  C   UNL     1       5.174   3.810  23.643  0.00  0.00    +0.073 A 
ATOM     30  C   UNL     1       5.151   5.047  22.986  0.00  0.00    +0.041 A 
ATOM     31  C   UNL     1       3.897   5.568  22.674  0.00  0.00    +0.073 A 
BRANCH  26  33
ATOM     32  C   UNL     1       1.104   5.414  21.260  0.00  0.00    +0.277 C 
ATOM     33  O   UNL     1       1.478   5.414  22.635  0.00  0.00    -0.491 OA
ENDBRANCH  26  33
BRANCH  27  34
ATOM     34  O   UNL     1       1.661   2.834  23.902  0.00  0.00    -0.488 OA
ATOM     35  C   UNL     1       0.971   2.961  25.132  0.00  0.00    +0.277 C 
ENDBRANCH  27  34
BRANCH  28  36
ATOM     36  O   UNL     1       4.288   1.901  24.573  0.00  0.00    -0.491 OA
ATOM     37  C   UNL     1       5.302   1.860  25.567  0.00  0.00    +0.277 C 
ENDBRANCH  28  36
ENDBRANCH   1  30
TORSDOF 5
ENDMDL
MODEL 3
REMARK VINA RESULT:      -7.0      0.337      2.116
REMARK  Name = 
REMARK  10 active torsions:
REMARK  status: ('A' for Active; 'I' for Inactive)
REMARK    1  A    between atoms: C_1  and  O_2
REMARK    2  A    between atoms: O_2  and  C_3
REMARK    3  A    between atoms: C_5  and  N_6
REMARK    4  A    between atoms: N_13  and  C_14
REMARK    5  A    between atoms: C_19  and  C_20
REMARK    6  A    between atoms: C_19  and  C_21
REMARK    7  A    between atoms: C_29  and  O_30
REMARK    8  A    between atoms: O_30  and  C_31
REMARK    9  A    between atoms: C_32  and  O_33
REMARK   10  A    between atoms: O_33  and  C_34
REMARK                            x       y       z     vdW  Elec       q    Type
REMARK                         _______ _______ _______ _____ _____    ______ ____
ROOT
ATOM      1  N   UNL     1       8.531  -1.773  24.559  0.00  0.00    -0.283 N 
ATOM      2  H   UNL     1       9.254  -2.353  24.963  0.00  0.00    +0.155 HD
ATOM      3  C   UNL     1       9.077  -0.520  24.270  0.00  0.00    +0.221 A 
ATOM      4  N   UNL     1       8.319   0.497  23.825  0.00  0.00    -0.196 NA
ATOM      5  C   UNL     1       8.867   1.716  23.605  0.00  0.00    +0.165 A 
ATOM      6  N   UNL     1       8.051   2.825  23.270  0.00  0.00    -0.282 N 
ATOM      7  H   UNL     1       8.540   3.679  23.030  0.00  0.00    +0.155 HD
ATOM      8  C   UNL     1      10.228   1.893  23.774  0.00  0.00    +0.181 A 
ATOM      9  F   UNL     1      10.825   3.070  23.546  0.00  0.00    -0.200 F 
ATOM     10  C   UNL     1      10.943   0.810  24.224  0.00  0.00    +0.156 A 
ATOM     11  N   UNL     1      10.391  -0.392  24.499  0.00  0.00    -0.220 NA
ENDROOT
BRANCH   6  12
ATOM     12  C   UNL     1       6.689   3.052  23.547  0.00  0.00    +0.126 A 
ATOM     13  N   UNL     1       5.779   2.877  22.552  0.00  0.00    -0.213 NA
ATOM     14  C   UNL     1       4.499   3.281  22.794  0.00  0.00    +0.169 A 
ATOM     15  C   UNL     1       4.097   3.893  23.977  0.00  0.00    +0.162 A 
ATOM     16  O   UNL     1       2.865   4.415  24.226  0.00  0.00    -0.474 OA
ATOM     17  C   UNL     1       2.026   4.527  23.076  0.00  0.00    +0.180 C 
ATOM     18  C   UNL     1       2.187   3.341  22.093  0.00  0.00    +0.262 C 
ATOM     19  O   UNL     1       1.256   2.822  21.484  0.00  0.00    -0.271 OA
ATOM     20  C   UNL     1       0.609   4.643  23.643  0.00  0.00    +0.065 C 
ATOM     21  C   UNL     1       2.350   5.825  22.313  0.00  0.00    +0.065 C 
ATOM     22  C   UNL     1       4.986   3.940  25.020  0.00  0.00    +0.052 A 
ATOM     23  N   UNL     1       3.500   2.983  21.861  0.00  0.00    -0.264 N 
ATOM     24  H   UNL     1       3.711   2.310  21.140  0.00  0.00    +0.156 HD
ATOM     25  C   UNL     1       6.279   3.496  24.805  0.00  0.00    +0.047 A 
ENDBRANCH   6  12
BRANCH   1  30
ATOM     26  C   UNL     1       6.210  -3.928  22.522  0.00  0.00    +0.167 A 
ATOM     27  C   UNL     1       5.002  -3.785  23.237  0.00  0.00    +0.204 A 
ATOM     28  C   UNL     1       5.000  -2.961  24.379  0.00  0.00    +0.167 A 
ATOM     29  C   UNL     1       6.186  -2.315  24.786  0.00  0.00    +0.073 A 
ATOM     30  C   UNL     1       7.396  -2.462  24.098  0.00  0.00    +0.041 A 
ATOM     31  C   UNL     1       7.374  -3.253  22.951  0.00  0.00    +0.073 A 
BRANCH  26  33
ATOM     32  C   UNL     1       6.782  -5.997  21.485  0.00  0.00    +0.277 C 
ATOM     33  O   UNL     1       6.217  -4.694  21.382  0.00  0.00    -0.491 OA
ENDBRANCH  26  33
BRANCH  27  34
ATOM     34  O   UNL     1       3.812  -4.390  22.938  0.00  0.00    -0.488 OA
ATOM     35  C   UNL     1       3.513  -5.708  23.363  0.00  0.00    +0.277 C 
ENDBRANCH  27  34
BRANCH  28  36
ATOM     36  O   UNL     1       3.957  -2.672  25.229  0.00  0.00    -0.491 OA
ATOM     37  C   UNL     1       3.867  -3.335  26.482  0.00  0.00    +0.277 C 
ENDBRANCH  28  36
ENDBRANCH   1  30
TORSDOF 5
ENDMDL
MODEL 4
REMARK VINA RESULT:      -6.9      3.454      4.743
REMARK  Name = 
REMARK  10 active torsions:
REMARK  status: ('A' for Active; 'I' for Inactive)
REMARK    1  A    between atoms: C_1  and  O_2
REMARK    2  A    between atoms: O_2  and  C_3
REMARK    3  A    between atoms: C_5  and  N_6
REMARK    4  A    between atoms: N_13  and  C_14
REMARK    5  A    between atoms: C_19  and  C_20
REMARK    6  A    between atoms: C_19  and  C_21
REMARK    7  A    between atoms: C_29  and  O_30
REMARK    8  A    between atoms: O_30  and  C_31
REMARK    9  A    between atoms: C_32  and  O_33
REMARK   10  A    between atoms: O_33  and  C_34
REMARK                            x       y       z     vdW  Elec       q    Type
REMARK                         _______ _______ _______ _____ _____    ______ ____
ROOT
ATOM      1  N   UNL     1       9.011  -3.724  24.737  0.00  0.00    -0.283 N 
ATOM      2  H   UNL     1       9.803  -4.342  24.626  0.00  0.00    +0.155 HD
ATOM      3  C   UNL     1       9.220  -2.589  23.949  0.00  0.00    +0.221 A 
ATOM      4  N   UNL     1       8.381  -1.540  23.982  0.00  0.00    -0.196 NA
ATOM      5  C   UNL     1       8.640  -0.431  23.248  0.00  0.00    +0.165 A 
ATOM      6  N   UNL     1       7.837   0.729  23.383  0.00  0.00    -0.282 N 
ATOM      7  H   UNL     1       8.033   1.483  22.735  0.00  0.00    +0.155 HD
ATOM      8  C   UNL     1       9.737  -0.410  22.407  0.00  0.00    +0.181 A 
ATOM      9  F   UNL     1      10.025   0.650  21.640  0.00  0.00    -0.200 F 
ATOM     10  C   UNL     1      10.548  -1.519  22.418  0.00  0.00    +0.156 A 
ATOM     11  N   UNL     1      10.325  -2.604  23.192  0.00  0.00    -0.220 NA
ENDROOT
BRANCH   6  12
ATOM     12  C   UNL     1       7.054   1.155  24.473  0.00  0.00    +0.126 A 
ATOM     13  N   UNL     1       7.592   1.116  25.722  0.00  0.00    -0.213 NA
ATOM     14  C   UNL     1       6.756   1.355  26.773  0.00  0.00    +0.169 A 
ATOM     15  C   UNL     1       5.392   1.592  26.632  0.00  0.00    +0.162 A 
ATOM     16  O   UNL     1       4.496   1.724  27.648  0.00  0.00    -0.474 OA
ATOM     17  C   UNL     1       4.999   1.355  28.932  0.00  0.00    +0.180 C 
ATOM     18  C   UNL     1       6.480   1.759  29.140  0.00  0.00    +0.262 C 
ATOM     19  O   UNL     1       6.933   2.193  30.195  0.00  0.00    -0.271 OA
ATOM     20  C   UNL     1       4.052   2.032  29.926  0.00  0.00    +0.065 C 
ATOM     21  C   UNL     1       4.891  -0.170  29.122  0.00  0.00    +0.065 C 
ATOM     22  C   UNL     1       4.889   1.764  25.367  0.00  0.00    +0.052 A 
ATOM     23  N   UNL     1       7.292   1.476  28.059  0.00  0.00    -0.264 N 
ATOM     24  H   UNL     1       8.291   1.584  28.148  0.00  0.00    +0.156 HD
ATOM     25  C   UNL     1       5.733   1.566  24.289  0.00  0.00    +0.047 A 
ENDBRANCH   6  12
BRANCH   1  30
ATOM     26  C   UNL     1       6.455  -4.988  27.196  0.00  0.00    +0.167 A 
ATOM     27  C   UNL     1       5.503  -5.569  26.331  0.00  0.00    +0.204 A 
ATOM     28  C   UNL     1       5.751  -5.526  24.947  0.00  0.00    +0.167 A 
ATOM     29  C   UNL     1       6.920  -4.906  24.457  0.00  0.00    +0.073 A 
ATOM     30  C   UNL     1       7.865  -4.310  25.301  0.00  0.00    +0.041 A 
ATOM     31  C   UNL     1       7.622  -4.390  26.671  0.00  0.00    +0.073 A 
BRANCH  26  33
ATOM     32  C   UNL     1       6.323  -6.352  29.147  0.00  0.00    +0.277 C 
ATOM     33  O   UNL     1       6.248  -5.060  28.552  0.00  0.00    -0.491 OA
ENDBRANCH  26  33
BRANCH  27  34
ATOM     34  O   UNL     1       4.331  -6.166  26.708  0.00  0.00    -0.488 OA
ATOM     35  C   UNL     1       3.139  -5.425  26.896  0.00  0.00    +0.277 C 
ENDBRANCH  27  34
BRANCH  28  36
ATOM     36  O   UNL     1       4.979  -6.017  23.918  0.00  0.00    -0.491 OA
ATOM     37  C   UNL     1       5.137  -5.491  22.608  0.00  0.00    +0.277 C 
ENDBRANCH  28  36
ENDBRANCH   1  30
TORSDOF 5
ENDMDL
MODEL 5
REMARK VINA RESULT:      -6.8      3.686      7.762
REMARK  Name = 
REMARK  10 active torsions:
REMARK  status: ('A' for Active; 'I' for Inactive)
REMARK    1  A    between atoms: C_1  and  O_2
REMARK    2  A    between atoms: O_2  and  C_3
REMARK    3  A    between atoms: C_5  and  N_6
REMARK    4  A    between atoms: N_13  and  C_14
REMARK    5  A    between atoms: C_19  and  C_20
REMARK    6  A    between atoms: C_19  and  C_21
REMARK    7  A    between atoms: C_29  and  O_30
REMARK    8  A    between atoms: O_30  and  C_31
REMARK    9  A    between atoms: C_32  and  O_33
REMARK   10  A    between atoms: O_33  and  C_34
REMARK                            x       y       z     vdW  Elec       q    Type
REMARK                         _______ _______ _______ _____ _____    ______ ____
ROOT
ATOM      1  N   UNL     1       7.117   1.148  24.267  0.00  0.00    -0.283 N 
ATOM      2  H   UNL     1       7.013   1.958  23.672  0.00  0.00    +0.155 HD
ATOM      3  C   UNL     1       8.159   0.362  23.768  0.00  0.00    +0.221 A 
ATOM      4  N   UNL     1       8.454  -0.840  24.292  0.00  0.00    -0.196 NA
ATOM      5  C   UNL     1       9.434  -1.602  23.751  0.00  0.00    +0.165 A 
ATOM      6  N   UNL     1       9.657  -2.925  24.211  0.00  0.00    -0.282 N 
ATOM      7  H   UNL     1      10.466  -3.398  23.825  0.00  0.00    +0.155 HD
ATOM      8  C   UNL     1      10.180  -1.109  22.698  0.00  0.00    +0.181 A 
ATOM      9  F   UNL     1      11.177  -1.810  22.142  0.00  0.00    -0.200 F 
ATOM     10  C   UNL     1       9.829   0.129  22.216  0.00  0.00    +0.156 A 
ATOM     11  N   UNL     1       8.815   0.868  22.715  0.00  0.00    -0.220 NA
ENDROOT
BRANCH   6  12
ATOM     12  C   UNL     1       8.767  -3.817  24.838  0.00  0.00    +0.126 A 
ATOM     13  N   UNL     1       7.735  -4.332  24.117  0.00  0.00    -0.213 NA
ATOM     14  C   UNL     1       6.789  -5.042  24.794  0.00  0.00    +0.169 A 
ATOM     15  C   UNL     1       6.805  -5.225  26.174  0.00  0.00    +0.162 A 
ATOM     16  O   UNL     1       5.832  -5.825  26.911  0.00  0.00    -0.474 OA
ATOM     17  C   UNL     1       4.615  -6.062  26.202  0.00  0.00    +0.180 C 
ATOM     18  C   UNL     1       4.845  -6.477  24.728  0.00  0.00    +0.262 C 
ATOM     19  O   UNL     1       4.183  -7.328  24.142  0.00  0.00    -0.271 OA
ATOM     20  C   UNL     1       3.897  -7.139  27.019  0.00  0.00    +0.065 C 
ATOM     21  C   UNL     1       3.745  -4.791  26.208  0.00  0.00    +0.065 C 
ATOM     22  C   UNL     1       7.916  -4.821  26.870  0.00  0.00    +0.052 A 
ATOM     23  N   UNL     1       5.795  -5.716  24.076  0.00  0.00    -0.264 N 
ATOM     24  H   UNL     1       5.922  -5.825  23.081  0.00  0.00    +0.156 HD
ATOM     25  C   UNL     1       8.907  -4.135  26.191  0.00  0.00    +0.047 A 
ENDBRANCH   6  12
BRANCH   1  30
ATOM     26  C   UNL     1       6.436   1.840  27.905  0.00  0.00    +0.167 A 
ATOM     27  C   UNL     1       5.127   1.331  28.042  0.00  0.00    +0.204 A 
ATOM     28  C   UNL     1       4.513   0.762  26.911  0.00  0.00    +0.167 A 
ATOM     29  C   UNL     1       5.201   0.721  25.679  0.00  0.00    +0.073 A 
ATOM     30  C   UNL     1       6.493   1.239  25.523  0.00  0.00    +0.041 A 
ATOM     31  C   UNL     1       7.100   1.768  26.660  0.00  0.00    +0.073 A 
BRANCH  26  33
ATOM     32  C   UNL     1       7.802   1.448  29.819  0.00  0.00    +0.277 C 
ATOM     33  O   UNL     1       7.063   2.359  29.011  0.00  0.00    -0.491 OA
ENDBRANCH  26  33
BRANCH  27  34
ATOM     34  O   UNL     1       4.370   1.350  29.183  0.00  0.00    -0.488 OA
ATOM     35  C   UNL     1       4.405   0.292  30.124  0.00  0.00    +0.277 C 
ENDBRANCH  27  34
BRANCH  28  36
ATOM     36  O   UNL     1       3.257   0.209  26.799  0.00  0.00    -0.491 OA
ATOM     37  C   UNL     1       3.068  -1.169  27.086  0.00  0.00    +0.277 C 
ENDBRANCH  28  36
ENDBRANCH   1  30
TORSDOF 5
ENDMDL
MODEL 6
REMARK VINA RESULT:      -6.7      2.809      7.538
REMARK  Name = 
REMARK  10 active torsions:
REMARK  status: ('A' for Active; 'I' for Inactive)
REMARK    1  A    between atoms: C_1  and  O_2
REMARK    2  A    between atoms: O_2  and  C_3
REMARK    3  A    between atoms: C_5  and  N_6
REMARK    4  A    between atoms: N_13  and  C_14
REMARK    5  A    between atoms: C_19  and  C_20
REMARK    6  A    between atoms: C_19  and  C_21
REMARK    7  A    between atoms: C_29  and  O_30
REMARK    8  A    between atoms: O_30  and  C_31
REMARK    9  A    between atoms: C_32  and  O_33
REMARK   10  A    between atoms: O_33  and  C_34
REMARK                            x       y       z     vdW  Elec       q    Type
REMARK                         _______ _______ _______ _____ _____    ______ ____
ROOT
ATOM      1  N   UNL     1       7.458   5.566  23.947  0.00  0.00    -0.283 N 
ATOM      2  H   UNL     1       7.366   6.539  23.688  0.00  0.00    +0.155 HD
ATOM      3  C   UNL     1       8.798   5.196  23.812  0.00  0.00    +0.221 A 
ATOM      4  N   UNL     1       9.203   3.926  23.981  0.00  0.00    -0.196 NA
ATOM      5  C   UNL     1      10.501   3.588  23.789  0.00  0.00    +0.165 A 
ATOM      6  N   UNL     1      10.908   2.231  23.830  0.00  0.00    -0.282 N 
ATOM      7  H   UNL     1      11.906   2.065  23.772  0.00  0.00    +0.155 HD
ATOM      8  C   UNL     1      11.425   4.571  23.487  0.00  0.00    +0.181 A 
ATOM      9  F   UNL     1      12.724   4.296  23.313  0.00  0.00    -0.200 F 
ATOM     10  C   UNL     1      10.943   5.849  23.336  0.00  0.00    +0.156 A 
ATOM     11  N   UNL     1       9.641   6.180  23.469  0.00  0.00    -0.220 NA
ENDROOT
BRANCH   6  12
ATOM     12  C   UNL     1      10.159   1.063  23.588  0.00  0.00    +0.126 A 
ATOM     13  N   UNL     1       9.563   0.436  24.637  0.00  0.00    -0.213 NA
ATOM     14  C   UNL     1       9.005  -0.786  24.402  0.00  0.00    +0.169 A 
ATOM     15  C   UNL     1       9.053  -1.430  23.170  0.00  0.00    +0.162 A 
ATOM     16  O   UNL     1       8.614  -2.691  22.911  0.00  0.00    -0.474 OA
ATOM     17  C   UNL     1       8.299  -3.459  24.073  0.00  0.00    +0.180 C 
ATOM     18  C   UNL     1       7.638  -2.616  25.192  0.00  0.00    +0.262 C 
ATOM     19  O   UNL     1       6.721  -3.016  25.903  0.00  0.00    -0.271 OA
ATOM     20  C   UNL     1       7.395  -4.582  23.560  0.00  0.00    +0.065 C 
ATOM     21  C   UNL     1       9.579  -4.093  24.649  0.00  0.00    +0.065 C 
ATOM     22  C   UNL     1       9.534  -0.733  22.090  0.00  0.00    +0.052 A 
ATOM     23  N   UNL     1       8.251  -1.398  25.409  0.00  0.00    -0.264 N 
ATOM     24  H   UNL     1       7.973  -0.837  26.201  0.00  0.00    +0.156 HD
ATOM     25  C   UNL     1      10.067   0.526  22.302  0.00  0.00    +0.047 A 
ENDBRANCH   6  12
BRANCH   1  30
ATOM     26  C   UNL     1       4.642   5.112  26.404  0.00  0.00    +0.167 A 
ATOM     27  C   UNL     1       4.204   3.809  26.084  0.00  0.00    +0.204 A 
ATOM     28  C   UNL     1       4.872   3.117  25.058  0.00  0.00    +0.167 A 
ATOM     29  C   UNL     1       5.942   3.731  24.372  0.00  0.00    +0.073 A 
ATOM     30  C   UNL     1       6.376   5.030  24.665  0.00  0.00    +0.041 A 
ATOM     31  C   UNL     1       5.726   5.689  25.707  0.00  0.00    +0.073 A 
BRANCH  26  33
ATOM     32  C   UNL     1       4.874   6.376  28.412  0.00  0.00    +0.277 C 
ATOM     33  O   UNL     1       4.027   5.783  27.433  0.00  0.00    -0.491 OA
ENDBRANCH  26  33
BRANCH  27  34
ATOM     34  O   UNL     1       3.162   3.142  26.671  0.00  0.00    -0.488 OA
ATOM     35  C   UNL     1       3.342   2.334  27.820  0.00  0.00    +0.277 C 
ENDBRANCH  27  34
BRANCH  28  36
ATOM     36  O   UNL     1       4.629   1.853  24.571  0.00  0.00    -0.491 OA
ATOM     37  C   UNL     1       5.655   0.872  24.618  0.00  0.00    +0.277 C 
ENDBRANCH  28  36
ENDBRANCH   1  30
TORSDOF 5
ENDMDL
MODEL 7
REMARK VINA RESULT:      -6.6      3.784      7.881
REMARK  Name = 
REMARK  10 active torsions:
REMARK  status: ('A' for Active; 'I' for Inactive)
REMARK    1  A    between atoms: C_1  and  O_2
REMARK    2  A    between atoms: O_2  and  C_3
REMARK    3  A    between atoms: C_5  and  N_6
REMARK    4  A    between atoms: N_13  and  C_14
REMARK    5  A    between atoms: C_19  and  C_20
REMARK    6  A    between atoms: C_19  and  C_21
REMARK    7  A    between atoms: C_29  and  O_30
REMARK    8  A    between atoms: O_30  and  C_31
REMARK    9  A    between atoms: C_32  and  O_33
REMARK   10  A    between atoms: O_33  and  C_34
REMARK                            x       y       z     vdW  Elec       q    Type
REMARK                         _______ _______ _______ _____ _____    ______ ____
ROOT
ATOM      1  N   UNL     1       7.553   0.987  27.443  0.00  0.00    -0.283 N 
ATOM      2  H   UNL     1       8.004   1.557  28.146  0.00  0.00    +0.155 HD
ATOM      3  C   UNL     1       6.338   0.529  27.958  0.00  0.00    +0.221 A 
ATOM      4  N   UNL     1       5.569  -0.345  27.286  0.00  0.00    -0.196 NA
ATOM      5  C   UNL     1       4.422  -0.814  27.835  0.00  0.00    +0.165 A 
ATOM      6  N   UNL     1       3.680  -1.837  27.195  0.00  0.00    -0.282 N 
ATOM      7  H   UNL     1       2.788  -2.069  27.616  0.00  0.00    +0.155 HD
ATOM      8  C   UNL     1       4.008  -0.334  29.064  0.00  0.00    +0.181 A 
ATOM      9  F   UNL     1       2.871  -0.744  29.640  0.00  0.00    -0.200 F 
ATOM     10  C   UNL     1       4.839   0.563  29.691  0.00  0.00    +0.156 A 
ATOM     11  N   UNL     1       6.011   0.988  29.173  0.00  0.00    -0.220 NA
ENDROOT
BRANCH   6  12
ATOM     12  C   UNL     1       4.112  -2.824  26.288  0.00  0.00    +0.126 A 
ATOM     13  N   UNL     1       5.446  -2.991  26.085  0.00  0.00    -0.213 NA
ATOM     14  C   UNL     1       5.828  -3.819  25.072  0.00  0.00    +0.169 A 
ATOM     15  C   UNL     1       4.931  -4.457  24.220  0.00  0.00    +0.162 A 
ATOM     16  O   UNL     1       5.258  -5.200  23.129  0.00  0.00    -0.474 OA
ATOM     17  C   UNL     1       6.626  -5.098  22.732  0.00  0.00    +0.180 C 
ATOM     18  C   UNL     1       7.599  -5.007  23.933  0.00  0.00    +0.262 C 
ATOM     19  O   UNL     1       8.693  -5.561  23.976  0.00  0.00    -0.271 OA
ATOM     20  C   UNL     1       6.869  -6.334  21.862  0.00  0.00    +0.065 C 
ATOM     21  C   UNL     1       6.829  -3.845  21.859  0.00  0.00    +0.065 C 
ATOM     22  C   UNL     1       3.594  -4.391  24.518  0.00  0.00    +0.052 A 
ATOM     23  N   UNL     1       7.182  -4.139  24.924  0.00  0.00    -0.264 N 
ATOM     24  H   UNL     1       7.808  -3.915  25.683  0.00  0.00    +0.156 HD
ATOM     25  C   UNL     1       3.190  -3.589  25.570  0.00  0.00    +0.047 A 
ENDBRANCH   6  12
BRANCH   1  30
ATOM     26  C   UNL     1       8.246   2.268  23.971  0.00  0.00    +0.167 A 
ATOM     27  C   UNL     1       9.126   1.279  23.482  0.00  0.00    +0.204 A 
ATOM     28  C   UNL     1       9.455   0.206  24.331  0.00  0.00    +0.167 A 
ATOM     29  C   UNL     1       8.917   0.144  25.634  0.00  0.00    +0.073 A 
ATOM     30  C   UNL     1       8.058   1.127  26.139  0.00  0.00    +0.041 A 
ATOM     31  C   UNL     1       7.715   2.165  25.276  0.00  0.00    +0.073 A 
BRANCH  26  33
ATOM     32  C   UNL     1       6.599   3.210  22.527  0.00  0.00    +0.277 C 
ATOM     33  O   UNL     1       7.882   3.299  23.139  0.00  0.00    -0.491 OA
ENDBRANCH  26  33
BRANCH  27  34
ATOM     34  O   UNL     1       9.718   1.266  22.249  0.00  0.00    -0.488 OA
ATOM     35  C   UNL     1       9.068   0.730  21.110  0.00  0.00    +0.277 C 
ENDBRANCH  27  34
BRANCH  28  36
ATOM     36  O   UNL     1      10.284  -0.865  24.082  0.00  0.00    -0.491 OA
ATOM     37  C   UNL     1       9.766  -2.019  23.434  0.00  0.00    +0.277 C 
ENDBRANCH  28  36
ENDBRANCH   1  30
TORSDOF 5
ENDMDL
MODEL 8
REMARK VINA RESULT:      -6.6      4.013      6.235
REMARK  Name = 
REMARK  10 active torsions:
REMARK  status: ('A' for Active; 'I' for Inactive)
REMARK    1  A    between atoms: C_1  and  O_2
REMARK    2  A    between atoms: O_2  and  C_3
REMARK    3  A    between atoms: C_5  and  N_6
REMARK    4  A    between atoms: N_13  and  C_14
REMARK    5  A    between atoms: C_19  and  C_20
REMARK    6  A    between atoms: C_19  and  C_21
REMARK    7  A    between atoms: C_29  and  O_30
REMARK    8  A    between atoms: O_30  and  C_31
REMARK    9  A    between atoms: C_32  and  O_33
REMARK   10  A    between atoms: O_33  and  C_34
REMARK                            x       y       z     vdW  Elec       q    Type
REMARK                         _______ _______ _______ _____ _____    ______ ____
ROOT
ATOM      1  N   UNL     1       3.580  -3.725  25.525  0.00  0.00    -0.283 N 
ATOM      2  H   UNL     1       2.844  -4.384  25.307  0.00  0.00    +0.155 HD
ATOM      3  C   UNL     1       3.016  -2.636  26.193  0.00  0.00    +0.221 A 
ATOM      4  N   UNL     1       3.738  -1.548  26.510  0.00  0.00    -0.196 NA
ATOM      5  C   UNL     1       3.150  -0.485  27.110  0.00  0.00    +0.165 A 
ATOM      6  N   UNL     1       3.873   0.716  27.321  0.00  0.00    -0.282 N 
ATOM      7  H   UNL     1       3.397   1.432  27.858  0.00  0.00    +0.155 HD
ATOM      8  C   UNL     1       1.815  -0.551  27.459  0.00  0.00    +0.181 A 
ATOM      9  F   UNL     1       1.190   0.461  28.076  0.00  0.00    -0.200 F 
ATOM     10  C   UNL     1       1.138  -1.695  27.112  0.00  0.00    +0.156 A 
ATOM     11  N   UNL     1       1.707  -2.734  26.462  0.00  0.00    -0.220 NA
ENDROOT
BRANCH   6  12
ATOM     12  C   UNL     1       4.989   1.224  26.629  0.00  0.00    +0.126 A 
ATOM     13  N   UNL     1       5.101   0.981  25.295  0.00  0.00    -0.213 NA
ATOM     14  C   UNL     1       6.275   1.322  24.692  0.00  0.00    +0.169 A 
ATOM     15  C   UNL     1       7.363   1.858  25.374  0.00  0.00    +0.162 A 
ATOM     16  O   UNL     1       8.591   2.110  24.845  0.00  0.00    -0.474 OA
ATOM     17  C   UNL     1       8.803   1.551  23.548  0.00  0.00    +0.180 C 
ATOM     18  C   UNL     1       7.541   1.607  22.653  0.00  0.00    +0.262 C 
ATOM     19  O   UNL     1       7.561   1.857  21.451  0.00  0.00    -0.271 OA
ATOM     20  C   UNL     1       9.978   2.346  22.973  0.00  0.00    +0.065 C 
ATOM     21  C   UNL     1       9.232   0.077  23.674  0.00  0.00    +0.065 C 
ATOM     22  C   UNL     1       7.192   2.225  26.685  0.00  0.00    +0.052 A 
ATOM     23  N   UNL     1       6.380   1.232  23.300  0.00  0.00    -0.264 N 
ATOM     24  H   UNL     1       5.531   1.113  22.768  0.00  0.00    +0.156 HD
ATOM     25  C   UNL     1       5.991   1.924  27.303  0.00  0.00    +0.047 A 
ENDBRANCH   6  12
BRANCH   1  30
ATOM     26  C   UNL     1       6.925  -4.844  24.207  0.00  0.00    +0.167 A 
ATOM     27  C   UNL     1       7.538  -5.326  25.384  0.00  0.00    +0.204 A 
ATOM     28  C   UNL     1       6.806  -5.269  26.585  0.00  0.00    +0.167 A 
ATOM     29  C   UNL     1       5.501  -4.731  26.593  0.00  0.00    +0.073 A 
ATOM     30  C   UNL     1       4.887  -4.232  25.438  0.00  0.00    +0.041 A 
ATOM     31  C   UNL     1       5.611  -4.327  24.251  0.00  0.00    +0.073 A 
BRANCH  26  33
ATOM     32  C   UNL     1       7.193  -5.945  22.110  0.00  0.00    +0.277 C 
ATOM     33  O   UNL     1       7.610  -4.932  23.020  0.00  0.00    -0.491 OA
ENDBRANCH  26  33
BRANCH  27  34
ATOM     34  O   UNL     1       8.803  -5.838  25.481  0.00  0.00    -0.488 OA
ATOM     35  C   UNL     1       9.941  -5.005  25.609  0.00  0.00    +0.277 C 
ENDBRANCH  27  34
BRANCH  28  36
ATOM     36  O   UNL     1       7.187  -5.672  27.845  0.00  0.00    -0.491 OA
ATOM     37  C   UNL     1       6.196  -6.014  28.803  0.00  0.00    +0.277 C 
ENDBRANCH  28  36
ENDBRANCH   1  30
TORSDOF 5
ENDMDL
MODEL 9
REMARK VINA RESULT:      -6.5      3.459      5.060
REMARK  Name = 
REMARK  10 active torsions:
REMARK  status: ('A' for Active; 'I' for Inactive)
REMARK    1  A    between atoms: C_1  and  O_2
REMARK    2  A    between atoms: O_2  and  C_3
REMARK    3  A    between atoms: C_5  and  N_6
REMARK    4  A    between atoms: N_13  and  C_14
REMARK    5  A    between atoms: C_19  and  C_20
REMARK    6  A    between atoms: C_19  and  C_21
REMARK    7  A    between atoms: C_29  and  O_30
REMARK    8  A    between atoms: O_30  and  C_31
REMARK    9  A    between atoms: C_32  and  O_33
REMARK   10  A    between atoms: O_33  and  C_34
REMARK                            x       y       z     vdW  Elec       q    Type
REMARK                         _______ _______ _______ _____ _____    ______ ____
ROOT
ATOM      1  N   UNL     1       8.954  -3.948  24.558  0.00  0.00    -0.283 N 
ATOM      2  H   UNL     1       9.763  -4.541  24.435  0.00  0.00    +0.155 HD
ATOM      3  C   UNL     1       9.191  -2.735  23.907  0.00  0.00    +0.221 A 
ATOM      4  N   UNL     1       8.332  -1.705  23.994  0.00  0.00    -0.196 NA
ATOM      5  C   UNL     1       8.616  -0.522  23.396  0.00  0.00    +0.165 A 
ATOM      6  N   UNL     1       7.784   0.607  23.599  0.00  0.00    -0.282 N 
ATOM      7  H   UNL     1       8.007   1.427  23.047  0.00  0.00    +0.155 HD
ATOM      8  C   UNL     1       9.763  -0.400  22.635  0.00  0.00    +0.181 A 
ATOM      9  F   UNL     1      10.079   0.737  22.002  0.00  0.00    -0.200 F 
ATOM     10  C   UNL     1      10.592  -1.495  22.583  0.00  0.00    +0.156 A 
ATOM     11  N   UNL     1      10.341  -2.657  23.225  0.00  0.00    -0.220 NA
ENDROOT
BRANCH   6  12
ATOM     12  C   UNL     1       6.927   0.908  24.675  0.00  0.00    +0.126 A 
ATOM     13  N   UNL     1       7.361   0.680  25.944  0.00  0.00    -0.213 NA
ATOM     14  C   UNL     1       6.450   0.803  26.950  0.00  0.00    +0.169 A 
ATOM     15  C   UNL     1       5.107   1.104  26.740  0.00  0.00    +0.162 A 
ATOM     16  O   UNL     1       4.136   1.128  27.693  0.00  0.00    -0.474 OA
ATOM     17  C   UNL     1       4.526   0.570  28.948  0.00  0.00    +0.180 C 
ATOM     18  C   UNL     1       5.994   0.890  29.323  0.00  0.00    +0.262 C 
ATOM     19  O   UNL     1       6.371   1.160  30.459  0.00  0.00    -0.271 OA
ATOM     20  C   UNL     1       3.518   1.138  29.951  0.00  0.00    +0.065 C 
ATOM     21  C   UNL     1       4.366  -0.962  28.917  0.00  0.00    +0.065 C 
ATOM     22  C   UNL     1       4.712   1.464  25.477  0.00  0.00    +0.052 A 
ATOM     23  N   UNL     1       6.883   0.729  28.278  0.00  0.00    -0.264 N 
ATOM     24  H   UNL     1       7.874   0.789  28.457  0.00  0.00    +0.156 HD
ATOM     25  C   UNL     1       5.635   1.386  24.449  0.00  0.00    +0.047 A 
ENDBRANCH   6  12
BRANCH   1  30
ATOM     26  C   UNL     1       5.598  -5.654  24.601  0.00  0.00    +0.167 A 
ATOM     27  C   UNL     1       5.430  -5.898  25.981  0.00  0.00    +0.204 A 
ATOM     28  C   UNL     1       6.445  -5.475  26.859  0.00  0.00    +0.167 A 
ATOM     29  C   UNL     1       7.597  -4.835  26.351  0.00  0.00    +0.073 A 
ATOM     30  C   UNL     1       7.786  -4.603  24.983  0.00  0.00    +0.041 A 
ATOM     31  C   UNL     1       6.757  -4.998  24.131  0.00  0.00    +0.073 A 
BRANCH  26  33
ATOM     32  C   UNL     1       3.715  -4.995  23.297  0.00  0.00    +0.277 C 
ATOM     33  O   UNL     1       4.596  -6.024  23.738  0.00  0.00    -0.491 OA
ENDBRANCH  26  33
BRANCH  27  34
ATOM     34  O   UNL     1       4.367  -6.532  26.564  0.00  0.00    -0.488 OA
ATOM     35  C   UNL     1       3.148  -5.862  26.831  0.00  0.00    +0.277 C 
ENDBRANCH  27  34
BRANCH  28  36
ATOM     36  O   UNL     1       6.508  -5.601  28.228  0.00  0.00    -0.491 OA
ATOM     37  C   UNL     1       5.621  -4.849  29.044  0.00  0.00    +0.277 C 
ENDBRANCH  28  36
ENDBRANCH   1  30
TORSDOF 5
ENDMDL
