MODEL 1
REMARK VINA RESULT:      -6.2      0.000      0.000
REMARK  Name = 
REMARK  12 active torsions:
REMARK  status: ('A' for Active; 'I' for Inactive)
REMARK    1  A    between atoms: C_2  and  N_3
REMARK    2  A    between atoms: C_2  and  C_11
REMARK    3  A    between atoms: C_2  and  C_14
REMARK    4  A    between atoms: C_4  and  O_6
REMARK    5  A    between atoms: O_6  and  C_7
REMARK    6  A    between atoms: C_7  and  C_8
REMARK    7  A    between atoms: C_7  and  C_9
REMARK    8  A    between atoms: C_7  and  C_10
REMARK    9  A    between atoms: C_11  and  C_12
REMARK   10  A    between atoms: C_11  and  C_13
REMARK   11  A    between atoms: N_16  and  C_17
REMARK   12  A    between atoms: C_23  and  C_24
REMARK                            x       y       z     vdW  Elec       q    Type
REMARK                         _______ _______ _______ _____ _____    ______ ____
ROOT
ATOM      1  C   UNL     1       6.571  -5.343  24.935  0.00  0.00    +0.165 C 
ENDROOT
BRANCH   1   2
ATOM      2  N   UNL     1       6.157  -4.814  26.239  0.00  0.00    -0.270 N 
ATOM      3  H   UNL     1       5.342  -4.219  26.309  0.00  0.00    +0.153 HD
ATOM      4  C   UNL     1       6.712  -5.239  27.404  0.00  0.00    +0.401 C 
ATOM      5  O   UNL     1       7.627  -6.047  27.428  0.00  0.00    -0.226 OA
BRANCH   4   6
ATOM      6  O   UNL     1       6.078  -4.735  28.486  0.00  0.00    -0.445 OA
BRANCH   6   7
ATOM      7  C   UNL     1       5.242  -5.645  29.263  0.00  0.00    +0.107 C 
ATOM      8  C   UNL     1       4.605  -6.700  28.347  0.00  0.00    +0.055 C 
ATOM      9  C   UNL     1       4.100  -4.807  29.856  0.00  0.00    +0.055 C 
ATOM     10  C   UNL     1       6.022  -6.279  30.425  0.00  0.00    +0.055 C 
ENDBRANCH   6   7
ENDBRANCH   4   6
ENDBRANCH   1   2
BRANCH   1  11
ATOM     11  C   UNL     1       7.700  -4.468  24.311  0.00  0.00    +0.238 C 
ATOM     12  N   UNL     1       7.389  -3.135  24.056  0.00  0.00    -0.283 N 
ATOM     13  H   UNL     1       6.474  -2.799  24.385  0.00  0.00    +0.155 HD
ATOM     14  O   UNL     1       8.798  -4.988  24.102  0.00  0.00    -0.273 OA
BRANCH  12  15
ATOM     15  C   UNL     1       8.276  -2.144  23.529  0.00  0.00    +0.045 A 
ATOM     16  C   UNL     1       8.973  -1.250  24.378  0.00  0.00    +0.054 A 
ATOM     17  C   UNL     1       9.938  -0.368  23.859  0.00  0.00    +0.053 A 
ATOM     18 CL   UNL     1      10.890   0.684  24.850  0.00  0.00    -0.083 Cl
ATOM     19  C   UNL     1      10.151  -0.296  22.485  0.00  0.00    +0.021 A 
ATOM     20  C   UNL     1       9.416  -1.109  21.632  0.00  0.00    +0.003 A 
ATOM     21  C   UNL     1       8.505  -2.033  22.152  0.00  0.00    +0.024 A 
BRANCH  16  22
ATOM     22  C   UNL     1       8.689  -1.175  25.819  0.00  0.00    +0.262 C 
ATOM     23  O   UNL     1       8.708  -2.183  26.515  0.00  0.00    -0.296 OA
ENDBRANCH  16  22
ENDBRANCH  12  15
ENDBRANCH   1  11
BRANCH   1  24
ATOM     24  C   UNL     1       5.407  -5.665  23.960  0.00  0.00    +0.012 C 
ATOM     25  C   UNL     1       4.526  -6.794  24.514  0.00  0.00    +0.009 C 
ATOM     26  C   UNL     1       5.921  -6.067  22.572  0.00  0.00    +0.009 C 
ENDBRANCH   1  24
TORSDOF 7
ENDMDL
MODEL 2
REMARK VINA RESULT:      -6.0      3.677      7.706
REMARK  Name = 
REMARK  12 active torsions:
REMARK  status: ('A' for Active; 'I' for Inactive)
REMARK    1  A    between atoms: C_2  and  N_3
REMARK    2  A    between atoms: C_2  and  C_11
REMARK    3  A    between atoms: C_2  and  C_14
REMARK    4  A    between atoms: C_4  and  O_6
REMARK    5  A    between atoms: O_6  and  C_7
REMARK    6  A    between atoms: C_7  and  C_8
REMARK    7  A    between atoms: C_7  and  C_9
REMARK    8  A    between atoms: C_7  and  C_10
REMARK    9  A    between atoms: C_11  and  C_12
REMARK   10  A    between atoms: C_11  and  C_13
REMARK   11  A    between atoms: N_16  and  C_17
REMARK   12  A    between atoms: C_23  and  C_24
REMARK                            x       y       z     vdW  Elec       q    Type
REMARK                         _______ _______ _______ _____ _____    ______ ____
ROOT
ATOM      1  C   UNL     1       8.921  -0.367  23.458  0.00  0.00    +0.165 C 
ENDROOT
BRANCH   1   2
ATOM      2  N   UNL     1       8.358   0.980  23.320  0.00  0.00    -0.270 N 
ATOM      3  H   UNL     1       7.678   1.317  23.990  0.00  0.00    +0.153 HD
ATOM      4  C   UNL     1       8.848   1.885  22.433  0.00  0.00    +0.401 C 
ATOM      5  O   UNL     1       9.751   1.608  21.659  0.00  0.00    -0.226 OA
BRANCH   4   6
ATOM      6  O   UNL     1       8.284   3.104  22.581  0.00  0.00    -0.445 OA
BRANCH   6   7
ATOM      7  C   UNL     1       8.814   3.969  23.630  0.00  0.00    +0.107 C 
ATOM      8  C   UNL     1       8.225   3.581  24.993  0.00  0.00    +0.055 C 
ATOM      9  C   UNL     1       8.338   5.395  23.317  0.00  0.00    +0.055 C 
ATOM     10  C   UNL     1      10.351   3.972  23.641  0.00  0.00    +0.055 C 
ENDBRANCH   6   7
ENDBRANCH   4   6
ENDBRANCH   1   2
BRANCH   1  11
ATOM     11  C   UNL     1       7.822  -1.454  23.259  0.00  0.00    +0.238 C 
ATOM     12  N   UNL     1       8.235  -2.781  23.326  0.00  0.00    -0.283 N 
ATOM     13  H   UNL     1       9.213  -2.952  23.598  0.00  0.00    +0.155 HD
ATOM     14  O   UNL     1       6.659  -1.086  23.078  0.00  0.00    -0.273 OA
BRANCH  12  15
ATOM     15  C   UNL     1       7.398  -3.935  23.215  0.00  0.00    +0.045 A 
ATOM     16  C   UNL     1       6.833  -4.551  24.359  0.00  0.00    +0.054 A 
ATOM     17  C   UNL     1       5.909  -5.604  24.228  0.00  0.00    +0.053 A 
ATOM     18 CL   UNL     1       5.112  -6.339  25.577  0.00  0.00    -0.083 Cl
ATOM     19  C   UNL     1       5.612  -6.121  22.968  0.00  0.00    +0.021 A 
ATOM     20  C   UNL     1       6.221  -5.581  21.843  0.00  0.00    +0.003 A 
ATOM     21  C   UNL     1       7.088  -4.491  21.967  0.00  0.00    +0.024 A 
BRANCH  16  22
ATOM     22  C   UNL     1       7.216  -4.149  25.719  0.00  0.00    +0.262 C 
ATOM     23  O   UNL     1       8.395  -4.061  26.038  0.00  0.00    -0.296 OA
ENDBRANCH  16  22
ENDBRANCH  12  15
ENDBRANCH   1  11
BRANCH   1  24
ATOM     24  C   UNL     1       9.802  -0.581  24.718  0.00  0.00    +0.012 C 
ATOM     25  C   UNL     1       8.955  -0.509  25.997  0.00  0.00    +0.009 C 
ATOM     26  C   UNL     1      10.930   0.455  24.807  0.00  0.00    +0.009 C 
ENDBRANCH   1  24
TORSDOF 7
ENDMDL
MODEL 3
REMARK VINA RESULT:      -6.0      1.993      2.607
REMARK  Name = 
REMARK  12 active torsions:
REMARK  status: ('A' for Active; 'I' for Inactive)
REMARK    1  A    between atoms: C_2  and  N_3
REMARK    2  A    between atoms: C_2  and  C_11
REMARK    3  A    between atoms: C_2  and  C_14
REMARK    4  A    between atoms: C_4  and  O_6
REMARK    5  A    between atoms: O_6  and  C_7
REMARK    6  A    between atoms: C_7  and  C_8
REMARK    7  A    between atoms: C_7  and  C_9
REMARK    8  A    between atoms: C_7  and  C_10
REMARK    9  A    between atoms: C_11  and  C_12
REMARK   10  A    between atoms: C_11  and  C_13
REMARK   11  A    between atoms: N_16  and  C_17
REMARK   12  A    between atoms: C_23  and  C_24
REMARK                            x       y       z     vdW  Elec       q    Type
REMARK                         _______ _______ _______ _____ _____    ______ ____
ROOT
ATOM      1  C   UNL     1       7.785  -4.116  23.685  0.00  0.00    +0.165 C 
ENDROOT
BRANCH   1   2
ATOM      2  N   UNL     1       6.889  -4.078  24.845  0.00  0.00    -0.270 N 
ATOM      3  H   UNL     1       6.066  -3.489  24.831  0.00  0.00    +0.153 HD
ATOM      4  C   UNL     1       7.006  -4.947  25.882  0.00  0.00    +0.401 C 
ATOM      5  O   UNL     1       7.902  -5.776  25.933  0.00  0.00    -0.226 OA
BRANCH   4   6
ATOM      6  O   UNL     1       5.988  -4.833  26.764  0.00  0.00    -0.445 OA
BRANCH   6   7
ATOM      7  C   UNL     1       4.888  -5.785  26.651  0.00  0.00    +0.107 C 
ATOM      8  C   UNL     1       3.542  -5.074  26.846  0.00  0.00    +0.055 C 
ATOM      9  C   UNL     1       5.045  -6.788  27.804  0.00  0.00    +0.055 C 
ATOM     10  C   UNL     1       4.946  -6.566  25.329  0.00  0.00    +0.055 C 
ENDBRANCH   6   7
ENDBRANCH   4   6
ENDBRANCH   1   2
BRANCH   1  11
ATOM     11  C   UNL     1       8.616  -2.802  23.580  0.00  0.00    +0.238 C 
ATOM     12  N   UNL     1       7.954  -1.680  23.089  0.00  0.00    -0.283 N 
ATOM     13  H   UNL     1       6.943  -1.771  22.923  0.00  0.00    +0.155 HD
ATOM     14  O   UNL     1       9.791  -2.819  23.953  0.00  0.00    -0.273 OA
BRANCH  12  15
ATOM     15  C   UNL     1       8.503  -0.367  22.947  0.00  0.00    +0.045 A 
ATOM     16  C   UNL     1       8.215   0.659  23.879  0.00  0.00    +0.054 A 
ATOM     17  C   UNL     1       8.861   1.907  23.801  0.00  0.00    +0.053 A 
ATOM     18 CL   UNL     1       8.625   3.170  24.960  0.00  0.00    -0.083 Cl
ATOM     19  C   UNL     1       9.725   2.181  22.743  0.00  0.00    +0.021 A 
ATOM     20  C   UNL     1       9.954   1.212  21.775  0.00  0.00    +0.003 A 
ATOM     21  C   UNL     1       9.364  -0.050  21.888  0.00  0.00    +0.024 A 
BRANCH  16  22
ATOM     22  C   UNL     1       7.205   0.483  24.933  0.00  0.00    +0.262 C 
ATOM     23  O   UNL     1       6.074   0.103  24.660  0.00  0.00    -0.296 OA
ENDBRANCH  16  22
ENDBRANCH  12  15
ENDBRANCH   1  11
BRANCH   1  24
ATOM     24  C   UNL     1       7.114  -4.549  22.354  0.00  0.00    +0.012 C 
ATOM     25  C   UNL     1       5.617  -4.206  22.359  0.00  0.00    +0.009 C 
ATOM     26  C   UNL     1       7.281  -6.051  22.094  0.00  0.00    +0.009 C 
ENDBRANCH   1  24
TORSDOF 7
ENDMDL
MODEL 4
REMARK VINA RESULT:      -5.8      3.678      5.738
REMARK  Name = 
REMARK  12 active torsions:
REMARK  status: ('A' for Active; 'I' for Inactive)
REMARK    1  A    between atoms: C_2  and  N_3
REMARK    2  A    between atoms: C_2  and  C_11
REMARK    3  A    between atoms: C_2  and  C_14
REMARK    4  A    between atoms: C_4  and  O_6
REMARK    5  A    between atoms: O_6  and  C_7
REMARK    6  A    between atoms: C_7  and  C_8
REMARK    7  A    between atoms: C_7  and  C_9
REMARK    8  A    between atoms: C_7  and  C_10
REMARK    9  A    between atoms: C_11  and  C_12
REMARK   10  A    between atoms: C_11  and  C_13
REMARK   11  A    between atoms: N_16  and  C_17
REMARK   12  A    between atoms: C_23  and  C_24
REMARK                            x       y       z     vdW  Elec       q    Type
REMARK                         _______ _______ _______ _____ _____    ______ ____
ROOT
ATOM      1  C   UNL     1       7.892  -1.193  24.105  0.00  0.00    +0.165 C 
ENDROOT
BRANCH   1   2
ATOM      2  N   UNL     1       7.356  -2.020  23.019  0.00  0.00    -0.270 N 
ATOM      3  H   UNL     1       7.947  -2.279  22.240  0.00  0.00    +0.153 HD
ATOM      4  C   UNL     1       6.142  -2.624  23.098  0.00  0.00    +0.401 C 
ATOM      5  O   UNL     1       5.402  -2.466  24.057  0.00  0.00    -0.226 OA
BRANCH   4   6
ATOM      6  O   UNL     1       5.915  -3.457  22.058  0.00  0.00    -0.445 OA
BRANCH   6   7
ATOM      7  C   UNL     1       5.977  -4.891  22.317  0.00  0.00    +0.107 C 
ATOM      8  C   UNL     1       7.176  -5.221  23.218  0.00  0.00    +0.055 C 
ATOM      9  C   UNL     1       6.220  -5.580  20.966  0.00  0.00    +0.055 C 
ATOM     10  C   UNL     1       4.655  -5.423  22.892  0.00  0.00    +0.055 C 
ENDBRANCH   6   7
ENDBRANCH   4   6
ENDBRANCH   1   2
BRANCH   1  11
ATOM     11  C   UNL     1       8.296   0.219  23.583  0.00  0.00    +0.238 C 
ATOM     12  N   UNL     1       8.960   1.052  24.479  0.00  0.00    -0.283 N 
ATOM     13  H   UNL     1       9.222   0.644  25.387  0.00  0.00    +0.155 HD
ATOM     14  O   UNL     1       8.031   0.510  22.414  0.00  0.00    -0.273 OA
BRANCH  12  15
ATOM     15  C   UNL     1       9.458   2.364  24.207  0.00  0.00    +0.045 A 
ATOM     16  C   UNL     1       8.777   3.521  24.657  0.00  0.00    +0.054 A 
ATOM     17  C   UNL     1       9.343   4.800  24.495  0.00  0.00    +0.053 A 
ATOM     18 CL   UNL     1       8.608   6.245  25.102  0.00  0.00    -0.083 Cl
ATOM     19  C   UNL     1      10.540   4.950  23.800  0.00  0.00    +0.021 A 
ATOM     20  C   UNL     1      11.180   3.832  23.282  0.00  0.00    +0.003 A 
ATOM     21  C   UNL     1      10.652   2.555  23.499  0.00  0.00    +0.024 A 
BRANCH  16  22
ATOM     22  C   UNL     1       7.442   3.442  25.267  0.00  0.00    +0.262 C 
ATOM     23  O   UNL     1       7.264   2.820  26.307  0.00  0.00    -0.296 OA
ENDBRANCH  16  22
ENDBRANCH  12  15
ENDBRANCH   1  11
BRANCH   1  24
ATOM     24  C   UNL     1       8.978  -1.881  24.976  0.00  0.00    +0.012 C 
ATOM     25  C   UNL     1       9.853  -2.813  24.125  0.00  0.00    +0.009 C 
ATOM     26  C   UNL     1       8.360  -2.687  26.125  0.00  0.00    +0.009 C 
ENDBRANCH   1  24
TORSDOF 7
ENDMDL
MODEL 5
REMARK VINA RESULT:      -5.8      1.531      2.385
REMARK  Name = 
REMARK  12 active torsions:
REMARK  status: ('A' for Active; 'I' for Inactive)
REMARK    1  A    between atoms: C_2  and  N_3
REMARK    2  A    between atoms: C_2  and  C_11
REMARK    3  A    between atoms: C_2  and  C_14
REMARK    4  A    between atoms: C_4  and  O_6
REMARK    5  A    between atoms: O_6  and  C_7
REMARK    6  A    between atoms: C_7  and  C_8
REMARK    7  A    between atoms: C_7  and  C_9
REMARK    8  A    between atoms: C_7  and  C_10
REMARK    9  A    between atoms: C_11  and  C_12
REMARK   10  A    between atoms: C_11  and  C_13
REMARK   11  A    between atoms: N_16  and  C_17
REMARK   12  A    between atoms: C_23  and  C_24
REMARK                            x       y       z     vdW  Elec       q    Type
REMARK                         _______ _______ _______ _____ _____    ______ ____
ROOT
ATOM      1  C   UNL     1       7.892  -5.228  24.618  0.00  0.00    +0.165 C 
ENDROOT
BRANCH   1   2
ATOM      2  N   UNL     1       7.612  -5.631  26.000  0.00  0.00    -0.270 N 
ATOM      3  H   UNL     1       7.987  -6.498  26.362  0.00  0.00    +0.153 HD
ATOM      4  C   UNL     1       7.021  -4.796  26.894  0.00  0.00    +0.401 C 
ATOM      5  O   UNL     1       6.638  -3.679  26.581  0.00  0.00    -0.226 OA
BRANCH   4   6
ATOM      6  O   UNL     1       7.000  -5.314  28.142  0.00  0.00    -0.445 OA
BRANCH   6   7
ATOM      7  C   UNL     1       5.707  -5.727  28.679  0.00  0.00    +0.107 C 
ATOM      8  C   UNL     1       4.809  -4.503  28.912  0.00  0.00    +0.055 C 
ATOM      9  C   UNL     1       5.975  -6.363  30.050  0.00  0.00    +0.055 C 
ATOM     10  C   UNL     1       5.032  -6.781  27.787  0.00  0.00    +0.055 C 
ENDBRANCH   6   7
ENDBRANCH   4   6
ENDBRANCH   1   2
BRANCH   1  11
ATOM     11  C   UNL     1       8.857  -4.005  24.578  0.00  0.00    +0.238 C 
ATOM     12  N   UNL     1       8.273  -2.751  24.423  0.00  0.00    -0.283 N 
ATOM     13  H   UNL     1       7.245  -2.710  24.442  0.00  0.00    +0.155 HD
ATOM     14  O   UNL     1      10.066  -4.207  24.709  0.00  0.00    -0.273 OA
BRANCH  12  15
ATOM     15  C   UNL     1       8.955  -1.495  24.402  0.00  0.00    +0.045 A 
ATOM     16  C   UNL     1       9.235  -0.826  23.185  0.00  0.00    +0.054 A 
ATOM     17  C   UNL     1       9.790   0.467  23.185  0.00  0.00    +0.053 A 
ATOM     18 CL   UNL     1      10.072   1.377  21.739  0.00  0.00    -0.083 Cl
ATOM     19  C   UNL     1      10.163   1.068  24.385  0.00  0.00    +0.021 A 
ATOM     20  C   UNL     1       9.970   0.390  25.581  0.00  0.00    +0.003 A 
ATOM     21  C   UNL     1       9.357  -0.866  25.588  0.00  0.00    +0.024 A 
BRANCH  16  22
ATOM     22  C   UNL     1       9.000  -1.464  21.882  0.00  0.00    +0.262 C 
ATOM     23  O   UNL     1       8.015  -2.167  21.697  0.00  0.00    -0.296 OA
ENDBRANCH  16  22
ENDBRANCH  12  15
ENDBRANCH   1  11
BRANCH   1  24
ATOM     24  C   UNL     1       6.638  -5.075  23.715  0.00  0.00    +0.012 C 
ATOM     25  C   UNL     1       5.500  -5.984  24.201  0.00  0.00    +0.009 C 
ATOM     26  C   UNL     1       6.948  -5.402  22.249  0.00  0.00    +0.009 C 
ENDBRANCH   1  24
TORSDOF 7
ENDMDL
MODEL 6
REMARK VINA RESULT:      -5.4      3.620      7.186
REMARK  Name = 
REMARK  12 active torsions:
REMARK  status: ('A' for Active; 'I' for Inactive)
REMARK    1  A    between atoms: C_2  and  N_3
REMARK    2  A    between atoms: C_2  and  C_11
REMARK    3  A    between atoms: C_2  and  C_14
REMARK    4  A    between atoms: C_4  and  O_6
REMARK    5  A    between atoms: O_6  and  C_7
REMARK    6  A    between atoms: C_7  and  C_8
REMARK    7  A    between atoms: C_7  and  C_9
REMARK    8  A    between atoms: C_7  and  C_10
REMARK    9  A    between atoms: C_11  and  C_12
REMARK   10  A    between atoms: C_11  and  C_13
REMARK   11  A    between atoms: N_16  and  C_17
REMARK   12  A    between atoms: C_23  and  C_24
REMARK                            x       y       z     vdW  Elec       q    Type
REMARK                         _______ _______ _______ _____ _____    ______ ____
ROOT
ATOM      1  C   UNL     1       8.478  -0.011  22.761  0.00  0.00    +0.165 C 
ENDROOT
BRANCH   1   2
ATOM      2  N   UNL     1       7.762   0.566  23.904  0.00  0.00    -0.270 N 
ATOM      3  H   UNL     1       8.033   0.323  24.848  0.00  0.00    +0.153 HD
ATOM      4  C   UNL     1       6.861   1.572  23.763  0.00  0.00    +0.401 C 
ATOM      5  O   UNL     1       6.553   2.016  22.668  0.00  0.00    -0.226 OA
BRANCH   4   6
ATOM      6  O   UNL     1       6.439   2.053  24.954  0.00  0.00    -0.445 OA
BRANCH   6   7
ATOM      7  C   UNL     1       7.006   3.318  25.410  0.00  0.00    +0.107 C 
ATOM      8  C   UNL     1       8.462   3.452  24.940  0.00  0.00    +0.055 C 
ATOM      9  C   UNL     1       7.025   3.272  26.945  0.00  0.00    +0.055 C 
ATOM     10  C   UNL     1       6.145   4.515  24.979  0.00  0.00    +0.055 C 
ENDBRANCH   6   7
ENDBRANCH   4   6
ENDBRANCH   1   2
BRANCH   1  11
ATOM     11  C   UNL     1       8.266  -1.554  22.693  0.00  0.00    +0.238 C 
ATOM     12  N   UNL     1       7.015  -2.031  23.076  0.00  0.00    -0.283 N 
ATOM     13  H   UNL     1       6.292  -1.329  23.282  0.00  0.00    +0.155 HD
ATOM     14  O   UNL     1       9.195  -2.256  22.287  0.00  0.00    -0.273 OA
BRANCH  12  15
ATOM     15  C   UNL     1       6.586  -3.395  23.053  0.00  0.00    +0.045 A 
ATOM     16  C   UNL     1       6.355  -4.117  24.250  0.00  0.00    +0.054 A 
ATOM     17  C   UNL     1       5.810  -5.414  24.216  0.00  0.00    +0.053 A 
ATOM     18 CL   UNL     1       5.417  -6.314  25.641  0.00  0.00    -0.083 Cl
ATOM     19  C   UNL     1       5.581  -6.043  22.994  0.00  0.00    +0.021 A 
ATOM     20  C   UNL     1       5.880  -5.378  21.812  0.00  0.00    +0.003 A 
ATOM     21  C   UNL     1       6.359  -4.065  21.844  0.00  0.00    +0.024 A 
BRANCH  16  22
ATOM     22  C   UNL     1       6.711  -3.565  25.565  0.00  0.00    +0.262 C 
ATOM     23  O   UNL     1       7.852  -3.184  25.796  0.00  0.00    -0.296 OA
ENDBRANCH  16  22
ENDBRANCH  12  15
ENDBRANCH   1  11
BRANCH   1  24
ATOM     24  C   UNL     1       9.960   0.432  22.627  0.00  0.00    +0.012 C 
ATOM     25  C   UNL     1      10.650   0.455  23.998  0.00  0.00    +0.009 C 
ATOM     26  C   UNL     1      10.084   1.817  21.981  0.00  0.00    +0.009 C 
ENDBRANCH   1  24
TORSDOF 7
ENDMDL
MODEL 7
REMARK VINA RESULT:      -5.4      3.560      7.524
REMARK  Name = 
REMARK  12 active torsions:
REMARK  status: ('A' for Active; 'I' for Inactive)
REMARK    1  A    between atoms: C_2  and  N_3
REMARK    2  A    between atoms: C_2  and  C_11
REMARK    3  A    between atoms: C_2  and  C_14
REMARK    4  A    between atoms: C_4  and  O_6
REMARK    5  A    between atoms: O_6  and  C_7
REMARK    6  A    between atoms: C_7  and  C_8
REMARK    7  A    between atoms: C_7  and  C_9
REMARK    8  A    between atoms: C_7  and  C_10
REMARK    9  A    between atoms: C_11  and  C_12
REMARK   10  A    between atoms: C_11  and  C_13
REMARK   11  A    between atoms: N_16  and  C_17
REMARK   12  A    between atoms: C_23  and  C_24
REMARK                            x       y       z     vdW  Elec       q    Type
REMARK                         _______ _______ _______ _____ _____    ______ ____
ROOT
ATOM      1  C   UNL     1       8.999  -1.243  23.872  0.00  0.00    +0.165 C 
ENDROOT
BRANCH   1   2
ATOM      2  N   UNL     1       7.963  -0.303  23.430  0.00  0.00    -0.270 N 
ATOM      3  H   UNL     1       7.182  -0.087  24.036  0.00  0.00    +0.153 HD
ATOM      4  C   UNL     1       8.098   0.450  22.308  0.00  0.00    +0.401 C 
ATOM      5  O   UNL     1       9.065   0.346  21.570  0.00  0.00    -0.226 OA
BRANCH   4   6
ATOM      6  O   UNL     1       7.101   1.353  22.175  0.00  0.00    -0.445 OA
BRANCH   6   7
ATOM      7  C   UNL     1       7.181   2.570  22.976  0.00  0.00    +0.107 C 
ATOM      8  C   UNL     1       6.585   2.333  24.371  0.00  0.00    +0.055 C 
ATOM      9  C   UNL     1       6.308   3.623  22.280  0.00  0.00    +0.055 C 
ATOM     10  C   UNL     1       8.618   3.111  23.044  0.00  0.00    +0.055 C 
ENDBRANCH   6   7
ENDBRANCH   4   6
ENDBRANCH   1   2
BRANCH   1  11
ATOM     11  C   UNL     1       8.404  -2.668  24.085  0.00  0.00    +0.238 C 
ATOM     12  N   UNL     1       7.119  -2.736  24.616  0.00  0.00    -0.283 N 
ATOM     13  H   UNL     1       6.617  -1.846  24.739  0.00  0.00    +0.155 HD
ATOM     14  O   UNL     1       9.082  -3.643  23.755  0.00  0.00    -0.273 OA
BRANCH  12  15
ATOM     15  C   UNL     1       6.363  -3.926  24.855  0.00  0.00    +0.045 A 
ATOM     16  C   UNL     1       5.364  -4.362  23.951  0.00  0.00    +0.054 A 
ATOM     17  C   UNL     1       4.720  -5.600  24.131  0.00  0.00    +0.053 A 
ATOM     18 CL   UNL     1       3.558  -6.234  23.015  0.00  0.00    -0.083 Cl
ATOM     19  C   UNL     1       4.989  -6.370  25.260  0.00  0.00    +0.021 A 
ATOM     20  C   UNL     1       5.907  -5.917  26.198  0.00  0.00    +0.003 A 
ATOM     21  C   UNL     1       6.597  -4.719  25.987  0.00  0.00    +0.024 A 
BRANCH  16  22
ATOM     22  C   UNL     1       4.931  -3.529  22.820  0.00  0.00    +0.262 C 
ATOM     23  O   UNL     1       5.595  -3.472  21.793  0.00  0.00    -0.296 OA
ENDBRANCH  16  22
ENDBRANCH  12  15
ENDBRANCH   1  11
BRANCH   1  24
ATOM     24  C   UNL     1       9.879  -0.741  25.048  0.00  0.00    +0.012 C 
ATOM     25  C   UNL     1       9.012  -0.367  26.259  0.00  0.00    +0.009 C 
ATOM     26  C   UNL     1      10.728   0.471  24.648  0.00  0.00    +0.009 C 
ENDBRANCH   1  24
TORSDOF 7
ENDMDL
MODEL 8
REMARK VINA RESULT:      -5.3      4.136      8.077
REMARK  Name = 
REMARK  12 active torsions:
REMARK  status: ('A' for Active; 'I' for Inactive)
REMARK    1  A    between atoms: C_2  and  N_3
REMARK    2  A    between atoms: C_2  and  C_11
REMARK    3  A    between atoms: C_2  and  C_14
REMARK    4  A    between atoms: C_4  and  O_6
REMARK    5  A    between atoms: O_6  and  C_7
REMARK    6  A    between atoms: C_7  and  C_8
REMARK    7  A    between atoms: C_7  and  C_9
REMARK    8  A    between atoms: C_7  and  C_10
REMARK    9  A    between atoms: C_11  and  C_12
REMARK   10  A    between atoms: C_11  and  C_13
REMARK   11  A    between atoms: N_16  and  C_17
REMARK   12  A    between atoms: C_23  and  C_24
REMARK                            x       y       z     vdW  Elec       q    Type
REMARK                         _______ _______ _______ _____ _____    ______ ____
ROOT
ATOM      1  C   UNL     1       8.015   0.856  23.040  0.00  0.00    +0.165 C 
ENDROOT
BRANCH   1   2
ATOM      2  N   UNL     1       7.616   2.082  23.740  0.00  0.00    -0.270 N 
ATOM      3  H   UNL     1       7.757   2.165  24.738  0.00  0.00    +0.153 HD
ATOM      4  C   UNL     1       7.232   3.204  23.077  0.00  0.00    +0.401 C 
ATOM      5  O   UNL     1       7.142   3.238  21.860  0.00  0.00    -0.226 OA
BRANCH   4   6
ATOM      6  O   UNL     1       7.057   4.255  23.909  0.00  0.00    -0.445 OA
BRANCH   6   7
ATOM      7  C   UNL     1       8.105   5.270  23.943  0.00  0.00    +0.107 C 
ATOM      8  C   UNL     1       9.491   4.609  23.918  0.00  0.00    +0.055 C 
ATOM      9  C   UNL     1       7.974   6.004  25.285  0.00  0.00    +0.055 C 
ATOM     10  C   UNL     1       7.933   6.301  22.816  0.00  0.00    +0.055 C 
ENDBRANCH   6   7
ENDBRANCH   4   6
ENDBRANCH   1   2
BRANCH   1  11
ATOM     11  C   UNL     1       7.213  -0.372  23.567  0.00  0.00    +0.238 C 
ATOM     12  N   UNL     1       7.797  -1.624  23.389  0.00  0.00    -0.283 N 
ATOM     13  H   UNL     1       8.755  -1.642  23.013  0.00  0.00    +0.155 HD
ATOM     14  O   UNL     1       6.132  -0.172  24.125  0.00  0.00    -0.273 OA
BRANCH  12  15
ATOM     15  C   UNL     1       7.265  -2.876  23.828  0.00  0.00    +0.045 A 
ATOM     16  C   UNL     1       7.627  -3.436  25.078  0.00  0.00    +0.054 A 
ATOM     17  C   UNL     1       6.999  -4.602  25.555  0.00  0.00    +0.053 A 
ATOM     18 CL   UNL     1       7.327  -5.285  27.110  0.00  0.00    -0.083 Cl
ATOM     19  C   UNL     1       6.080  -5.277  24.755  0.00  0.00    +0.021 A 
ATOM     20  C   UNL     1       5.775  -4.785  23.493  0.00  0.00    +0.003 A 
ATOM     21  C   UNL     1       6.348  -3.590  23.045  0.00  0.00    +0.024 A 
BRANCH  16  22
ATOM     22  C   UNL     1       8.693  -2.853  25.904  0.00  0.00    +0.262 C 
ATOM     23  O   UNL     1       8.553  -1.754  26.425  0.00  0.00    -0.296 OA
ENDBRANCH  16  22
ENDBRANCH  12  15
ENDBRANCH   1  11
BRANCH   1  24
ATOM     24  C   UNL     1       9.547   0.622  22.952  0.00  0.00    +0.012 C 
ATOM     25  C   UNL     1      10.225   0.927  24.296  0.00  0.00    +0.009 C 
ATOM     26  C   UNL     1      10.193   1.484  21.860  0.00  0.00    +0.009 C 
ENDBRANCH   1  24
TORSDOF 7
ENDMDL
MODEL 9
REMARK VINA RESULT:      -5.3      4.356      8.325
REMARK  Name = 
REMARK  12 active torsions:
REMARK  status: ('A' for Active; 'I' for Inactive)
REMARK    1  A    between atoms: C_2  and  N_3
REMARK    2  A    between atoms: C_2  and  C_11
REMARK    3  A    between atoms: C_2  and  C_14
REMARK    4  A    between atoms: C_4  and  O_6
REMARK    5  A    between atoms: O_6  and  C_7
REMARK    6  A    between atoms: C_7  and  C_8
REMARK    7  A    between atoms: C_7  and  C_9
REMARK    8  A    between atoms: C_7  and  C_10
REMARK    9  A    between atoms: C_11  and  C_12
REMARK   10  A    between atoms: C_11  and  C_13
REMARK   11  A    between atoms: N_16  and  C_17
REMARK   12  A    between atoms: C_23  and  C_24
REMARK                            x       y       z     vdW  Elec       q    Type
REMARK                         _______ _______ _______ _____ _____    ______ ____
ROOT
ATOM      1  C   UNL     1       8.039   0.878  23.298  0.00  0.00    +0.165 C 
ENDROOT
BRANCH   1   2
ATOM      2  N   UNL     1       7.731   2.105  24.040  0.00  0.00    -0.270 N 
ATOM      3  H   UNL     1       7.918   2.158  25.033  0.00  0.00    +0.153 HD
ATOM      4  C   UNL     1       7.373   3.259  23.419  0.00  0.00    +0.401 C 
ATOM      5  O   UNL     1       7.234   3.325  22.207  0.00  0.00    -0.226 OA
BRANCH   4   6
ATOM      6  O   UNL     1       7.285   4.297  24.279  0.00  0.00    -0.445 OA
BRANCH   6   7
ATOM      7  C   UNL     1       8.343   5.302  24.235  0.00  0.00    +0.107 C 
ATOM      8  C   UNL     1       9.700   4.637  23.963  0.00  0.00    +0.055 C 
ATOM      9  C   UNL     1       8.417   5.935  25.631  0.00  0.00    +0.055 C 
ATOM     10  C   UNL     1       8.028   6.414  23.222  0.00  0.00    +0.055 C 
ENDBRANCH   6   7
ENDBRANCH   4   6
ENDBRANCH   1   2
BRANCH   1  11
ATOM     11  C   UNL     1       7.215  -0.326  23.845  0.00  0.00    +0.238 C 
ATOM     12  N   UNL     1       7.850  -1.565  23.859  0.00  0.00    -0.283 N 
ATOM     13  H   UNL     1       8.845  -1.581  23.600  0.00  0.00    +0.155 HD
ATOM     14  O   UNL     1       6.070  -0.117  24.252  0.00  0.00    -0.273 OA
BRANCH  12  15
ATOM     15  C   UNL     1       7.304  -2.791  24.352  0.00  0.00    +0.045 A 
ATOM     16  C   UNL     1       6.744  -3.755  23.479  0.00  0.00    +0.054 A 
ATOM     17  C   UNL     1       6.329  -5.010  23.961  0.00  0.00    +0.053 A 
ATOM     18 CL   UNL     1       5.722  -6.266  22.936  0.00  0.00    -0.083 Cl
ATOM     19  C   UNL     1       6.375  -5.284  25.326  0.00  0.00    +0.021 A 
ATOM     20  C   UNL     1       6.846  -4.318  26.205  0.00  0.00    +0.003 A 
ATOM     21  C   UNL     1       7.321  -3.095  25.720  0.00  0.00    +0.024 A 
BRANCH  16  22
ATOM     22  C   UNL     1       6.533  -3.473  22.052  0.00  0.00    +0.262 C 
ATOM     23  O   UNL     1       5.419  -3.200  21.624  0.00  0.00    -0.296 OA
ENDBRANCH  16  22
ENDBRANCH  12  15
ENDBRANCH   1  11
BRANCH   1  24
ATOM     24  C   UNL     1       9.553   0.583  23.125  0.00  0.00    +0.012 C 
ATOM     25  C   UNL     1      10.329   0.930  24.404  0.00  0.00    +0.009 C 
ATOM     26  C   UNL     1      10.155   1.362  21.949  0.00  0.00    +0.009 C 
ENDBRANCH   1  24
TORSDOF 7
ENDMDL
