MODEL 1
REMARK VINA RESULT:      59.0      0.000      0.000
REMARK  Name = 
REMARK  78 active torsions:
REMARK  status: ('A' for Active; 'I' for Inactive)
REMARK    1  A    between atoms: CD1_1  and  CG1_2
REMARK    2  A    between atoms: CG1_2  and  CB_3
REMARK    3  A    between atoms: CB_3  and  CG2_5
REMARK    4  A    between atoms: CB_3  and  CA_6
REMARK    5  A    between atoms: CA_6  and  N_8
REMARK    6  A    between atoms: CA_6  and  C_119
REMARK    7  A    between atoms: C_9  and  CA_11
REMARK    8  A    between atoms: CA_11  and  CB_13
REMARK    9  A    between atoms: CA_11  and  N_18
REMARK   10  A    between atoms: CB_13  and  CG_14
REMARK   11  A    between atoms: CG_14  and  CD_15
REMARK   12  A    between atoms: CD_15  and  OE1_16
REMARK   13  A    between atoms: C_19  and  CA_21
REMARK   14  A    between atoms: CA_21  and  CB_23
REMARK   15  A    between atoms: CA_21  and  N_28
REMARK   16  A    between atoms: CB_23  and  CG_24
REMARK   17  A    between atoms: CG_24  and  CD_25
REMARK   18  A    between atoms: CD_25  and  OE1_26
REMARK   19  A    between atoms: C_29  and  CA_31
REMARK   20  A    between atoms: CA_31  and  CB_33
REMARK   21  A    between atoms: CA_31  and  N_40
REMARK   22  A    between atoms: CB_33  and  CG_34
REMARK   23  A    between atoms: C_41  and  CA_43
REMARK   24  A    between atoms: CA_43  and  CB_45
REMARK   25  A    between atoms: CA_43  and  N_49
REMARK   26  A    between atoms: CB_45  and  CG_46
REMARK   27  A    between atoms: CG_46  and  OD1_47
REMARK   28  A    between atoms: C_50  and  CA_52
REMARK   29  A    between atoms: CA_52  and  N_53
REMARK   30  A    between atoms: C_54  and  CA_56
REMARK   31  A    between atoms: CA_56  and  CB_58
REMARK   32  A    between atoms: CA_56  and  N_62
REMARK   33  A    between atoms: CB_58  and  CG_59
REMARK   34  A    between atoms: C_63  and  CA_65
REMARK   35  A    between atoms: CA_65  and  N_66
REMARK   36  A    between atoms: C_67  and  CA_69
REMARK   37  A    between atoms: CA_69  and  N_70
REMARK   38  A    between atoms: C_71  and  CA_73
REMARK   39  A    between atoms: CA_73  and  N_74
REMARK   40  A    between atoms: C_75  and  CA_77
REMARK   41  A    between atoms: CA_77  and  N_78
REMARK   42  A    between atoms: C_79  and  CA_81
REMARK   43  A    between atoms: C_87  and  CA_89
REMARK   44  A    between atoms: CA_89  and  CB_91
REMARK   45  A    between atoms: CA_89  and  N_98
REMARK   46  A    between atoms: CB_91  and  CG_92
REMARK   47  A    between atoms: CG_92  and  CD_93
REMARK   48  A    between atoms: CD_93  and  NE_94
REMARK   49  A    between atoms: C_99  and  CA_101
REMARK   50  A    between atoms: C_107  and  CA_109
REMARK   51  A    between atoms: CA_109  and  N_111
REMARK   52  A    between atoms: CA_109  and  CB_112
REMARK   53  A    between atoms: CB_112  and  CG_113
REMARK   54  A    between atoms: CA_125  and  C_127
REMARK   55  A    between atoms: N_129  and  CA_130
REMARK   56  A    between atoms: CA_130  and  CB_132
REMARK   57  A    between atoms: CA_130  and  C_137
REMARK   58  A    between atoms: CB_132  and  CG_133
REMARK   59  A    between atoms: CG_133  and  CD_134
REMARK   60  A    between atoms: CD_134  and  OE1_135
REMARK   61  A    between atoms: N_139  and  CA_140
REMARK   62  A    between atoms: CA_140  and  CB_142
REMARK   63  A    between atoms: CA_140  and  C_147
REMARK   64  A    between atoms: CB_142  and  CG_143
REMARK   65  A    between atoms: CG_143  and  CD_144
REMARK   66  A    between atoms: CD_144  and  OE1_145
REMARK   67  A    between atoms: N_149  and  CA_150
REMARK   68  A    between atoms: CA_150  and  CB_152
REMARK   69  A    between atoms: CA_150  and  C_160
REMARK   70  A    between atoms: CB_152  and  CG_153
REMARK   71  A    between atoms: CZ_156  and  OH_157
REMARK   72  A    between atoms: N_162  and  CA_163
REMARK   73  A    between atoms: CA_163  and  CB_165
REMARK   74  A    between atoms: CA_163  and  C_169
REMARK   75  A    between atoms: CB_165  and  CG_166
REMARK   76  A    between atoms: CG_166  and  CD1_167
REMARK   77  A    between atoms: CG_166  and  CD2_168
REMARK   78  A    between atoms: C_169  and  O_170
REMARK                            x       y       z     vdW  Elec       q    Type
REMARK                         _______ _______ _______ _____ _____    ______ ____
ROOT
ATOM      1  CA  PHE A  12       7.851   1.381  25.539  0.00  0.00    +0.163 C 
ENDROOT
BRANCH   1   4
ATOM      2  N   GLU A  13      10.183   2.111  25.105  0.00  0.00    -0.302 N 
ATOM      3  H   GLU A  13      10.333   1.195  24.694  0.00  0.00    +0.150 HD
ATOM      4  C   PHE A  12       8.933   2.493  25.550  0.00  0.00    +0.234 C 
ATOM      5  O   PHE A  12       8.709   3.642  25.928  0.00  0.00    -0.274 OA
BRANCH   2   6
ATOM      6  CA  GLU A  13      11.319   3.035  25.044  0.00  0.00    +0.159 C 
BRANCH   6   9
ATOM      7  N   GLU A  14       9.495   4.435  24.110  0.00  0.00    -0.302 N 
ATOM      8  H   GLU A  14       9.020   3.558  23.920  0.00  0.00    +0.150 HD
ATOM      9  C   GLU A  13      10.801   4.410  24.565  0.00  0.00    +0.234 C 
ATOM     10  O   GLU A  13      11.513   5.415  24.588  0.00  0.00    -0.274 OA
BRANCH   7  11
ATOM     11  CA  GLU A  14       8.901   5.654  23.534  0.00  0.00    +0.159 C 
BRANCH  11  14
ATOM     12  N   ILE A  15       6.500   6.113  23.160  0.00  0.00    -0.302 N 
ATOM     13  H   ILE A  15       6.710   6.887  23.776  0.00  0.00    +0.150 HD
ATOM     14  C   GLU A  14       7.584   5.359  22.750  0.00  0.00    +0.234 C 
ATOM     15  O   GLU A  14       7.550   4.557  21.820  0.00  0.00    -0.274 OA
BRANCH  12  16
ATOM     16  CA  ILE A  15       5.124   6.040  22.614  0.00  0.00    +0.162 C 
BRANCH  16  17
ATOM     17  C   ILE A  15       4.578   4.546  22.634  0.00  0.00    +0.237 C 
ATOM     18  N   PRO A  16       4.961   3.624  21.677  0.00  0.00    -0.288 N 
ATOM     19  CA  PRO A  16       4.177   2.383  21.473  0.00  0.00    +0.162 C 
ATOM     20  CB  PRO A  16       4.526   1.916  20.048  0.00  0.00    +0.033 C 
ATOM     21  CG  PRO A  16       5.365   3.013  19.418  0.00  0.00    +0.021 C 
ATOM     22  CD  PRO A  16       5.853   3.870  20.563  0.00  0.00    +0.109 C 
ATOM     23  O   ILE A  15       3.689   4.207  23.431  0.00  0.00    -0.274 OA
BRANCH  19  24
ATOM     24  C   PRO A  16       4.334   1.188  22.473  0.00  0.00    +0.234 C 
ATOM     25  N   GLU A  17       5.164   1.370  23.556  0.00  0.00    -0.302 N 
ATOM     26  H   GLU A  17       5.468   2.329  23.742  0.00  0.00    +0.150 HD
ATOM     27  O   PRO A  16       3.627   0.180  22.402  0.00  0.00    -0.274 OA
BRANCH  25  28
ATOM     28  CA  GLU A  17       5.286   0.357  24.620  0.00  0.00    +0.159 C 
BRANCH  28  29
ATOM     29  C   GLU A  17       3.963   0.232  25.439  0.00  0.00    +0.234 C 
ATOM     30  N   GLU A  18       3.987   0.722  26.729  0.00  0.00    -0.302 N 
ATOM     31  H   GLU A  18       4.883   1.025  27.118  0.00  0.00    +0.150 HD
ATOM     32  O   GLU A  17       2.957  -0.292  24.956  0.00  0.00    -0.274 OA
BRANCH  30  33
ATOM     33  CA  GLU A  18       2.821   0.701  27.654  0.00  0.00    +0.159 C 
BRANCH  33  34
ATOM     34  C   GLU A  18       1.959  -0.561  27.338  0.00  0.00    +0.234 C 
ATOM     35  N   TYR A  19       2.327  -1.363  26.268  0.00  0.00    -0.302 N 
ATOM     36  H   TYR A  19       3.116  -1.116  25.678  0.00  0.00    +0.150 HD
ATOM     37  O   GLU A  18       1.020  -0.866  28.080  0.00  0.00    -0.274 OA
BRANCH  35  38
ATOM     38  CA  TYR A  19       1.763  -2.721  26.062  0.00  0.00    +0.163 C 
BRANCH  38  39
ATOM     39  C   TYR A  19       1.570  -3.532  27.386  0.00  0.00    +0.234 C 
ATOM     40  N   LEU A  20       2.744  -3.993  27.994  0.00  0.00    -0.301 N 
ATOM     41  H   LEU A  20       3.510  -4.215  27.371  0.00  0.00    +0.150 HD
ATOM     42  O   TYR A  19       0.454  -3.746  27.855  0.00  0.00    -0.274 OA
BRANCH  40  43
ATOM     43  CA  LEU A  20       2.710  -4.727  29.300  0.00  0.00    +0.182 C 
BRANCH  43  44
ATOM     44  C   LEU A  20       1.547  -5.754  29.374  0.00  0.00    +0.325 C 
ATOM     45  OXT LEU A  20       0.486  -5.673  28.762  0.00  0.00    -0.249 OA
BRANCH  44  46
ATOM     46  O   LEU A  20       1.823  -6.826  30.182  0.00  0.00    -0.479 OA
ATOM     47  H   LEU A  20       1.629  -6.614  31.106  0.00  0.00    +0.295 HD
ENDBRANCH  44  46
ENDBRANCH  43  44
BRANCH  43  48
ATOM     48  CB  LEU A  20       2.670  -3.731  30.472  0.00  0.00    +0.036 C 
BRANCH  48  49
ATOM     49  CG  LEU A  20       2.615  -2.229  30.100  0.00  0.00    -0.015 C 
ATOM     50  CD2 LEU A  20       2.225  -2.040  28.629  0.00  0.00    +0.007 C 
ATOM     51  CD1 LEU A  20       3.920  -1.482  30.380  0.00  0.00    +0.007 C 
ENDBRANCH  48  49
ENDBRANCH  43  48
ENDBRANCH  40  43
ENDBRANCH  38  39
BRANCH  38  52
ATOM     52  CB  TYR A  19       2.530  -3.574  25.032  0.00  0.00    +0.067 C 
BRANCH  52  53
ATOM     53  CG  TYR A  19       1.811  -4.761  24.433  0.00  0.00    -0.045 A 
ATOM     54  CD2 TYR A  19       1.402  -5.820  25.255  0.00  0.00    +0.007 A 
ATOM     55  CE2 TYR A  19       0.940  -7.012  24.695  0.00  0.00    +0.045 A 
ATOM     56  CZ  TYR A  19       0.882  -7.146  23.314  0.00  0.00    +0.117 A 
ATOM     57  CE1 TYR A  19       1.208  -6.083  22.483  0.00  0.00    +0.045 A 
ATOM     58  CD1 TYR A  19       1.659  -4.887  23.045  0.00  0.00    +0.007 A 
BRANCH  56  59
ATOM     59  OH  TYR A  19       0.522  -8.358  22.803  0.00  0.00    -0.507 OA
ATOM     60  HH  TYR A  19      -0.395  -8.298  22.488  0.00  0.00    +0.292 HD
ENDBRANCH  56  59
ENDBRANCH  52  53
ENDBRANCH  38  52
ENDBRANCH  35  38
ENDBRANCH  33  34
BRANCH  33  61
ATOM     61  CB  GLU A  18       1.969   1.974  27.457  0.00  0.00    +0.043 C 
BRANCH  61  62
ATOM     62  CG  GLU A  18       2.771   3.258  27.309  0.00  0.00    +0.123 C 
BRANCH  62  63
ATOM     63  CD  GLU A  18       1.993   4.318  26.566  0.00  0.00    +0.305 C 
ATOM     64  OE2 GLU A  18       1.501   4.128  25.460  0.00  0.00    -0.251 OA
BRANCH  63  65
ATOM     65  OE1 GLU A  18       1.865   5.484  27.223  0.00  0.00    -0.481 OA
ATOM     66  HE1 GLU A  18       1.608   5.409  28.163  0.00  0.00    +0.295 HD
ENDBRANCH  63  65
ENDBRANCH  62  63
ENDBRANCH  61  62
ENDBRANCH  33  61
ENDBRANCH  30  33
ENDBRANCH  28  29
BRANCH  28  67
ATOM     67  CB  GLU A  17       6.457   0.732  25.554  0.00  0.00    +0.043 C 
BRANCH  67  68
ATOM     68  CG  GLU A  17       7.488  -0.395  25.691  0.00  0.00    +0.123 C 
BRANCH  68  69
ATOM     69  CD  GLU A  17       8.424  -0.211  26.859  0.00  0.00    +0.305 C 
ATOM     70  OE2 GLU A  17       8.861   0.875  27.212  0.00  0.00    -0.251 OA
BRANCH  69  71
ATOM     71  OE1 GLU A  17       8.803  -1.366  27.448  0.00  0.00    -0.481 OA
ATOM     72  HE1 GLU A  17       8.471  -1.475  28.359  0.00  0.00    +0.295 HD
ENDBRANCH  69  71
ENDBRANCH  68  69
ENDBRANCH  67  68
ENDBRANCH  28  67
ENDBRANCH  25  28
ENDBRANCH  19  24
ENDBRANCH  16  17
BRANCH  16  73
ATOM     73  CB  ILE A  15       4.865   7.040  21.436  0.00  0.00    +0.015 C 
ATOM     74  CG2 ILE A  15       5.943   6.869  20.337  0.00  0.00    +0.010 C 
BRANCH  73  76
ATOM     75  CD1 ILE A  15       2.966   5.660  20.416  0.00  0.00    +0.004 C 
ATOM     76  CG1 ILE A  15       3.483   7.041  20.771  0.00  0.00    +0.002 C 
ENDBRANCH  73  76
ENDBRANCH  16  73
ENDBRANCH  12  16
ENDBRANCH  11  14
BRANCH  11  77
ATOM     77  CB  GLU A  14       9.932   6.409  22.663  0.00  0.00    +0.043 C 
BRANCH  77  78
ATOM     78  CG  GLU A  14      10.828   5.459  21.860  0.00  0.00    +0.123 C 
BRANCH  78  79
ATOM     79  CD  GLU A  14      12.137   6.079  21.441  0.00  0.00    +0.305 C 
ATOM     80  OE2 GLU A  14      12.214   7.102  20.778  0.00  0.00    -0.251 OA
BRANCH  79  81
ATOM     81  OE1 GLU A  14      13.224   5.381  21.826  0.00  0.00    -0.481 OA
ATOM     82  HE1 GLU A  14      13.949   5.925  22.188  0.00  0.00    +0.295 HD
ENDBRANCH  79  81
ENDBRANCH  78  79
ENDBRANCH  77  78
ENDBRANCH  11  77
ENDBRANCH   7  11
ENDBRANCH   6   9
BRANCH   6  83
ATOM     83  CB  GLU A  13      12.395   2.509  24.091  0.00  0.00    +0.043 C 
BRANCH  83  84
ATOM     84  CG  GLU A  13      13.223   3.637  23.472  0.00  0.00    +0.123 C 
BRANCH  84  85
ATOM     85  CD  GLU A  13      13.156   3.624  21.969  0.00  0.00    +0.305 C 
ATOM     86  OE2 GLU A  13      14.100   3.387  21.231  0.00  0.00    -0.251 OA
BRANCH  85  87
ATOM     87  OE1 GLU A  13      11.913   3.894  21.511  0.00  0.00    -0.481 OA
ATOM     88  HE1 GLU A  13      11.896   4.551  20.783  0.00  0.00    +0.295 HD
ENDBRANCH  85  87
ENDBRANCH  84  85
ENDBRANCH  83  84
ENDBRANCH   6  83
ENDBRANCH   2   6
ENDBRANCH   1   4
BRANCH   1  89
ATOM     89  N   PHE A  12       7.626   0.832  26.886  0.00  0.00    -0.302 N 
ATOM     90  H   PHE A  12       8.185   0.027  27.148  0.00  0.00    +0.150 HD
ATOM     91  C   ASP A  11       6.501   1.126  27.621  0.00  0.00    +0.234 C 
ATOM     92  O   ASP A  11       5.635   1.913  27.242  0.00  0.00    -0.274 OA
BRANCH  91  93
ATOM     93  CA  ASP A  11       6.455   0.482  29.025  0.00  0.00    +0.169 C 
BRANCH  93  94
ATOM     94  N   ASP A  11       6.853  -0.920  28.889  0.00  0.00    -0.302 N 
ATOM     95  H   ASP A  11       7.594  -1.240  29.511  0.00  0.00    +0.150 HD
ATOM     96  C   GLY A  10       6.391  -1.714  27.877  0.00  0.00    +0.231 C 
ATOM     97  O   GLY A  10       5.612  -1.289  27.031  0.00  0.00    -0.274 OA
BRANCH  96  98
ATOM     98  CA  GLY A  10       6.977  -3.132  27.833  0.00  0.00    +0.200 C 
BRANCH  98  99
ATOM     99  N   GLY A  10       5.901  -4.111  27.745  0.00  0.00    -0.305 N 
ATOM    100  H   GLY A  10       4.968  -3.813  27.994  0.00  0.00    +0.149 HD
ATOM    101  C   ASN A   9       6.013  -5.450  27.536  0.00  0.00    +0.234 C 
ATOM    102  O   ASN A   9       5.001  -6.147  27.651  0.00  0.00    -0.274 OA
BRANCH 101 103
ATOM    103  CA  ASN A   9       7.379  -6.076  27.190  0.00  0.00    +0.168 C 
BRANCH 103 104
ATOM    104  N   ASN A   9       7.550  -6.147  25.745  0.00  0.00    -0.302 N 
ATOM    105  H   ASN A   9       8.372  -5.732  25.319  0.00  0.00    +0.150 HD
ATOM    106  C   GLY A   8       6.558  -6.696  24.957  0.00  0.00    +0.231 C 
ATOM    107  O   GLY A   8       5.538  -7.189  25.430  0.00  0.00    -0.274 OA
BRANCH 106 108
ATOM    108  CA  GLY A   8       6.837  -6.664  23.458  0.00  0.00    +0.200 C 
BRANCH 108 109
ATOM    109  N   GLY A   8       8.232  -6.961  23.169  0.00  0.00    -0.305 N 
ATOM    110  H   GLY A   8       8.943  -6.306  23.472  0.00  0.00    +0.149 HD
ATOM    111  C   GLY A   7       8.552  -7.954  22.261  0.00  0.00    +0.231 C 
ATOM    112  O   GLY A   7       7.701  -8.691  21.770  0.00  0.00    -0.274 OA
BRANCH 111 113
ATOM    113  CA  GLY A   7      10.053  -8.127  22.000  0.00  0.00    +0.200 C 
BRANCH 113 114
ATOM    114  N   GLY A   7      10.542  -7.126  21.067  0.00  0.00    -0.305 N 
ATOM    115  H   GLY A   7       9.943  -6.353  20.796  0.00  0.00    +0.149 HD
ATOM    116  C   GLY A   6      11.763  -7.254  20.437  0.00  0.00    +0.231 C 
ATOM    117  O   GLY A   6      12.463  -8.259  20.517  0.00  0.00    -0.274 OA
BRANCH 116 118
ATOM    118  CA  GLY A   6      12.130  -6.072  19.532  0.00  0.00    +0.200 C 
BRANCH 118 119
ATOM    119  N   GLY A   6      12.677  -4.961  20.288  0.00  0.00    -0.305 N 
ATOM    120  H   GLY A   6      12.426  -4.859  21.273  0.00  0.00    +0.149 HD
ATOM    121  C   GLY A   5      13.561  -4.067  19.736  0.00  0.00    +0.231 C 
ATOM    122  O   GLY A   5      13.913  -4.123  18.556  0.00  0.00    -0.274 OA
BRANCH 121 123
ATOM    123  CA  GLY A   5      14.051  -2.964  20.677  0.00  0.00    +0.200 C 
BRANCH 123 124
ATOM    124  N   GLY A   5      13.671  -3.230  22.050  0.00  0.00    -0.305 N 
ATOM    125  H   GLY A   5      14.187  -3.938  22.564  0.00  0.00    +0.149 HD
ATOM    126  C   PRO A   4      12.668  -2.496  22.636  0.00  0.00    +0.234 C 
ATOM    127  O   PRO A   4      12.163  -1.556  22.006  0.00  0.00    -0.274 OA
BRANCH 126 128
ATOM    128  CA  PRO A   4      12.306  -2.788  24.114  0.00  0.00    +0.162 C 
ATOM    129  N   PRO A   4      11.517  -4.039  24.155  0.00  0.00    -0.288 N 
ATOM    130  C   ARG A   3      10.226  -4.292  23.665  0.00  0.00    +0.237 C 
ATOM    131  O   ARG A   3       9.889  -5.460  23.442  0.00  0.00    -0.274 OA
ATOM    132  CD  PRO A   4      12.383  -5.160  24.529  0.00  0.00    +0.109 C 
ATOM    133  CG  PRO A   4      13.773  -4.567  24.753  0.00  0.00    +0.021 C 
ATOM    134  CB  PRO A   4      13.491  -3.098  25.034  0.00  0.00    +0.033 C 
BRANCH 130 135
ATOM    135  CA  ARG A   3       9.234  -3.093  23.380  0.00  0.00    +0.159 C 
BRANCH 135 136
ATOM    136  N   ARG A   3       7.771  -3.345  23.406  0.00  0.00    -0.302 N 
ATOM    137  H   ARG A   3       7.465  -4.254  23.078  0.00  0.00    +0.150 HD
ATOM    138  C   PRO A   2       6.780  -2.383  23.369  0.00  0.00    +0.234 C 
ATOM    139  O   PRO A   2       6.984  -1.184  23.550  0.00  0.00    -0.274 OA
BRANCH 138 140
ATOM    140  CA  PRO A   2       5.338  -2.910  23.070  0.00  0.00    +0.162 C 
ATOM    141  N   PRO A   2       5.187  -4.375  23.099  0.00  0.00    -0.289 N 
ATOM    142  C   PHE A   1       5.128  -5.316  22.100  0.00  0.00    +0.233 C 
ATOM    143  O   PHE A   1       5.037  -6.514  22.413  0.00  0.00    -0.274 OA
ATOM    144  CD  PRO A   2       4.853  -4.803  24.457  0.00  0.00    +0.108 C 
ATOM    145  CG  PRO A   2       4.692  -3.528  25.274  0.00  0.00    +0.021 C 
ATOM    146  CB  PRO A   2       4.413  -2.470  24.213  0.00  0.00    +0.033 C 
BRANCH 142 147
ATOM    147  CA  PHE A   1       5.252  -5.011  20.583  0.00  0.00    +0.142 C 
BRANCH 147 148
ATOM    148  N   PHE A   1       6.527  -5.577  20.070  0.00  0.00    -0.320 NA
ATOM    149  H1  PHE A   1       7.240  -5.357  20.773  0.00  0.00    +0.119 HD
ATOM    150  H2  PHE A   1       6.449  -6.596  20.108  0.00  0.00    +0.119 HD
ENDBRANCH 147 148
BRANCH 147 151
ATOM    151  CB  PHE A   1       4.991  -3.593  20.056  0.00  0.00    +0.063 C 
BRANCH 151 152
ATOM    152  CG  PHE A   1       5.933  -3.026  19.017  0.00  0.00    -0.045 A 
ATOM    153  CD2 PHE A   1       5.869  -3.375  17.660  0.00  0.00    +0.004 A 
ATOM    154  CE2 PHE A   1       6.844  -2.933  16.762  0.00  0.00    +0.000 A 
ATOM    155  CZ  PHE A   1       7.904  -2.146  17.207  0.00  0.00    +0.000 A 
ATOM    156  CE1 PHE A   1       7.981  -1.787  18.549  0.00  0.00    +0.000 A 
ATOM    157  CD1 PHE A   1       7.005  -2.225  19.446  0.00  0.00    +0.004 A 
ENDBRANCH 151 152
ENDBRANCH 147 151
ENDBRANCH 142 147
ENDBRANCH 138 140
ENDBRANCH 135 136
BRANCH 135 158
ATOM    158  CB  ARG A   3       9.580  -1.781  24.104  0.00  0.00    +0.035 C 
BRANCH 158 159
ATOM    159  CG  ARG A   3       8.595  -0.630  23.932  0.00  0.00    +0.039 C 
BRANCH 159 160
ATOM    160  CD  ARG A   3       7.994  -0.649  22.535  0.00  0.00    +0.196 C 
BRANCH 160 161
ATOM    161  NE  ARG A   3       9.040  -0.716  21.544  0.00  0.00    -0.276 N 
ATOM    162  HE  ARG A   3       9.597   0.121  21.418  0.00  0.00    +0.258 HD
ATOM    163  CZ  ARG A   3       9.458  -1.839  20.936  0.00  0.00    +0.376 C 
ATOM    164  NH2 ARG A   3       8.963  -3.016  21.051  0.00  0.00    -0.130 NA
ATOM    165  HH2 ARG A   3       8.186  -2.985  21.710  0.00  0.00    +0.306 HD
ATOM    166  NH1 ARG A   3      10.508  -1.639  20.123  0.00  0.00    -0.289 N 
ATOM    167 HH11 ARG A   3      10.643  -2.454  19.533  0.00  0.00    +0.255 HD
ATOM    168 HH12 ARG A   3      10.476  -0.787  19.583  0.00  0.00    +0.255 HD
ENDBRANCH 160 161
ENDBRANCH 159 160
ENDBRANCH 158 159
ENDBRANCH 135 158
ENDBRANCH 130 135
ENDBRANCH 126 128
ENDBRANCH 123 124
ENDBRANCH 121 123
ENDBRANCH 118 119
ENDBRANCH 116 118
ENDBRANCH 113 114
ENDBRANCH 111 113
ENDBRANCH 108 109
ENDBRANCH 106 108
ENDBRANCH 103 104
BRANCH 103 169
ATOM    169  CB  ASN A   9       8.512  -5.381  27.946  0.00  0.00    +0.127 C 
BRANCH 169 170
ATOM    170  CG  ASN A   9       9.570  -4.712  27.100  0.00  0.00    +0.213 C 
ATOM    171  OD1 ASN A   9      10.619  -5.264  26.786  0.00  0.00    -0.276 OA
ATOM    172  ND2 ASN A   9       9.362  -3.411  26.762  0.00  0.00    -0.329 N 
ATOM    173 HD21 ASN A   9      10.067  -3.001  26.162  0.00  0.00    +0.145 HD
ATOM    174 HD22 ASN A   9       8.422  -3.037  26.659  0.00  0.00    +0.145 HD
ENDBRANCH 169 170
ENDBRANCH 103 169
ENDBRANCH 101 103
ENDBRANCH  98  99
ENDBRANCH  96  98
ENDBRANCH  93  94
BRANCH  93 175
ATOM    175  CB  ASP A  11       7.244   1.239  30.089  0.00  0.00    +0.152 C 
BRANCH 175 176
ATOM    176  CG  ASP A  11       6.695   2.619  30.332  0.00  0.00    +0.307 C 
ATOM    177  OD2 ASP A  11       5.504   2.869  30.442  0.00  0.00    -0.251 OA
BRANCH 176 178
ATOM    178  OD1 ASP A  11       7.642   3.584  30.395  0.00  0.00    -0.481 OA
ATOM    179  HD1 ASP A  11       7.921   3.936  29.527  0.00  0.00    +0.295 HD
ENDBRANCH 176 178
ENDBRANCH 175 176
ENDBRANCH  93 175
ENDBRANCH  91  93
ENDBRANCH   1  89
BRANCH   1 180
ATOM    180  CB  PHE A  12       6.519   1.872  24.919  0.00  0.00    +0.067 C 
BRANCH 180 181
ATOM    181  CG  PHE A  12       6.254   3.341  25.183  0.00  0.00    -0.045 A 
ATOM    182  CD2 PHE A  12       5.248   4.022  24.484  0.00  0.00    +0.004 A 
ATOM    183  CE2 PHE A  12       4.871   5.309  24.872  0.00  0.00    +0.000 A 
ATOM    184  CZ  PHE A  12       5.489   5.921  25.961  0.00  0.00    +0.000 A 
ATOM    185  CE1 PHE A  12       6.533   5.278  26.620  0.00  0.00    +0.000 A 
ATOM    186  CD1 PHE A  12       6.935   4.011  26.209  0.00  0.00    +0.004 A 
ENDBRANCH 180 181
ENDBRANCH   1 180
TORSDOF 74
ENDMDL
MODEL 2
REMARK VINA RESULT:      61.4      2.537     10.918
REMARK  Name = 
REMARK  78 active torsions:
REMARK  status: ('A' for Active; 'I' for Inactive)
REMARK    1  A    between atoms: CD1_1  and  CG1_2
REMARK    2  A    between atoms: CG1_2  and  CB_3
REMARK    3  A    between atoms: CB_3  and  CG2_5
REMARK    4  A    between atoms: CB_3  and  CA_6
REMARK    5  A    between atoms: CA_6  and  N_8
REMARK    6  A    between atoms: CA_6  and  C_119
REMARK    7  A    between atoms: C_9  and  CA_11
REMARK    8  A    between atoms: CA_11  and  CB_13
REMARK    9  A    between atoms: CA_11  and  N_18
REMARK   10  A    between atoms: CB_13  and  CG_14
REMARK   11  A    between atoms: CG_14  and  CD_15
REMARK   12  A    between atoms: CD_15  and  OE1_16
REMARK   13  A    between atoms: C_19  and  CA_21
REMARK   14  A    between atoms: CA_21  and  CB_23
REMARK   15  A    between atoms: CA_21  and  N_28
REMARK   16  A    between atoms: CB_23  and  CG_24
REMARK   17  A    between atoms: CG_24  and  CD_25
REMARK   18  A    between atoms: CD_25  and  OE1_26
REMARK   19  A    between atoms: C_29  and  CA_31
REMARK   20  A    between atoms: CA_31  and  CB_33
REMARK   21  A    between atoms: CA_31  and  N_40
REMARK   22  A    between atoms: CB_33  and  CG_34
REMARK   23  A    between atoms: C_41  and  CA_43
REMARK   24  A    between atoms: CA_43  and  CB_45
REMARK   25  A    between atoms: CA_43  and  N_49
REMARK   26  A    between atoms: CB_45  and  CG_46
REMARK   27  A    between atoms: CG_46  and  OD1_47
REMARK   28  A    between atoms: C_50  and  CA_52
REMARK   29  A    between atoms: CA_52  and  N_53
REMARK   30  A    between atoms: C_54  and  CA_56
REMARK   31  A    between atoms: CA_56  and  CB_58
REMARK   32  A    between atoms: CA_56  and  N_62
REMARK   33  A    between atoms: CB_58  and  CG_59
REMARK   34  A    between atoms: C_63  and  CA_65
REMARK   35  A    between atoms: CA_65  and  N_66
REMARK   36  A    between atoms: C_67  and  CA_69
REMARK   37  A    between atoms: CA_69  and  N_70
REMARK   38  A    between atoms: C_71  and  CA_73
REMARK   39  A    between atoms: CA_73  and  N_74
REMARK   40  A    between atoms: C_75  and  CA_77
REMARK   41  A    between atoms: CA_77  and  N_78
REMARK   42  A    between atoms: C_79  and  CA_81
REMARK   43  A    between atoms: C_87  and  CA_89
REMARK   44  A    between atoms: CA_89  and  CB_91
REMARK   45  A    between atoms: CA_89  and  N_98
REMARK   46  A    between atoms: CB_91  and  CG_92
REMARK   47  A    between atoms: CG_92  and  CD_93
REMARK   48  A    between atoms: CD_93  and  NE_94
REMARK   49  A    between atoms: C_99  and  CA_101
REMARK   50  A    between atoms: C_107  and  CA_109
REMARK   51  A    between atoms: CA_109  and  N_111
REMARK   52  A    between atoms: CA_109  and  CB_112
REMARK   53  A    between atoms: CB_112  and  CG_113
REMARK   54  A    between atoms: CA_125  and  C_127
REMARK   55  A    between atoms: N_129  and  CA_130
REMARK   56  A    between atoms: CA_130  and  CB_132
REMARK   57  A    between atoms: CA_130  and  C_137
REMARK   58  A    between atoms: CB_132  and  CG_133
REMARK   59  A    between atoms: CG_133  and  CD_134
REMARK   60  A    between atoms: CD_134  and  OE1_135
REMARK   61  A    between atoms: N_139  and  CA_140
REMARK   62  A    between atoms: CA_140  and  CB_142
REMARK   63  A    between atoms: CA_140  and  C_147
REMARK   64  A    between atoms: CB_142  and  CG_143
REMARK   65  A    between atoms: CG_143  and  CD_144
REMARK   66  A    between atoms: CD_144  and  OE1_145
REMARK   67  A    between atoms: N_149  and  CA_150
REMARK   68  A    between atoms: CA_150  and  CB_152
REMARK   69  A    between atoms: CA_150  and  C_160
REMARK   70  A    between atoms: CB_152  and  CG_153
REMARK   71  A    between atoms: CZ_156  and  OH_157
REMARK   72  A    between atoms: N_162  and  CA_163
REMARK   73  A    between atoms: CA_163  and  CB_165
REMARK   74  A    between atoms: CA_163  and  C_169
REMARK   75  A    between atoms: CB_165  and  CG_166
REMARK   76  A    between atoms: CG_166  and  CD1_167
REMARK   77  A    between atoms: CG_166  and  CD2_168
REMARK   78  A    between atoms: C_169  and  O_170
REMARK                            x       y       z     vdW  Elec       q    Type
REMARK                         _______ _______ _______ _____ _____    ______ ____
ROOT
ATOM      1  CA  PHE A  12       2.534  -2.586  28.467  0.00  0.00    +0.163 C 
ENDROOT
BRANCH   1   4
ATOM      2  N   GLU A  13       3.438  -3.039  26.201  0.00  0.00    -0.302 N 
ATOM      3  H   GLU A  13       4.361  -2.991  26.620  0.00  0.00    +0.150 HD
ATOM      4  C   PHE A  12       2.299  -2.943  26.975  0.00  0.00    +0.234 C 
ATOM      5  O   PHE A  12       1.180  -3.132  26.500  0.00  0.00    -0.274 OA
BRANCH   2   6
ATOM      6  CA  GLU A  13       3.398  -3.374  24.774  0.00  0.00    +0.159 C 
BRANCH   6   9
ATOM      7  N   GLU A  14       5.085  -2.222  23.366  0.00  0.00    -0.302 N 
ATOM      8  H   GLU A  14       5.712  -2.975  23.631  0.00  0.00    +0.150 HD
ATOM      9  C   GLU A  13       3.845  -2.132  23.971  0.00  0.00    +0.234 C 
ATOM     10  O   GLU A  13       3.136  -1.128  23.883  0.00  0.00    -0.274 OA
BRANCH   7  11
ATOM     11  CA  GLU A  14       5.680  -1.079  22.649  0.00  0.00    +0.159 C 
BRANCH  11  14
ATOM     12  N   ILE A  15       6.346  -2.339  20.629  0.00  0.00    -0.302 N 
ATOM     13  H   ILE A  15       5.342  -2.411  20.532  0.00  0.00    +0.150 HD
ATOM     14  C   GLU A  14       6.794  -1.520  21.649  0.00  0.00    +0.234 C 
ATOM     15  O   GLU A  14       7.951  -1.122  21.752  0.00  0.00    -0.274 OA
BRANCH  12  16
ATOM     16  CA  ILE A  15       7.172  -2.924  19.548  0.00  0.00    +0.162 C 
BRANCH  16  17
ATOM     17  C   ILE A  15       8.080  -4.111  20.097  0.00  0.00    +0.237 C 
ATOM     18  N   PRO A  16       7.522  -5.244  20.660  0.00  0.00    -0.288 N 
ATOM     19  CA  PRO A  16       8.344  -6.149  21.498  0.00  0.00    +0.162 C 
ATOM     20  CB  PRO A  16       7.335  -6.923  22.365  0.00  0.00    +0.033 C 
ATOM     21  CG  PRO A  16       5.973  -6.300  22.117  0.00  0.00    +0.021 C 
ATOM     22  CD  PRO A  16       6.109  -5.501  20.841  0.00  0.00    +0.109 C 
ATOM     23  O   ILE A  15       9.313  -3.990  20.157  0.00  0.00    -0.274 OA
BRANCH  19  24
ATOM     24  C   PRO A  16       9.337  -7.153  20.821  0.00  0.00    +0.234 C 
ATOM     25  N   GLU A  17      10.585  -6.681  20.481  0.00  0.00    -0.302 N 
ATOM     26  H   GLU A  17      10.849  -5.771  20.866  0.00  0.00    +0.150 HD
ATOM     27  O   PRO A  16       9.090  -8.358  20.737  0.00  0.00    -0.274 OA
BRANCH  25  28
ATOM     28  CA  GLU A  17      11.634  -7.572  19.954  0.00  0.00    +0.159 C 
BRANCH  28  29
ATOM     29  C   GLU A  17      13.057  -7.075  20.357  0.00  0.00    +0.234 C 
ATOM     30  N   GLU A  18      13.294  -5.720  20.240  0.00  0.00    -0.302 N 
ATOM     31  H   GLU A  18      12.583  -5.138  19.790  0.00  0.00    +0.150 HD
ATOM     32  O   GLU A  17      13.924  -7.859  20.746  0.00  0.00    -0.274 OA
BRANCH  30  33
ATOM     33  CA  GLU A  18      14.583  -5.063  20.589  0.00  0.00    +0.159 C 
BRANCH  33  34
ATOM     34  C   GLU A  18      14.616  -4.821  22.130  0.00  0.00    +0.234 C 
ATOM     35  N   TYR A  19      13.580  -4.105  22.711  0.00  0.00    -0.302 N 
ATOM     36  H   TYR A  19      12.834  -3.712  22.143  0.00  0.00    +0.150 HD
ATOM     37  O   GLU A  18      15.512  -5.329  22.814  0.00  0.00    -0.274 OA
BRANCH  35  38
ATOM     38  CA  TYR A  19      13.363  -4.070  24.179  0.00  0.00    +0.163 C 
BRANCH  38  39
ATOM     39  C   TYR A  19      14.617  -4.497  25.013  0.00  0.00    +0.234 C 
ATOM     40  N   LEU A  20      14.367  -5.354  26.091  0.00  0.00    -0.301 N 
ATOM     41  H   LEU A  20      13.468  -5.247  26.545  0.00  0.00    +0.150 HD
ATOM     42  O   TYR A  19      15.746  -4.099  24.731  0.00  0.00    -0.274 OA
BRANCH  40  43
ATOM     43  CA  LEU A  20      15.482  -5.892  26.935  0.00  0.00    +0.182 C 
BRANCH  43  44
ATOM     44  C   LEU A  20      16.245  -4.774  27.697  0.00  0.00    +0.325 C 
ATOM     45  OXT LEU A  20      15.880  -3.605  27.797  0.00  0.00    -0.249 OA
BRANCH  44  46
ATOM     46  O   LEU A  20      17.386  -5.217  28.309  0.00  0.00    -0.479 OA
ATOM     47  H   LEU A  20      18.165  -4.789  27.927  0.00  0.00    +0.295 HD
ENDBRANCH  44  46
ENDBRANCH  43  44
BRANCH  43  48
ATOM     48  CB  LEU A  20      16.430  -6.752  26.081  0.00  0.00    +0.036 C 
BRANCH  48  49
ATOM     49  CG  LEU A  20      16.712  -8.185  26.596  0.00  0.00    -0.015 C 
ATOM     50  CD2 LEU A  20      15.806  -9.208  25.901  0.00  0.00    +0.007 C 
ATOM     51  CD1 LEU A  20      16.573  -8.329  28.112  0.00  0.00    +0.007 C 
ENDBRANCH  48  49
ENDBRANCH  43  48
ENDBRANCH  40  43
ENDBRANCH  38  39
BRANCH  38  52
ATOM     52  CB  TYR A  19      12.125  -4.855  24.654  0.00  0.00    +0.067 C 
BRANCH  52  53
ATOM     53  CG  TYR A  19      10.766  -4.256  24.369  0.00  0.00    -0.045 A 
ATOM     54  CD2 TYR A  19       9.836  -4.104  25.407  0.00  0.00    +0.007 A 
ATOM     55  CE2 TYR A  19       8.512  -3.763  25.125  0.00  0.00    +0.045 A 
ATOM     56  CZ  TYR A  19       8.117  -3.570  23.808  0.00  0.00    +0.117 A 
ATOM     57  CE1 TYR A  19       9.039  -3.639  22.772  0.00  0.00    +0.045 A 
ATOM     58  CD1 TYR A  19      10.365  -3.968  23.057  0.00  0.00    +0.007 A 
BRANCH  56  59
ATOM     59  OH  TYR A  19       6.796  -3.338  23.564  0.00  0.00    -0.507 OA
ATOM     60  HH  TYR A  19       6.443  -4.081  23.048  0.00  0.00    +0.292 HD
ENDBRANCH  56  59
ENDBRANCH  52  53
ENDBRANCH  38  52
ENDBRANCH  35  38
ENDBRANCH  33  34
BRANCH  33  61
ATOM     61  CB  GLU A  18      14.704  -3.713  19.849  0.00  0.00    +0.043 C 
BRANCH  61  62
ATOM     62  CG  GLU A  18      16.084  -3.076  19.910  0.00  0.00    +0.123 C 
BRANCH  62  63
ATOM     63  CD  GLU A  18      16.092  -1.702  19.283  0.00  0.00    +0.305 C 
ATOM     64  OE2 GLU A  18      15.079  -1.024  19.160  0.00  0.00    -0.251 OA
BRANCH  63  65
ATOM     65  OE1 GLU A  18      17.303  -1.271  18.889  0.00  0.00    -0.481 OA
ATOM     66  HE1 GLU A  18      17.401  -0.301  18.823  0.00  0.00    +0.295 HD
ENDBRANCH  63  65
ENDBRANCH  62  63
ENDBRANCH  61  62
ENDBRANCH  33  61
ENDBRANCH  30  33
ENDBRANCH  28  29
BRANCH  28  67
ATOM     67  CB  GLU A  17      11.514  -7.652  18.416  0.00  0.00    +0.043 C 
BRANCH  67  68
ATOM     68  CG  GLU A  17      10.574  -8.773  17.954  0.00  0.00    +0.123 C 
BRANCH  68  69
ATOM     69  CD  GLU A  17      10.276  -9.786  19.031  0.00  0.00    +0.305 C 
ATOM     70  OE2 GLU A  17      10.701  -9.703  20.174  0.00  0.00    -0.251 OA
BRANCH  69  71
ATOM     71  OE1 GLU A  17       9.551 -10.843  18.606  0.00  0.00    -0.481 OA
ATOM     72  HE1 GLU A  17       8.690 -10.941  19.055  0.00  0.00    +0.295 HD
ENDBRANCH  69  71
ENDBRANCH  68  69
ENDBRANCH  67  68
ENDBRANCH  28  67
ENDBRANCH  25  28
ENDBRANCH  19  24
ENDBRANCH  16  17
BRANCH  16  73
ATOM     73  CB  ILE A  15       7.669  -1.870  18.500  0.00  0.00    +0.015 C 
ATOM     74  CG2 ILE A  15       7.929  -0.507  19.187  0.00  0.00    +0.010 C 
BRANCH  73  76
ATOM     75  CD1 ILE A  15       9.110  -1.273  16.470  0.00  0.00    +0.004 C 
ATOM     76  CG1 ILE A  15       8.885  -2.221  17.633  0.00  0.00    +0.002 C 
ENDBRANCH  73  76
ENDBRANCH  16  73
ENDBRANCH  12  16
ENDBRANCH  11  14
BRANCH  11  77
ATOM     77  CB  GLU A  14       6.190  -0.012  23.646  0.00  0.00    +0.043 C 
BRANCH  77  78
ATOM     78  CG  GLU A  14       6.189   1.399  23.046  0.00  0.00    +0.123 C 
BRANCH  78  79
ATOM     79  CD  GLU A  14       5.509   1.479  21.703  0.00  0.00    +0.305 C 
ATOM     80  OE2 GLU A  14       4.300   1.385  21.555  0.00  0.00    -0.251 OA
BRANCH  79  81
ATOM     81  OE1 GLU A  14       6.357   1.624  20.664  0.00  0.00    -0.481 OA
ATOM     82  HE1 GLU A  14       7.054   2.294  20.799  0.00  0.00    +0.295 HD
ENDBRANCH  79  81
ENDBRANCH  78  79
ENDBRANCH  77  78
ENDBRANCH  11  77
ENDBRANCH   7  11
ENDBRANCH   6   9
BRANCH   6  83
ATOM     83  CB  GLU A  13       1.989  -3.802  24.356  0.00  0.00    +0.043 C 
BRANCH  83  84
ATOM     84  CG  GLU A  13       1.538  -5.081  25.064  0.00  0.00    +0.123 C 
BRANCH  84  85
ATOM     85  CD  GLU A  13       2.604  -6.142  25.037  0.00  0.00    +0.305 C 
ATOM     86  OE2 GLU A  13       2.468  -7.279  25.462  0.00  0.00    -0.251 OA
BRANCH  85  87
ATOM     87  OE1 GLU A  13       3.749  -5.701  24.470  0.00  0.00    -0.481 OA
ATOM     88  HE1 GLU A  13       3.847  -5.958  23.529  0.00  0.00    +0.295 HD
ENDBRANCH  85  87
ENDBRANCH  84  85
ENDBRANCH  83  84
ENDBRANCH   6  83
ENDBRANCH   2   6
ENDBRANCH   1   4
BRANCH   1  89
ATOM     89  N   PHE A  12       2.468  -1.132  28.691  0.00  0.00    -0.302 N 
ATOM     90  H   PHE A  12       1.586  -0.679  28.476  0.00  0.00    +0.150 HD
ATOM     91  C   ASP A  11       3.596  -0.358  28.827  0.00  0.00    +0.234 C 
ATOM     92  O   ASP A  11       4.735  -0.822  28.836  0.00  0.00    -0.274 OA
BRANCH  91  93
ATOM     93  CA  ASP A  11       3.328   1.142  29.087  0.00  0.00    +0.169 C 
BRANCH  93  94
ATOM     94  N   ASP A  11       2.712   1.703  27.883  0.00  0.00    -0.302 N 
ATOM     95  H   ASP A  11       3.000   1.291  26.997  0.00  0.00    +0.150 HD
ATOM     96  C   GLY A  10       1.932   2.826  27.919  0.00  0.00    +0.231 C 
ATOM     97  O   GLY A  10       1.705   3.418  28.968  0.00  0.00    -0.274 OA
BRANCH  96  98
ATOM     98  CA  GLY A  10       1.439   3.327  26.555  0.00  0.00    +0.200 C 
BRANCH  98  99
ATOM     99  N   GLY A  10       1.163   2.195  25.680  0.00  0.00    -0.305 N 
ATOM    100  H   GLY A  10       1.382   1.269  26.021  0.00  0.00    +0.149 HD
ATOM    101  C   ASN A   9       0.804   2.227  24.369  0.00  0.00    +0.234 C 
ATOM    102  O   ASN A   9       0.767   1.162  23.746  0.00  0.00    -0.274 OA
BRANCH 101 103
ATOM    103  CA  ASN A   9       0.479   3.567  23.680  0.00  0.00    +0.168 C 
BRANCH 103 104
ATOM    104  N   ASN A   9       0.548   4.659  24.642  0.00  0.00    -0.302 N 
ATOM    105  H   ASN A   9       0.368   4.473  25.623  0.00  0.00    +0.150 HD
ATOM    106  C   GLY A   8       0.771   5.951  24.207  0.00  0.00    +0.231 C 
ATOM    107  O   GLY A   8       0.972   6.223  23.027  0.00  0.00    -0.274 OA
BRANCH 106 108
ATOM    108  CA  GLY A   8       0.770   7.008  25.306  0.00  0.00    +0.200 C 
BRANCH 108 109
ATOM    109  N   GLY A   8       1.921   6.865  26.185  0.00  0.00    -0.305 N 
ATOM    110  H   GLY A   8       2.809   7.255  25.892  0.00  0.00    +0.149 HD
ATOM    111  C   GLY A   7       1.874   5.978  27.245  0.00  0.00    +0.231 C 
ATOM    112  O   GLY A   7       0.845   5.384  27.556  0.00  0.00    -0.274 OA
BRANCH 111 113
ATOM    113  CA  GLY A   7       3.171   5.877  28.057  0.00  0.00    +0.200 C 
BRANCH 113 114
ATOM    114  N   GLY A   7       4.171   5.095  27.351  0.00  0.00    -0.305 N 
ATOM    115  H   GLY A   7       4.824   4.520  27.874  0.00  0.00    +0.149 HD
ATOM    116  C   GLY A   6       4.345   5.198  25.985  0.00  0.00    +0.231 C 
ATOM    117  O   GLY A   6       3.766   6.028  25.292  0.00  0.00    -0.274 OA
BRANCH 116 118
ATOM    118  CA  GLY A   6       5.410   4.254  25.415  0.00  0.00    +0.200 C 
BRANCH 118 119
ATOM    119  N   GLY A   6       6.523   4.077  26.329  0.00  0.00    -0.305 N 
ATOM    120  H   GLY A   6       7.016   3.182  26.344  0.00  0.00    +0.149 HD
ATOM    121  C   GLY A   5       6.967   5.089  27.143  0.00  0.00    +0.231 C 
ATOM    122  O   GLY A   5       6.427   6.196  27.182  0.00  0.00    -0.274 OA
BRANCH 121 123
ATOM    123  CA  GLY A   5       8.160   4.738  28.034  0.00  0.00    +0.200 C 
BRANCH 123 124
ATOM    124  N   GLY A   5       8.508   3.335  27.927  0.00  0.00    -0.305 N 
ATOM    125  H   GLY A   5       9.377   3.088  27.461  0.00  0.00    +0.149 HD
ATOM    126  C   PRO A   4       7.694   2.382  28.491  0.00  0.00    +0.234 C 
ATOM    127  O   PRO A   4       6.717   2.746  29.160  0.00  0.00    -0.274 OA
BRANCH 126 128
ATOM    128  CA  PRO A   4       8.110   0.895  28.380  0.00  0.00    +0.162 C 
ATOM    129  N   PRO A   4       9.544   0.844  28.022  0.00  0.00    -0.288 N 
ATOM    130  C   ARG A   3      10.177   1.232  26.831  0.00  0.00    +0.237 C 
ATOM    131  O   ARG A   3      11.388   1.479  26.849  0.00  0.00    -0.274 OA
ATOM    132  CD  PRO A   4      10.347   0.599  29.223  0.00  0.00    +0.109 C 
ATOM    133  CG  PRO A   4       9.356   0.468  30.378  0.00  0.00    +0.021 C 
ATOM    134  CB  PRO A   4       8.053   0.095  29.687  0.00  0.00    +0.033 C 
BRANCH 130 135
ATOM    135  CA  ARG A   3       9.341   1.374  25.495  0.00  0.00    +0.159 C 
BRANCH 135 136
ATOM    136  N   ARG A   3       8.043   0.663  25.377  0.00  0.00    -0.302 N 
ATOM    137  H   ARG A   3       7.275   1.034  25.925  0.00  0.00    +0.150 HD
ATOM    138  C   PRO A   2       7.870  -0.658  25.010  0.00  0.00    +0.234 C 
ATOM    139  O   PRO A   2       8.753  -1.347  24.503  0.00  0.00    -0.274 OA
BRANCH 138 140
ATOM    140  CA  PRO A   2       6.451  -1.255  25.284  0.00  0.00    +0.162 C 
ATOM    141  N   PRO A   2       6.281  -1.887  26.604  0.00  0.00    -0.289 N 
ATOM    142  C   PHE A   1       6.292  -3.201  27.005  0.00  0.00    +0.233 C 
ATOM    143  O   PHE A   1       6.162  -3.457  28.213  0.00  0.00    -0.274 OA
ATOM    144  CD  PRO A   2       5.833  -0.884  27.570  0.00  0.00    +0.108 C 
ATOM    145  CG  PRO A   2       5.621   0.399  26.778  0.00  0.00    +0.021 C 
ATOM    146  CB  PRO A   2       5.442  -0.101  25.350  0.00  0.00    +0.033 C 
BRANCH 142 147
ATOM    147  CA  PHE A   1       6.542  -4.414  26.071  0.00  0.00    +0.142 C 
BRANCH 147 148
ATOM    148  N   PHE A   1       5.351  -4.626  25.208  0.00  0.00    -0.320 NA
ATOM    149  H1  PHE A   1       5.701  -4.681  24.246  0.00  0.00    +0.119 HD
ATOM    150  H2  PHE A   1       4.997  -5.567  25.396  0.00  0.00    +0.119 HD
ENDBRANCH 147 148
BRANCH 147 151
ATOM    151  CB  PHE A   1       7.087  -5.731  26.643  0.00  0.00    +0.063 C 
BRANCH 151 152
ATOM    152  CG  PHE A   1       6.631  -6.161  28.019  0.00  0.00    -0.045 A 
ATOM    153  CD2 PHE A   1       6.820  -7.461  28.511  0.00  0.00    +0.004 A 
ATOM    154  CE2 PHE A   1       6.261  -7.851  29.732  0.00  0.00    +0.000 A 
ATOM    155  CZ  PHE A   1       5.496  -6.953  30.473  0.00  0.00    +0.000 A 
ATOM    156  CE1 PHE A   1       5.303  -5.659  30.002  0.00  0.00    +0.000 A 
ATOM    157  CD1 PHE A   1       5.864  -5.267  28.784  0.00  0.00    +0.004 A 
ENDBRANCH 151 152
ENDBRANCH 147 151
ENDBRANCH 142 147
ENDBRANCH 138 140
ENDBRANCH 135 136
BRANCH 135 158
ATOM    158  CB  ARG A   3       9.236   2.807  24.947  0.00  0.00    +0.035 C 
BRANCH 158 159
ATOM    159  CG  ARG A   3       9.223   2.954  23.429  0.00  0.00    +0.039 C 
BRANCH 159 160
ATOM    160  CD  ARG A   3      10.642   3.064  22.894  0.00  0.00    +0.196 C 
BRANCH 160 161
ATOM    161  NE  ARG A   3      11.442   3.885  23.769  0.00  0.00    -0.276 N 
ATOM    162  HE  ARG A   3      11.683   3.484  24.668  0.00  0.00    +0.258 HD
ATOM    163  CZ  ARG A   3      12.051   5.029  23.413  0.00  0.00    +0.376 C 
ATOM    164  NH2 ARG A   3      11.967   5.637  22.288  0.00  0.00    -0.130 NA
ATOM    165  HH2 ARG A   3      11.364   5.100  21.666  0.00  0.00    +0.306 HD
ATOM    166  NH1 ARG A   3      12.809   5.549  24.393  0.00  0.00    -0.289 N 
ATOM    167 HH11 ARG A   3      13.064   6.503  24.156  0.00  0.00    +0.255 HD
ATOM    168 HH12 ARG A   3      12.414   5.486  25.320  0.00  0.00    +0.255 HD
ENDBRANCH 160 161
ENDBRANCH 159 160
ENDBRANCH 158 159
ENDBRANCH 135 158
ENDBRANCH 130 135
ENDBRANCH 126 128
ENDBRANCH 123 124
ENDBRANCH 121 123
ENDBRANCH 118 119
ENDBRANCH 116 118
ENDBRANCH 113 114
ENDBRANCH 111 113
ENDBRANCH 108 109
ENDBRANCH 106 108
ENDBRANCH 103 104
BRANCH 103 169
ATOM    169  CB  ASN A   9       1.322   3.757  22.419  0.00  0.00    +0.127 C 
BRANCH 169 170
ATOM    170  CG  ASN A   9       1.881   2.501  21.792  0.00  0.00    +0.213 C 
ATOM    171  OD1 ASN A   9       1.919   2.323  20.579  0.00  0.00    -0.276 OA
ATOM    172  ND2 ASN A   9       2.269   1.507  22.635  0.00  0.00    -0.329 N 
ATOM    173 HD21 ASN A   9       2.676   0.694  22.189  0.00  0.00    +0.145 HD
ATOM    174 HD22 ASN A   9       2.606   1.712  23.572  0.00  0.00    +0.145 HD
ENDBRANCH 169 170
ENDBRANCH 103 169
ENDBRANCH 101 103
ENDBRANCH  98  99
ENDBRANCH  96  98
ENDBRANCH  93  94
BRANCH  93 175
ATOM    175  CB  ASP A  11       2.542   1.427  30.363  0.00  0.00    +0.152 C 
BRANCH 175 176
ATOM    176  CG  ASP A  11       1.767   2.714  30.279  0.00  0.00    +0.307 C 
ATOM    177  OD2 ASP A  11       2.262   3.819  30.433  0.00  0.00    -0.251 OA
BRANCH 176 178
ATOM    178  OD1 ASP A  11       0.446   2.544  30.039  0.00  0.00    -0.481 OA
ATOM    179  HD1 ASP A  11      -0.074   2.259  30.816  0.00  0.00    +0.295 HD
ENDBRANCH 176 178
ENDBRANCH 175 176
ENDBRANCH  93 175
ENDBRANCH  91  93
ENDBRANCH   1  89
BRANCH   1 180
ATOM    180  CB  PHE A  12       1.552  -3.331  29.406  0.00  0.00    +0.067 C 
BRANCH 180 181
ATOM    181  CG  PHE A  12       1.908  -4.793  29.589  0.00  0.00    -0.045 A 
ATOM    182  CD2 PHE A  12       1.066  -5.647  30.313  0.00  0.00    +0.004 A 
ATOM    183  CE2 PHE A  12       1.289  -7.025  30.305  0.00  0.00    +0.000 A 
ATOM    184  CZ  PHE A  12       2.347  -7.559  29.571  0.00  0.00    +0.000 A 
ATOM    185  CE1 PHE A  12       3.226  -6.713  28.902  0.00  0.00    +0.000 A 
ATOM    186  CD1 PHE A  12       3.027  -5.336  28.941  0.00  0.00    +0.004 A 
ENDBRANCH 180 181
ENDBRANCH   1 180
TORSDOF 74
ENDMDL
