MODEL 1
REMARK VINA RESULT:      -5.4      0.000      0.000
REMARK  Name = 
REMARK  13 active torsions:
REMARK  status: ('A' for Active; 'I' for Inactive)
REMARK    1  A    between atoms: C_2  and  C_3
REMARK    2  A    between atoms: C_3  and  O_4
REMARK    3  A    between atoms: C_6  and  S_8
REMARK    4  A    between atoms: S_8  and  C_9
REMARK    5  A    between atoms: C_9  and  C_10
REMARK    6  A    between atoms: C_10  and  C_11
REMARK    7  A    between atoms: C_11  and  C_12
REMARK    8  A    between atoms: C_12  and  C_13
REMARK    9  A    between atoms: C_13  and  C_14
REMARK   10  A    between atoms: C_14  and  C_15
REMARK   11  A    between atoms: C_16  and  O_18
REMARK   12  A    between atoms: C_19  and  O_21
REMARK   13  A    between atoms: C_22  and  O_24
REMARK                            x       y       z     vdW  Elec       q    Type
REMARK                         _______ _______ _______ _____ _____    ______ ____
ROOT
ATOM      1  C   UNL     1       6.594  -4.745  25.626  0.00  0.00    +0.176 C 
ATOM      2  C   UNL     1       7.606  -4.756  26.786  0.00  0.00    +0.176 C 
ATOM      3  C   UNL     1       8.871  -3.949  26.459  0.00  0.00    +0.177 C 
ATOM      4  C   UNL     1       9.459  -4.398  25.111  0.00  0.00    +0.184 C 
ATOM      5  C   UNL     1       8.400  -4.403  23.986  0.00  0.00    +0.207 C 
ATOM      6  O   UNL     1       7.182  -5.054  24.349  0.00  0.00    -0.355 OA
ENDROOT
BRANCH   2   7
ATOM      7  O   UNL     1       7.951  -6.121  27.087  0.00  0.00    -0.386 OA
ATOM      8  H   UNL     1       8.068  -6.586  26.228  0.00  0.00    +0.210 HD
ENDBRANCH   2   7
BRANCH   3   9
ATOM      9  O   UNL     1       8.614  -2.548  26.526  0.00  0.00    -0.386 OA
ATOM     10  H   UNL     1       9.351  -2.099  26.983  0.00  0.00    +0.210 HD
ENDBRANCH   3   9
BRANCH   4  11
ATOM     11  O   UNL     1       9.976  -5.737  25.280  0.00  0.00    -0.386 OA
ATOM     12  H   UNL     1      10.673  -5.869  24.610  0.00  0.00    +0.210 HD
ENDBRANCH   4  11
BRANCH   1  13
ATOM     13  C   UNL     1       5.736  -3.464  25.601  0.00  0.00    +0.190 C 
BRANCH  13  14
ATOM     14  O   UNL     1       5.621  -2.891  26.904  0.00  0.00    -0.392 OA
ATOM     15  H   UNL     1       6.409  -3.155  27.409  0.00  0.00    +0.210 HD
ENDBRANCH  13  14
ENDBRANCH   1  13
BRANCH   5  16
ATOM     16  S   UNL     1       8.161  -2.756  23.240  0.00  0.00    -0.127 S 
BRANCH  16  17
ATOM     17  C   UNL     1       9.897  -2.181  23.257  0.00  0.00    +0.072 C 
BRANCH  17  18
ATOM     18  C   UNL     1       9.939  -0.651  23.283  0.00  0.00    +0.011 C 
BRANCH  18  19
ATOM     19  C   UNL     1       9.760  -0.050  21.883  0.00  0.00    +0.001 C 
BRANCH  19  20
ATOM     20  C   UNL     1       9.812   1.481  21.927  0.00  0.00    +0.000 C 
BRANCH  20  21
ATOM     21  C   UNL     1      10.486   1.992  23.203  0.00  0.00    -0.000 C 
BRANCH  21  22
ATOM     22  C   UNL     1       9.675   3.113  23.853  0.00  0.00    -0.003 C 
ATOM     23  C   UNL     1       8.552   2.563  24.721  0.00  0.00    +0.004 C 
ENDBRANCH  21  22
ENDBRANCH  20  21
ENDBRANCH  19  20
ENDBRANCH  18  19
ENDBRANCH  17  18
ENDBRANCH  16  17
ENDBRANCH   5  16
TORSDOF 12
ENDMDL
MODEL 2
REMARK VINA RESULT:      -5.2      1.343      2.802
REMARK  Name = 
REMARK  13 active torsions:
REMARK  status: ('A' for Active; 'I' for Inactive)
REMARK    1  A    between atoms: C_2  and  C_3
REMARK    2  A    between atoms: C_3  and  O_4
REMARK    3  A    between atoms: C_6  and  S_8
REMARK    4  A    between atoms: S_8  and  C_9
REMARK    5  A    between atoms: C_9  and  C_10
REMARK    6  A    between atoms: C_10  and  C_11
REMARK    7  A    between atoms: C_11  and  C_12
REMARK    8  A    between atoms: C_12  and  C_13
REMARK    9  A    between atoms: C_13  and  C_14
REMARK   10  A    between atoms: C_14  and  C_15
REMARK   11  A    between atoms: C_16  and  O_18
REMARK   12  A    between atoms: C_19  and  O_21
REMARK   13  A    between atoms: C_22  and  O_24
REMARK                            x       y       z     vdW  Elec       q    Type
REMARK                         _______ _______ _______ _____ _____    ______ ____
ROOT
ATOM      1  C   UNL     1       8.391  -4.314  26.296  0.00  0.00    +0.176 C 
ATOM      2  C   UNL     1       7.297  -5.127  25.583  0.00  0.00    +0.176 C 
ATOM      3  C   UNL     1       7.152  -4.736  24.105  0.00  0.00    +0.177 C 
ATOM      4  C   UNL     1       6.989  -3.213  23.969  0.00  0.00    +0.184 C 
ATOM      5  C   UNL     1       8.089  -2.437  24.728  0.00  0.00    +0.207 C 
ATOM      6  O   UNL     1       8.293  -2.896  26.064  0.00  0.00    -0.355 OA
ENDROOT
BRANCH   2   7
ATOM      7  O   UNL     1       6.048  -4.930  26.274  0.00  0.00    -0.386 OA
ATOM      8  H   UNL     1       6.099  -5.440  27.113  0.00  0.00    +0.210 HD
ENDBRANCH   2   7
BRANCH   3   9
ATOM      9  O   UNL     1       8.228  -5.261  23.330  0.00  0.00    -0.386 OA
ATOM     10  H   UNL     1       8.909  -4.574  23.203  0.00  0.00    +0.210 HD
ENDBRANCH   3   9
BRANCH   4  11
ATOM     11  O   UNL     1       5.698  -2.858  24.515  0.00  0.00    -0.386 OA
ATOM     12  H   UNL     1       5.116  -3.636  24.421  0.00  0.00    +0.210 HD
ENDBRANCH   4  11
BRANCH   1  13
ATOM     13  C   UNL     1       9.806  -4.871  26.040  0.00  0.00    +0.190 C 
BRANCH  13  14
ATOM     14  O   UNL     1       9.755  -6.221  25.575  0.00  0.00    -0.392 OA
ATOM     15  H   UNL     1      10.622  -6.427  25.184  0.00  0.00    +0.210 HD
ENDBRANCH  13  14
ENDBRANCH   1  13
BRANCH   5  16
ATOM     16  S   UNL     1       9.627  -2.277  23.761  0.00  0.00    -0.127 S 
BRANCH  16  17
ATOM     17  C   UNL     1       8.909  -1.717  22.174  0.00  0.00    +0.072 C 
BRANCH  17  18
ATOM     18  C   UNL     1       9.788  -0.624  21.561  0.00  0.00    +0.011 C 
BRANCH  18  19
ATOM     19  C   UNL     1       9.078   0.736  21.540  0.00  0.00    +0.001 C 
BRANCH  19  20
ATOM     20  C   UNL     1       9.974   1.837  22.117  0.00  0.00    +0.000 C 
BRANCH  20  21
ATOM     21  C   UNL     1      10.429   1.513  23.542  0.00  0.00    -0.000 C 
BRANCH  21  22
ATOM     22  C   UNL     1       9.256   1.537  24.523  0.00  0.00    -0.003 C 
ATOM     23  C   UNL     1       8.750   2.953  24.759  0.00  0.00    +0.004 C 
ENDBRANCH  21  22
ENDBRANCH  20  21
ENDBRANCH  19  20
ENDBRANCH  18  19
ENDBRANCH  17  18
ENDBRANCH  16  17
ENDBRANCH   5  16
TORSDOF 12
ENDMDL
MODEL 3
REMARK VINA RESULT:      -5.2      1.838      3.375
REMARK  Name = 
REMARK  13 active torsions:
REMARK  status: ('A' for Active; 'I' for Inactive)
REMARK    1  A    between atoms: C_2  and  C_3
REMARK    2  A    between atoms: C_3  and  O_4
REMARK    3  A    between atoms: C_6  and  S_8
REMARK    4  A    between atoms: S_8  and  C_9
REMARK    5  A    between atoms: C_9  and  C_10
REMARK    6  A    between atoms: C_10  and  C_11
REMARK    7  A    between atoms: C_11  and  C_12
REMARK    8  A    between atoms: C_12  and  C_13
REMARK    9  A    between atoms: C_13  and  C_14
REMARK   10  A    between atoms: C_14  and  C_15
REMARK   11  A    between atoms: C_16  and  O_18
REMARK   12  A    between atoms: C_19  and  O_21
REMARK   13  A    between atoms: C_22  and  O_24
REMARK                            x       y       z     vdW  Elec       q    Type
REMARK                         _______ _______ _______ _____ _____    ______ ____
ROOT
ATOM      1  C   UNL     1       7.910  -5.000  25.409  0.00  0.00    +0.176 C 
ATOM      2  C   UNL     1       8.126  -4.923  23.887  0.00  0.00    +0.176 C 
ATOM      3  C   UNL     1       8.360  -3.485  23.405  0.00  0.00    +0.177 C 
ATOM      4  C   UNL     1       7.250  -2.558  23.926  0.00  0.00    +0.184 C 
ATOM      5  C   UNL     1       7.045  -2.693  25.452  0.00  0.00    +0.207 C 
ATOM      6  O   UNL     1       6.950  -4.045  25.899  0.00  0.00    -0.355 OA
ENDROOT
BRANCH   2   7
ATOM      7  O   UNL     1       6.977  -5.488  23.227  0.00  0.00    -0.386 OA
ATOM      8  H   UNL     1       6.897  -5.043  22.355  0.00  0.00    +0.210 HD
ENDBRANCH   2   7
BRANCH   3   9
ATOM      9  O   UNL     1       9.673  -3.040  23.743  0.00  0.00    -0.386 OA
ATOM     10  H   UNL     1       9.778  -3.031  24.713  0.00  0.00    +0.210 HD
ENDBRANCH   3   9
BRANCH   4  11
ATOM     11  O   UNL     1       6.023  -2.919  23.251  0.00  0.00    -0.386 OA
ATOM     12  H   UNL     1       5.867  -3.868  23.414  0.00  0.00    +0.210 HD
ENDBRANCH   4  11
BRANCH   1  13
ATOM     13  C   UNL     1       9.235  -4.982  26.197  0.00  0.00    +0.190 C 
BRANCH  13  14
ATOM     14  O   UNL     1      10.310  -5.508  25.417  0.00  0.00    -0.392 OA
ATOM     15  H   UNL     1      10.220  -5.149  24.518  0.00  0.00    +0.210 HD
ENDBRANCH  13  14
ENDBRANCH   1  13
BRANCH   5  16
ATOM     16  S   UNL     1       8.224  -1.682  26.408  0.00  0.00    -0.127 S 
BRANCH  16  17
ATOM     17  C   UNL     1       7.563  -0.023  26.014  0.00  0.00    +0.072 C 
BRANCH  17  18
ATOM     18  C   UNL     1       8.626   0.803  25.284  0.00  0.00    +0.011 C 
BRANCH  18  19
ATOM     19  C   UNL     1       9.974   0.073  25.224  0.00  0.00    +0.001 C 
BRANCH  19  20
ATOM     20  C   UNL     1      10.780   0.501  23.993  0.00  0.00    +0.000 C 
BRANCH  20  21
ATOM     21  C   UNL     1      10.235   1.790  23.374  0.00  0.00    -0.000 C 
BRANCH  21  22
ATOM     22  C   UNL     1       9.913   1.605  21.891  0.00  0.00    -0.003 C 
ATOM     23  C   UNL     1       9.526   0.168  21.574  0.00  0.00    +0.004 C 
ENDBRANCH  21  22
ENDBRANCH  20  21
ENDBRANCH  19  20
ENDBRANCH  18  19
ENDBRANCH  17  18
ENDBRANCH  16  17
ENDBRANCH   5  16
TORSDOF 12
ENDMDL
MODEL 4
REMARK VINA RESULT:      -5.1      3.382      6.859
REMARK  Name = 
REMARK  13 active torsions:
REMARK  status: ('A' for Active; 'I' for Inactive)
REMARK    1  A    between atoms: C_2  and  C_3
REMARK    2  A    between atoms: C_3  and  O_4
REMARK    3  A    between atoms: C_6  and  S_8
REMARK    4  A    between atoms: S_8  and  C_9
REMARK    5  A    between atoms: C_9  and  C_10
REMARK    6  A    between atoms: C_10  and  C_11
REMARK    7  A    between atoms: C_11  and  C_12
REMARK    8  A    between atoms: C_12  and  C_13
REMARK    9  A    between atoms: C_13  and  C_14
REMARK   10  A    between atoms: C_14  and  C_15
REMARK   11  A    between atoms: C_16  and  O_18
REMARK   12  A    between atoms: C_19  and  O_21
REMARK   13  A    between atoms: C_22  and  O_24
REMARK                            x       y       z     vdW  Elec       q    Type
REMARK                         _______ _______ _______ _____ _____    ______ ____
ROOT
ATOM      1  C   UNL     1       8.853   0.063  21.868  0.00  0.00    +0.176 C 
ATOM      2  C   UNL     1      10.045   0.991  22.165  0.00  0.00    +0.176 C 
ATOM      3  C   UNL     1      10.210   1.261  23.667  0.00  0.00    +0.177 C 
ATOM      4  C   UNL     1       8.880   1.737  24.274  0.00  0.00    +0.184 C 
ATOM      5  C   UNL     1       7.707   0.795  23.923  0.00  0.00    +0.207 C 
ATOM      6  O   UNL     1       7.640   0.457  22.538  0.00  0.00    -0.355 OA
ENDROOT
BRANCH   2   7
ATOM      7  O   UNL     1       9.856   2.229  21.455  0.00  0.00    -0.386 OA
ATOM      8  H   UNL     1       8.887   2.353  21.342  0.00  0.00    +0.210 HD
ENDBRANCH   2   7
BRANCH   3   9
ATOM      9  O   UNL     1      10.762   0.127  24.332  0.00  0.00    -0.386 OA
ATOM     10  H   UNL     1      10.930   0.343  25.269  0.00  0.00    +0.210 HD
ENDBRANCH   3   9
BRANCH   4  11
ATOM     11  O   UNL     1       8.602   3.055  23.748  0.00  0.00    -0.386 OA
ATOM     12  H   UNL     1       9.071   3.135  22.896  0.00  0.00    +0.210 HD
ENDBRANCH   4  11
BRANCH   1  13
ATOM     13  C   UNL     1       9.197  -1.426  22.069  0.00  0.00    +0.190 C 
BRANCH  13  14
ATOM     14  O   UNL     1      10.585  -1.674  21.840  0.00  0.00    -0.392 OA
ATOM     15  H   UNL     1      10.902  -2.247  22.559  0.00  0.00    +0.210 HD
ENDBRANCH  13  14
ENDBRANCH   1  13
BRANCH   5  16
ATOM     16  S   UNL     1       7.607  -0.645  25.038  0.00  0.00    -0.127 S 
BRANCH  16  17
ATOM     17  C   UNL     1       6.064  -1.393  24.401  0.00  0.00    +0.072 C 
BRANCH  17  18
ATOM     18  C   UNL     1       6.335  -2.823  23.926  0.00  0.00    +0.011 C 
BRANCH  18  19
ATOM     19  C   UNL     1       7.480  -3.478  24.710  0.00  0.00    +0.001 C 
BRANCH  19  20
ATOM     20  C   UNL     1       7.647  -4.950  24.319  0.00  0.00    +0.000 C 
BRANCH  20  21
ATOM     21  C   UNL     1       6.551  -5.413  23.357  0.00  0.00    -0.000 C 
BRANCH  21  22
ATOM     22  C   UNL     1       7.141  -5.971  22.062  0.00  0.00    -0.003 C 
ATOM     23  C   UNL     1       6.226  -5.719  20.872  0.00  0.00    +0.004 C 
ENDBRANCH  21  22
ENDBRANCH  20  21
ENDBRANCH  19  20
ENDBRANCH  18  19
ENDBRANCH  17  18
ENDBRANCH  16  17
ENDBRANCH   5  16
TORSDOF 12
ENDMDL
MODEL 5
REMARK VINA RESULT:      -5.1      2.037      2.799
REMARK  Name = 
REMARK  13 active torsions:
REMARK  status: ('A' for Active; 'I' for Inactive)
REMARK    1  A    between atoms: C_2  and  C_3
REMARK    2  A    between atoms: C_3  and  O_4
REMARK    3  A    between atoms: C_6  and  S_8
REMARK    4  A    between atoms: S_8  and  C_9
REMARK    5  A    between atoms: C_9  and  C_10
REMARK    6  A    between atoms: C_10  and  C_11
REMARK    7  A    between atoms: C_11  and  C_12
REMARK    8  A    between atoms: C_12  and  C_13
REMARK    9  A    between atoms: C_13  and  C_14
REMARK   10  A    between atoms: C_14  and  C_15
REMARK   11  A    between atoms: C_16  and  O_18
REMARK   12  A    between atoms: C_19  and  O_21
REMARK   13  A    between atoms: C_22  and  O_24
REMARK                            x       y       z     vdW  Elec       q    Type
REMARK                         _______ _______ _______ _____ _____    ______ ____
ROOT
ATOM      1  C   UNL     1       7.290  -3.686  22.341  0.00  0.00    +0.176 C 
ATOM      2  C   UNL     1       7.240  -4.884  23.306  0.00  0.00    +0.176 C 
ATOM      3  C   UNL     1       7.472  -4.465  24.764  0.00  0.00    +0.177 C 
ATOM      4  C   UNL     1       8.751  -3.620  24.881  0.00  0.00    +0.184 C 
ATOM      5  C   UNL     1       8.773  -2.450  23.872  0.00  0.00    +0.207 C 
ATOM      6  O   UNL     1       8.436  -2.837  22.540  0.00  0.00    -0.355 OA
ENDROOT
BRANCH   2   7
ATOM      7  O   UNL     1       8.232  -5.846  22.901  0.00  0.00    -0.386 OA
ATOM      8  H   UNL     1       7.823  -6.408  22.205  0.00  0.00    +0.210 HD
ENDBRANCH   2   7
BRANCH   3   9
ATOM      9  O   UNL     1       6.318  -3.821  25.300  0.00  0.00    -0.386 OA
ATOM     10  H   UNL     1       5.624  -3.765  24.617  0.00  0.00    +0.210 HD
ENDBRANCH   3   9
BRANCH   4  11
ATOM     11  O   UNL     1       9.877  -4.489  24.622  0.00  0.00    -0.386 OA
ATOM     12  H   UNL     1       9.614  -5.394  24.875  0.00  0.00    +0.210 HD
ENDBRANCH   4  11
BRANCH   1  13
ATOM     13  C   UNL     1       5.961  -2.904  22.298  0.00  0.00    +0.190 C 
BRANCH  13  14
ATOM     14  O   UNL     1       4.842  -3.771  22.491  0.00  0.00    -0.392 OA
ATOM     15  H   UNL     1       4.230  -3.324  23.101  0.00  0.00    +0.210 HD
ENDBRANCH  13  14
ENDBRANCH   1  13
BRANCH   5  16
ATOM     16  S   UNL     1       7.854  -0.993  24.470  0.00  0.00    -0.127 S 
BRANCH  16  17
ATOM     17  C   UNL     1       9.233  -0.093  25.268  0.00  0.00    +0.072 C 
BRANCH  17  18
ATOM     18  C   UNL     1      10.339   0.179  24.246  0.00  0.00    +0.011 C 
BRANCH  18  19
ATOM     19  C   UNL     1      10.158   1.538  23.557  0.00  0.00    +0.001 C 
BRANCH  19  20
ATOM     20  C   UNL     1      10.093   1.383  22.034  0.00  0.00    +0.000 C 
BRANCH  20  21
ATOM     21  C   UNL     1       8.651   1.315  21.528  0.00  0.00    -0.000 C 
BRANCH  21  22
ATOM     22  C   UNL     1       7.829   2.508  22.019  0.00  0.00    -0.003 C 
ATOM     23  C   UNL     1       6.470   2.073  22.551  0.00  0.00    +0.004 C 
ENDBRANCH  21  22
ENDBRANCH  20  21
ENDBRANCH  19  20
ENDBRANCH  18  19
ENDBRANCH  17  18
ENDBRANCH  16  17
ENDBRANCH   5  16
TORSDOF 12
ENDMDL
MODEL 6
REMARK VINA RESULT:      -5.1      3.619      6.937
REMARK  Name = 
REMARK  13 active torsions:
REMARK  status: ('A' for Active; 'I' for Inactive)
REMARK    1  A    between atoms: C_2  and  C_3
REMARK    2  A    between atoms: C_3  and  O_4
REMARK    3  A    between atoms: C_6  and  S_8
REMARK    4  A    between atoms: S_8  and  C_9
REMARK    5  A    between atoms: C_9  and  C_10
REMARK    6  A    between atoms: C_10  and  C_11
REMARK    7  A    between atoms: C_11  and  C_12
REMARK    8  A    between atoms: C_12  and  C_13
REMARK    9  A    between atoms: C_13  and  C_14
REMARK   10  A    between atoms: C_14  and  C_15
REMARK   11  A    between atoms: C_16  and  O_18
REMARK   12  A    between atoms: C_19  and  O_21
REMARK   13  A    between atoms: C_22  and  O_24
REMARK                            x       y       z     vdW  Elec       q    Type
REMARK                         _______ _______ _______ _____ _____    ______ ____
ROOT
ATOM      1  C   UNL     1       8.430   2.643  24.543  0.00  0.00    +0.176 C 
ATOM      2  C   UNL     1       7.895   2.986  23.142  0.00  0.00    +0.176 C 
ATOM      3  C   UNL     1       8.070   1.825  22.152  0.00  0.00    +0.177 C 
ATOM      4  C   UNL     1       9.525   1.328  22.162  0.00  0.00    +0.184 C 
ATOM      5  C   UNL     1      10.029   1.027  23.592  0.00  0.00    +0.207 C 
ATOM      6  O   UNL     1       9.751   2.069  24.527  0.00  0.00    -0.355 OA
ENDROOT
BRANCH   2   7
ATOM      7  O   UNL     1       8.580   4.157  22.659  0.00  0.00    -0.386 OA
ATOM      8  H   UNL     1       9.306   4.350  23.293  0.00  0.00    +0.210 HD
ENDBRANCH   2   7
BRANCH   3   9
ATOM      9  O   UNL     1       7.118   0.793  22.404  0.00  0.00    -0.386 OA
ATOM     10  H   UNL     1       6.343   1.165  22.866  0.00  0.00    +0.210 HD
ENDBRANCH   3   9
BRANCH   4  11
ATOM     11  O   UNL     1      10.347   2.363  21.578  0.00  0.00    -0.386 OA
ATOM     12  H   UNL     1      10.692   2.021  20.732  0.00  0.00    +0.210 HD
ENDBRANCH   4  11
BRANCH   1  13
ATOM     13  C   UNL     1       7.426   1.821  25.376  0.00  0.00    +0.190 C 
BRANCH  13  14
ATOM     14  O   UNL     1       7.937   1.545  26.681  0.00  0.00    -0.392 OA
ATOM     15  H   UNL     1       8.833   1.184  26.572  0.00  0.00    +0.210 HD
ENDBRANCH  13  14
ENDBRANCH   1  13
BRANCH   5  16
ATOM     16  S   UNL     1       9.544  -0.632  24.172  0.00  0.00    -0.127 S 
BRANCH  16  17
ATOM     17  C   UNL     1       9.840  -1.571  22.630  0.00  0.00    +0.072 C 
BRANCH  17  18
ATOM     18  C   UNL     1       8.574  -2.333  22.232  0.00  0.00    +0.011 C 
BRANCH  18  19
ATOM     19  C   UNL     1       7.773  -2.791  23.458  0.00  0.00    +0.001 C 
BRANCH  19  20
ATOM     20  C   UNL     1       8.095  -4.245  23.818  0.00  0.00    +0.000 C 
BRANCH  20  21
ATOM     21  C   UNL     1       7.001  -5.205  23.348  0.00  0.00    -0.000 C 
BRANCH  21  22
ATOM     22  C   UNL     1       7.336  -5.813  21.986  0.00  0.00    -0.003 C 
ATOM     23  C   UNL     1       6.182  -5.664  21.004  0.00  0.00    +0.004 C 
ENDBRANCH  21  22
ENDBRANCH  20  21
ENDBRANCH  19  20
ENDBRANCH  18  19
ENDBRANCH  17  18
ENDBRANCH  16  17
ENDBRANCH   5  16
TORSDOF 12
ENDMDL
MODEL 7
REMARK VINA RESULT:      -5.0      1.388      2.012
REMARK  Name = 
REMARK  13 active torsions:
REMARK  status: ('A' for Active; 'I' for Inactive)
REMARK    1  A    between atoms: C_2  and  C_3
REMARK    2  A    between atoms: C_3  and  O_4
REMARK    3  A    between atoms: C_6  and  S_8
REMARK    4  A    between atoms: S_8  and  C_9
REMARK    5  A    between atoms: C_9  and  C_10
REMARK    6  A    between atoms: C_10  and  C_11
REMARK    7  A    between atoms: C_11  and  C_12
REMARK    8  A    between atoms: C_12  and  C_13
REMARK    9  A    between atoms: C_13  and  C_14
REMARK   10  A    between atoms: C_14  and  C_15
REMARK   11  A    between atoms: C_16  and  O_18
REMARK   12  A    between atoms: C_19  and  O_21
REMARK   13  A    between atoms: C_22  and  O_24
REMARK                            x       y       z     vdW  Elec       q    Type
REMARK                         _______ _______ _______ _____ _____    ______ ____
ROOT
ATOM      1  C   UNL     1       5.629  -5.233  24.542  0.00  0.00    +0.176 C 
ATOM      2  C   UNL     1       5.799  -5.125  26.067  0.00  0.00    +0.176 C 
ATOM      3  C   UNL     1       6.979  -4.223  26.458  0.00  0.00    +0.177 C 
ATOM      4  C   UNL     1       8.253  -4.656  25.715  0.00  0.00    +0.184 C 
ATOM      5  C   UNL     1       8.026  -4.783  24.191  0.00  0.00    +0.207 C 
ATOM      6  O   UNL     1       6.856  -5.525  23.847  0.00  0.00    -0.355 OA
ENDROOT
BRANCH   2   7
ATOM      7  O   UNL     1       5.985  -6.448  26.606  0.00  0.00    -0.386 OA
ATOM      8  H   UNL     1       6.489  -6.350  27.445  0.00  0.00    +0.210 HD
ENDBRANCH   2   7
BRANCH   3   9
ATOM      9  O   UNL     1       6.653  -2.848  26.269  0.00  0.00    -0.386 OA
ATOM     10  H   UNL     1       5.997  -2.760  25.552  0.00  0.00    +0.210 HD
ENDBRANCH   3   9
BRANCH   4  11
ATOM     11  O   UNL     1       8.654  -5.942  26.241  0.00  0.00    -0.386 OA
ATOM     12  H   UNL     1       8.036  -6.170  26.961  0.00  0.00    +0.210 HD
ENDBRANCH   4  11
BRANCH   1  13
ATOM     13  C   UNL     1       4.869  -4.031  23.944  0.00  0.00    +0.190 C 
BRANCH  13  14
ATOM     14  O   UNL     1       4.325  -4.346  22.662  0.00  0.00    -0.392 OA
ATOM     15  H   UNL     1       5.048  -4.702  22.118  0.00  0.00    +0.210 HD
ENDBRANCH  13  14
ENDBRANCH   1  13
BRANCH   5  16
ATOM     16  S   UNL     1       8.164  -3.183  23.327  0.00  0.00    -0.127 S 
BRANCH  16  17
ATOM     17  C   UNL     1       9.705  -2.572  24.101  0.00  0.00    +0.072 C 
BRANCH  17  18
ATOM     18  C   UNL     1       9.575  -1.081  24.419  0.00  0.00    +0.011 C 
BRANCH  18  19
ATOM     19  C   UNL     1      10.601  -0.241  23.648  0.00  0.00    +0.001 C 
BRANCH  19  20
ATOM     20  C   UNL     1      10.788   1.136  24.295  0.00  0.00    +0.000 C 
BRANCH  20  21
ATOM     21  C   UNL     1      10.375   2.269  23.354  0.00  0.00    -0.000 C 
BRANCH  21  22
ATOM     22  C   UNL     1       9.892   1.731  22.007  0.00  0.00    -0.003 C 
ATOM     23  C   UNL     1       8.421   2.044  21.770  0.00  0.00    +0.004 C 
ENDBRANCH  21  22
ENDBRANCH  20  21
ENDBRANCH  19  20
ENDBRANCH  18  19
ENDBRANCH  17  18
ENDBRANCH  16  17
ENDBRANCH   5  16
TORSDOF 12
ENDMDL
MODEL 8
REMARK VINA RESULT:      -5.0      1.228      3.012
REMARK  Name = 
REMARK  13 active torsions:
REMARK  status: ('A' for Active; 'I' for Inactive)
REMARK    1  A    between atoms: C_2  and  C_3
REMARK    2  A    between atoms: C_3  and  O_4
REMARK    3  A    between atoms: C_6  and  S_8
REMARK    4  A    between atoms: S_8  and  C_9
REMARK    5  A    between atoms: C_9  and  C_10
REMARK    6  A    between atoms: C_10  and  C_11
REMARK    7  A    between atoms: C_11  and  C_12
REMARK    8  A    between atoms: C_12  and  C_13
REMARK    9  A    between atoms: C_13  and  C_14
REMARK   10  A    between atoms: C_14  and  C_15
REMARK   11  A    between atoms: C_16  and  O_18
REMARK   12  A    between atoms: C_19  and  O_21
REMARK   13  A    between atoms: C_22  and  O_24
REMARK                            x       y       z     vdW  Elec       q    Type
REMARK                         _______ _______ _______ _____ _____    ______ ____
ROOT
ATOM      1  C   UNL     1       8.869  -4.429  26.564  0.00  0.00    +0.176 C 
ATOM      2  C   UNL     1       7.612  -5.318  26.576  0.00  0.00    +0.176 C 
ATOM      3  C   UNL     1       6.545  -4.828  25.587  0.00  0.00    +0.177 C 
ATOM      4  C   UNL     1       6.257  -3.334  25.809  0.00  0.00    +0.184 C 
ATOM      5  C   UNL     1       7.549  -2.486  25.822  0.00  0.00    +0.207 C 
ATOM      6  O   UNL     1       8.577  -3.023  26.655  0.00  0.00    -0.355 OA
ENDROOT
BRANCH   2   7
ATOM      7  O   UNL     1       7.077  -5.345  27.913  0.00  0.00    -0.386 OA
ATOM      8  H   UNL     1       6.795  -6.269  28.093  0.00  0.00    +0.210 HD
ENDBRANCH   2   7
BRANCH   3   9
ATOM      9  O   UNL     1       6.910  -5.141  24.245  0.00  0.00    -0.386 OA
ATOM     10  H   UNL     1       6.651  -4.409  23.654  0.00  0.00    +0.210 HD
ENDBRANCH   3   9
BRANCH   4  11
ATOM     11  O   UNL     1       5.589  -3.198  27.084  0.00  0.00    -0.386 OA
ATOM     12  H   UNL     1       5.458  -2.245  27.246  0.00  0.00    +0.210 HD
ENDBRANCH   4  11
BRANCH   1  13
ATOM     13  C   UNL     1       9.826  -4.773  25.404  0.00  0.00    +0.190 C 
BRANCH  13  14
ATOM     14  O   UNL     1       9.770  -6.163  25.080  0.00  0.00    -0.392 OA
ATOM     15  H   UNL     1      10.206  -6.648  25.802  0.00  0.00    +0.210 HD
ENDBRANCH  13  14
ENDBRANCH   1  13
BRANCH   5  16
ATOM     16  S   UNL     1       8.115  -2.045  24.145  0.00  0.00    -0.127 S 
BRANCH  16  17
ATOM     17  C   UNL     1       9.643  -1.142  24.588  0.00  0.00    +0.072 C 
BRANCH  17  18
ATOM     18  C   UNL     1      10.263  -0.519  23.335  0.00  0.00    +0.011 C 
BRANCH  18  19
ATOM     19  C   UNL     1      10.264   1.013  23.399  0.00  0.00    +0.001 C 
BRANCH  19  20
ATOM     20  C   UNL     1      10.062   1.626  22.010  0.00  0.00    +0.000 C 
BRANCH  20  21
ATOM     21  C   UNL     1       8.684   1.290  21.434  0.00  0.00    -0.000 C 
BRANCH  21  22
ATOM     22  C   UNL     1       7.617   2.266  21.929  0.00  0.00    -0.003 C 
ATOM     23  C   UNL     1       6.570   1.567  22.785  0.00  0.00    +0.004 C 
ENDBRANCH  21  22
ENDBRANCH  20  21
ENDBRANCH  19  20
ENDBRANCH  18  19
ENDBRANCH  17  18
ENDBRANCH  16  17
ENDBRANCH   5  16
TORSDOF 12
ENDMDL
MODEL 9
REMARK VINA RESULT:      -4.9      1.520      2.785
REMARK  Name = 
REMARK  13 active torsions:
REMARK  status: ('A' for Active; 'I' for Inactive)
REMARK    1  A    between atoms: C_2  and  C_3
REMARK    2  A    between atoms: C_3  and  O_4
REMARK    3  A    between atoms: C_6  and  S_8
REMARK    4  A    between atoms: S_8  and  C_9
REMARK    5  A    between atoms: C_9  and  C_10
REMARK    6  A    between atoms: C_10  and  C_11
REMARK    7  A    between atoms: C_11  and  C_12
REMARK    8  A    between atoms: C_12  and  C_13
REMARK    9  A    between atoms: C_13  and  C_14
REMARK   10  A    between atoms: C_14  and  C_15
REMARK   11  A    between atoms: C_16  and  O_18
REMARK   12  A    between atoms: C_19  and  O_21
REMARK   13  A    between atoms: C_22  and  O_24
REMARK                            x       y       z     vdW  Elec       q    Type
REMARK                         _______ _______ _______ _____ _____    ______ ____
ROOT
ATOM      1  C   UNL     1       6.591  -4.223  25.618  0.00  0.00    +0.176 C 
ATOM      2  C   UNL     1       6.661  -5.361  24.584  0.00  0.00    +0.176 C 
ATOM      3  C   UNL     1       7.783  -5.146  23.558  0.00  0.00    +0.177 C 
ATOM      4  C   UNL     1       7.678  -3.743  22.938  0.00  0.00    +0.184 C 
ATOM      5  C   UNL     1       7.578  -2.636  24.011  0.00  0.00    +0.207 C 
ATOM      6  O   UNL     1       6.612  -2.910  25.026  0.00  0.00    -0.355 OA
ENDROOT
BRANCH   2   7
ATOM      7  O   UNL     1       5.389  -5.458  23.917  0.00  0.00    -0.386 OA
ATOM      8  H   UNL     1       4.766  -5.890  24.543  0.00  0.00    +0.210 HD
ENDBRANCH   2   7
BRANCH   3   9
ATOM      9  O   UNL     1       9.059  -5.417  24.133  0.00  0.00    -0.386 OA
ATOM     10  H   UNL     1       9.260  -6.369  24.057  0.00  0.00    +0.210 HD
ENDBRANCH   3   9
BRANCH   4  11
ATOM     11  O   UNL     1       6.490  -3.713  22.114  0.00  0.00    -0.386 OA
ATOM     12  H   UNL     1       5.949  -2.956  22.408  0.00  0.00    +0.210 HD
ENDBRANCH   4  11
BRANCH   1  13
ATOM     13  C   UNL     1       7.623  -4.389  26.752  0.00  0.00    +0.190 C 
BRANCH  13  14
ATOM     14  O   UNL     1       7.982  -5.761  26.930  0.00  0.00    -0.392 OA
ATOM     15  H   UNL     1       8.936  -5.837  26.753  0.00  0.00    +0.210 HD
ENDBRANCH  13  14
ENDBRANCH   1  13
BRANCH   5  16
ATOM     16  S   UNL     1       9.208  -2.139  24.660  0.00  0.00    -0.127 S 
BRANCH  16  17
ATOM     17  C   UNL     1      10.054  -1.795  23.075  0.00  0.00    +0.072 C 
BRANCH  17  18
ATOM     18  C   UNL     1      10.321  -0.294  22.941  0.00  0.00    +0.011 C 
BRANCH  18  19
ATOM     19  C   UNL     1      10.590   0.362  24.301  0.00  0.00    +0.001 C 
BRANCH  19  20
ATOM     20  C   UNL     1       9.831   1.687  24.436  0.00  0.00    +0.000 C 
BRANCH  20  21
ATOM     21  C   UNL     1      10.047   2.595  23.223  0.00  0.00    -0.000 C 
BRANCH  21  22
ATOM     22  C   UNL     1      10.447   4.008  23.646  0.00  0.00    -0.003 C 
ATOM     23  C   UNL     1      11.900   4.307  23.304  0.00  0.00    +0.004 C 
ENDBRANCH  21  22
ENDBRANCH  20  21
ENDBRANCH  19  20
ENDBRANCH  18  19
ENDBRANCH  17  18
ENDBRANCH  16  17
ENDBRANCH   5  16
TORSDOF 12
ENDMDL
