MODEL 1
REMARK VINA RESULT:      -7.2      0.000      0.000
REMARK  Name = 
REMARK  7 active torsions:
REMARK  status: ('A' for Active; 'I' for Inactive)
REMARK    1  A    between atoms: C_1  and  O_2
REMARK    2  A    between atoms: O_2  and  C_3
REMARK    3  A    between atoms: N_11  and  C_12
REMARK    4  A    between atoms: C_21  and  O_22
REMARK    5  A    between atoms: O_22  and  C_23
REMARK    6  A    between atoms: C_23  and  C_24
REMARK    7  A    between atoms: N_27  and  C_28
REMARK                            x       y       z     vdW  Elec       q    Type
REMARK                         _______ _______ _______ _____ _____    ______ ____
ROOT
ATOM      1  C   UNL     1       7.808  -1.570  25.913  0.00  0.00    +0.162 A 
ATOM      2  C   UNL     1       8.780  -1.253  24.941  0.00  0.00    +0.164 A 
ATOM      3  C   UNL     1       8.769  -1.905  23.697  0.00  0.00    +0.075 A 
ATOM      4  C   UNL     1       7.857  -2.919  23.433  0.00  0.00    +0.055 A 
ATOM      5  N   UNL     1       7.903  -3.678  22.263  0.00  0.00    -0.345 N 
ATOM      6  H   UNL     1       8.619  -3.476  21.579  0.00  0.00    +0.167 HD
ATOM      7  C   UNL     1       7.283  -4.890  22.291  0.00  0.00    +0.199 A 
ATOM      8  N   UNL     1       6.432  -5.306  23.169  0.00  0.00    -0.218 NA
ATOM      9  C   UNL     1       5.998  -4.378  24.089  0.00  0.00    +0.164 A 
ATOM     10  N   UNL     1       4.851  -4.463  24.689  0.00  0.00    -0.225 NA
ATOM     11  C   UNL     1       6.906  -3.238  24.408  0.00  0.00    +0.046 A 
ATOM     12  C   UNL     1       6.860  -2.561  25.630  0.00  0.00    +0.063 A 
ENDROOT
BRANCH  10  13
ATOM     13  C   UNL     1       3.967  -5.543  24.508  0.00  0.00    +0.101 A 
ATOM     14  C   UNL     1       3.978  -6.778  25.181  0.00  0.00    +0.150 A 
ATOM     15  F   UNL     1       4.968  -7.111  26.024  0.00  0.00    -0.203 F 
ATOM     16  C   UNL     1       2.981  -7.733  24.976  0.00  0.00    +0.055 A 
ATOM     17  C   UNL     1       2.000  -7.504  24.020  0.00  0.00    +0.021 A 
ATOM     18 BR   UNL     1       0.646  -8.790  23.737  0.00  0.00    -0.050 Br
ATOM     19  C   UNL     1       2.019  -6.338  23.261  0.00  0.00    +0.017 A 
ATOM     20  C   UNL     1       2.992  -5.367  23.513  0.00  0.00    +0.032 A 
ENDBRANCH  10  13
BRANCH   1  22
ATOM     21  C   UNL     1       7.030   0.174  27.338  0.00  0.00    +0.277 C 
ATOM     22  O   UNL     1       7.875  -0.949  27.132  0.00  0.00    -0.491 OA
ENDBRANCH   1  22
BRANCH   2  23
ATOM     23  O   UNL     1       9.800  -0.344  25.018  0.00  0.00    -0.488 OA
BRANCH  23  24
ATOM     24  C   UNL     1      10.457   0.064  23.821  0.00  0.00    +0.232 C 
BRANCH  24  25
ATOM     25  C   UNL     1      10.181   1.564  23.619  0.00  0.00    +0.029 C 
ATOM     26  C   UNL     1       9.029   2.090  24.500  0.00  0.00    +0.022 C 
ATOM     27  C   UNL     1       7.635   1.880  23.901  0.00  0.00    +0.084 C 
ATOM     28  N   UNL     1       7.518   2.280  22.494  0.00  0.00    -0.305 NA
ATOM     29  C   UNL     1       7.568   3.732  22.320  0.00  0.00    +0.104 C 
ATOM     30  C   UNL     1       8.524   1.588  21.684  0.00  0.00    +0.084 C 
ATOM     31  C   UNL     1       9.957   1.876  22.133  0.00  0.00    +0.022 C 
ENDBRANCH  24  25
ENDBRANCH  23  24
ENDBRANCH   2  23
TORSDOF 5
ENDMDL
MODEL 2
REMARK VINA RESULT:      -7.1      1.251      1.562
REMARK  Name = 
REMARK  7 active torsions:
REMARK  status: ('A' for Active; 'I' for Inactive)
REMARK    1  A    between atoms: C_1  and  O_2
REMARK    2  A    between atoms: O_2  and  C_3
REMARK    3  A    between atoms: N_11  and  C_12
REMARK    4  A    between atoms: C_21  and  O_22
REMARK    5  A    between atoms: O_22  and  C_23
REMARK    6  A    between atoms: C_23  and  C_24
REMARK    7  A    between atoms: N_27  and  C_28
REMARK                            x       y       z     vdW  Elec       q    Type
REMARK                         _______ _______ _______ _____ _____    ______ ____
ROOT
ATOM      1  C   UNL     1       7.758  -2.554  25.465  0.00  0.00    +0.162 A 
ATOM      2  C   UNL     1       8.588  -2.201  24.382  0.00  0.00    +0.164 A 
ATOM      3  C   UNL     1       8.321  -2.705  23.098  0.00  0.00    +0.075 A 
ATOM      4  C   UNL     1       7.290  -3.612  22.890  0.00  0.00    +0.055 A 
ATOM      5  N   UNL     1       7.080  -4.234  21.659  0.00  0.00    -0.345 N 
ATOM      6  H   UNL     1       7.694  -4.009  20.888  0.00  0.00    +0.167 HD
ATOM      7  C   UNL     1       6.364  -5.392  21.669  0.00  0.00    +0.199 A 
ATOM      8  N   UNL     1       5.629  -5.843  22.630  0.00  0.00    -0.218 NA
ATOM      9  C   UNL     1       5.433  -4.996  23.699  0.00  0.00    +0.164 A 
ATOM     10  N   UNL     1       4.393  -5.064  24.471  0.00  0.00    -0.225 NA
ATOM     11  C   UNL     1       6.480  -3.969  23.973  0.00  0.00    +0.046 A 
ATOM     12  C   UNL     1       6.690  -3.434  25.248  0.00  0.00    +0.063 A 
ENDROOT
BRANCH  10  13
ATOM     13  C   UNL     1       3.396  -6.049  24.333  0.00  0.00    +0.101 A 
ATOM     14  C   UNL     1       2.248  -5.995  23.522  0.00  0.00    +0.150 A 
ATOM     15  F   UNL     1       1.910  -4.879  22.856  0.00  0.00    -0.203 F 
ATOM     16  C   UNL     1       1.385  -7.083  23.401  0.00  0.00    +0.055 A 
ATOM     17  C   UNL     1       1.607  -8.222  24.165  0.00  0.00    +0.021 A 
ATOM     18 BR   UNL     1       0.444  -9.702  24.006  0.00  0.00    -0.050 Br
ATOM     19  C   UNL     1       2.674  -8.270  25.057  0.00  0.00    +0.017 A 
ATOM     20  C   UNL     1       3.561  -7.193  25.130  0.00  0.00    +0.032 A 
ENDBRANCH  10  13
BRANCH   1  22
ATOM     21  C   UNL     1       7.631  -0.775  27.046  0.00  0.00    +0.277 C 
ATOM     22  O   UNL     1       8.073  -2.083  26.713  0.00  0.00    -0.491 OA
ENDBRANCH   1  22
BRANCH   2  23
ATOM     23  O   UNL     1       9.685  -1.384  24.377  0.00  0.00    -0.488 OA
BRANCH  23  24
ATOM     24  C   UNL     1      10.166  -0.874  23.136  0.00  0.00    +0.232 C 
BRANCH  24  25
ATOM     25  C   UNL     1      10.248   0.657  23.256  0.00  0.00    +0.029 C 
ATOM     26  C   UNL     1       9.382   1.222  24.401  0.00  0.00    +0.022 C 
ATOM     27  C   UNL     1       7.916   1.455  24.022  0.00  0.00    +0.084 C 
ATOM     28  N   UNL     1       7.729   2.163  22.750  0.00  0.00    -0.305 NA
ATOM     29  C   UNL     1       8.117   3.572  22.833  0.00  0.00    +0.104 C 
ATOM     30  C   UNL     1       8.423   1.458  21.669  0.00  0.00    +0.084 C 
ATOM     31  C   UNL     1       9.926   1.322  21.911  0.00  0.00    +0.022 C 
ENDBRANCH  24  25
ENDBRANCH  23  24
ENDBRANCH   2  23
TORSDOF 5
ENDMDL
MODEL 3
REMARK VINA RESULT:      -7.0      4.168      8.656
REMARK  Name = 
REMARK  7 active torsions:
REMARK  status: ('A' for Active; 'I' for Inactive)
REMARK    1  A    between atoms: C_1  and  O_2
REMARK    2  A    between atoms: O_2  and  C_3
REMARK    3  A    between atoms: N_11  and  C_12
REMARK    4  A    between atoms: C_21  and  O_22
REMARK    5  A    between atoms: O_22  and  C_23
REMARK    6  A    between atoms: C_23  and  C_24
REMARK    7  A    between atoms: N_27  and  C_28
REMARK                            x       y       z     vdW  Elec       q    Type
REMARK                         _______ _______ _______ _____ _____    ______ ____
ROOT
ATOM      1  C   UNL     1       6.707  -3.957  26.565  0.00  0.00    +0.162 A 
ATOM      2  C   UNL     1       6.603  -4.991  25.612  0.00  0.00    +0.164 A 
ATOM      3  C   UNL     1       7.085  -4.796  24.307  0.00  0.00    +0.075 A 
ATOM      4  C   UNL     1       7.598  -3.566  23.914  0.00  0.00    +0.055 A 
ATOM      5  N   UNL     1       7.960  -3.297  22.594  0.00  0.00    -0.345 N 
ATOM      6  H   UNL     1       7.856  -4.025  21.902  0.00  0.00    +0.167 HD
ATOM      7  C   UNL     1       8.024  -1.986  22.230  0.00  0.00    +0.199 A 
ATOM      8  N   UNL     1       8.054  -0.962  23.015  0.00  0.00    -0.218 NA
ATOM      9  C   UNL     1       8.182  -1.226  24.361  0.00  0.00    +0.164 A 
ATOM     10  N   UNL     1       8.702  -0.384  25.199  0.00  0.00    -0.225 NA
ATOM     11  C   UNL     1       7.683  -2.541  24.861  0.00  0.00    +0.046 A 
ATOM     12  C   UNL     1       7.265  -2.731  26.182  0.00  0.00    +0.063 A 
ENDROOT
BRANCH  10  13
ATOM     13  C   UNL     1       9.126   0.906  24.829  0.00  0.00    +0.101 A 
ATOM     14  C   UNL     1      10.314   1.256  24.162  0.00  0.00    +0.150 A 
ATOM     15  F   UNL     1      11.273   0.350  23.911  0.00  0.00    -0.203 F 
ATOM     16  C   UNL     1      10.572   2.568  23.765  0.00  0.00    +0.055 A 
ATOM     17  C   UNL     1       9.681   3.576  24.110  0.00  0.00    +0.021 A 
ATOM     18 BR   UNL     1      10.021   5.355  23.575  0.00  0.00    -0.050 Br
ATOM     19  C   UNL     1       8.547   3.282  24.861  0.00  0.00    +0.017 A 
ATOM     20  C   UNL     1       8.274   1.956  25.207  0.00  0.00    +0.032 A 
ENDBRANCH  10  13
BRANCH   1  22
ATOM     21  C   UNL     1       4.943  -3.542  28.112  0.00  0.00    +0.277 C 
ATOM     22  O   UNL     1       6.186  -4.163  27.815  0.00  0.00    -0.491 OA
ENDBRANCH   1  22
BRANCH   2  23
ATOM     23  O   UNL     1       6.076  -6.244  25.766  0.00  0.00    -0.488 OA
BRANCH  23  24
ATOM     24  C   UNL     1       4.663  -6.397  25.865  0.00  0.00    +0.232 C 
BRANCH  24  25
ATOM     25  C   UNL     1       4.173  -7.098  24.586  0.00  0.00    +0.029 C 
ATOM     26  C   UNL     1       4.007  -6.134  23.394  0.00  0.00    +0.022 C 
ATOM     27  C   UNL     1       2.659  -5.406  23.361  0.00  0.00    +0.084 C 
ATOM     28  N   UNL     1       1.498  -6.279  23.568  0.00  0.00    -0.305 NA
ATOM     29  C   UNL     1       1.251  -7.160  22.425  0.00  0.00    +0.104 C 
ATOM     30  C   UNL     1       1.638  -7.022  24.823  0.00  0.00    +0.084 C 
ATOM     31  C   UNL     1       2.892  -7.895  24.865  0.00  0.00    +0.022 C 
ENDBRANCH  24  25
ENDBRANCH  23  24
ENDBRANCH   2  23
TORSDOF 5
ENDMDL
MODEL 4
REMARK VINA RESULT:      -6.9      1.597      2.863
REMARK  Name = 
REMARK  7 active torsions:
REMARK  status: ('A' for Active; 'I' for Inactive)
REMARK    1  A    between atoms: C_1  and  O_2
REMARK    2  A    between atoms: O_2  and  C_3
REMARK    3  A    between atoms: N_11  and  C_12
REMARK    4  A    between atoms: C_21  and  O_22
REMARK    5  A    between atoms: O_22  and  C_23
REMARK    6  A    between atoms: C_23  and  C_24
REMARK    7  A    between atoms: N_27  and  C_28
REMARK                            x       y       z     vdW  Elec       q    Type
REMARK                         _______ _______ _______ _____ _____    ______ ____
ROOT
ATOM      1  C   UNL     1       9.502  -1.327  23.797  0.00  0.00    +0.162 A 
ATOM      2  C   UNL     1       9.620  -0.378  24.833  0.00  0.00    +0.164 A 
ATOM      3  C   UNL     1       8.783  -0.457  25.958  0.00  0.00    +0.075 A 
ATOM      4  C   UNL     1       7.782  -1.416  26.035  0.00  0.00    +0.055 A 
ATOM      5  N   UNL     1       6.848  -1.440  27.072  0.00  0.00    -0.345 N 
ATOM      6  H   UNL     1       6.910  -0.741  27.798  0.00  0.00    +0.167 HD
ATOM      7  C   UNL     1       5.684  -2.106  26.836  0.00  0.00    +0.199 A 
ATOM      8  N   UNL     1       5.447  -2.941  25.880  0.00  0.00    -0.218 NA
ATOM      9  C   UNL     1       6.525  -3.307  25.106  0.00  0.00    +0.164 A 
ATOM     10  N   UNL     1       6.585  -4.435  24.468  0.00  0.00    -0.225 NA
ATOM     11  C   UNL     1       7.660  -2.344  24.996  0.00  0.00    +0.046 A 
ATOM     12  C   UNL     1       8.521  -2.322  23.894  0.00  0.00    +0.063 A 
ENDROOT
BRANCH  10  13
ATOM     13  C   UNL     1       5.530  -5.366  24.452  0.00  0.00    +0.101 A 
ATOM     14  C   UNL     1       5.193  -6.292  25.456  0.00  0.00    +0.150 A 
ATOM     15  F   UNL     1       5.969  -6.471  26.537  0.00  0.00    -0.203 F 
ATOM     16  C   UNL     1       4.058  -7.098  25.359  0.00  0.00    +0.055 A 
ATOM     17  C   UNL     1       3.285  -7.055  24.206  0.00  0.00    +0.021 A 
ATOM     18 BR   UNL     1       1.746  -8.141  24.065  0.00  0.00    -0.050 Br
ATOM     19  C   UNL     1       3.648  -6.227  23.148  0.00  0.00    +0.017 A 
ATOM     20  C   UNL     1       4.758  -5.387  23.280  0.00  0.00    +0.032 A 
ENDBRANCH  10  13
BRANCH   1  22
ATOM     21  C   UNL     1       9.706  -0.659  21.519  0.00  0.00    +0.277 C 
ATOM     22  O   UNL     1      10.301  -1.195  22.692  0.00  0.00    -0.491 OA
ENDBRANCH   1  22
BRANCH   2  23
ATOM     23  O   UNL     1      10.484   0.679  24.929  0.00  0.00    -0.488 OA
BRANCH  23  24
ATOM     24  C   UNL     1      10.238   1.849  24.155  0.00  0.00    +0.232 C 
BRANCH  24  25
ATOM     25  C   UNL     1       8.796   2.305  24.434  0.00  0.00    +0.029 C 
ATOM     26  C   UNL     1       7.828   1.992  23.275  0.00  0.00    +0.022 C 
ATOM     27  C   UNL     1       7.814   3.050  22.166  0.00  0.00    +0.084 C 
ATOM     28  N   UNL     1       7.709   4.430  22.653  0.00  0.00    -0.305 NA
ATOM     29  C   UNL     1       6.385   4.730  23.200  0.00  0.00    +0.104 C 
ATOM     30  C   UNL     1       8.783   4.715  23.608  0.00  0.00    +0.084 C 
ATOM     31  C   UNL     1       8.764   3.789  24.825  0.00  0.00    +0.022 C 
ENDBRANCH  24  25
ENDBRANCH  23  24
ENDBRANCH   2  23
TORSDOF 5
ENDMDL
MODEL 5
REMARK VINA RESULT:      -6.9      4.430      9.231
REMARK  Name = 
REMARK  7 active torsions:
REMARK  status: ('A' for Active; 'I' for Inactive)
REMARK    1  A    between atoms: C_1  and  O_2
REMARK    2  A    between atoms: O_2  and  C_3
REMARK    3  A    between atoms: N_11  and  C_12
REMARK    4  A    between atoms: C_21  and  O_22
REMARK    5  A    between atoms: O_22  and  C_23
REMARK    6  A    between atoms: C_23  and  C_24
REMARK    7  A    between atoms: N_27  and  C_28
REMARK                            x       y       z     vdW  Elec       q    Type
REMARK                         _______ _______ _______ _____ _____    ______ ____
ROOT
ATOM      1  C   UNL     1       5.908  -4.308  22.771  0.00  0.00    +0.162 A 
ATOM      2  C   UNL     1       5.792  -5.126  23.914  0.00  0.00    +0.164 A 
ATOM      3  C   UNL     1       6.298  -4.686  25.147  0.00  0.00    +0.075 A 
ATOM      4  C   UNL     1       6.985  -3.482  25.247  0.00  0.00    +0.055 A 
ATOM      5  N   UNL     1       7.616  -3.078  26.423  0.00  0.00    -0.345 N 
ATOM      6  H   UNL     1       7.563  -3.676  27.235  0.00  0.00    +0.167 HD
ATOM      7  C   UNL     1       8.600  -2.144  26.304  0.00  0.00    +0.199 A 
ATOM      8  N   UNL     1       8.838  -1.393  25.281  0.00  0.00    -0.218 NA
ATOM      9  C   UNL     1       7.913  -1.436  24.262  0.00  0.00    +0.164 A 
ATOM     10  N   UNL     1       7.725  -0.452  23.438  0.00  0.00    -0.225 NA
ATOM     11  C   UNL     1       7.110  -2.684  24.105  0.00  0.00    +0.046 A 
ATOM     12  C   UNL     1       6.561  -3.074  22.879  0.00  0.00    +0.063 A 
ENDROOT
BRANCH  10  13
ATOM     13  C   UNL     1       8.490   0.729  23.463  0.00  0.00    +0.101 A 
ATOM     14  C   UNL     1       9.587   1.054  22.645  0.00  0.00    +0.150 A 
ATOM     15  F   UNL     1      10.118   0.162  21.794  0.00  0.00    -0.203 F 
ATOM     16  C   UNL     1      10.202   2.305  22.707  0.00  0.00    +0.055 A 
ATOM     17  C   UNL     1       9.784   3.226  23.659  0.00  0.00    +0.021 A 
ATOM     18 BR   UNL     1      10.609   4.923  23.749  0.00  0.00    -0.050 Br
ATOM     19  C   UNL     1       8.771   2.899  24.555  0.00  0.00    +0.017 A 
ATOM     20  C   UNL     1       8.129   1.663  24.448  0.00  0.00    +0.032 A 
ENDBRANCH  10  13
BRANCH   1  22
ATOM     21  C   UNL     1       6.269  -5.715  20.881  0.00  0.00    +0.277 C 
ATOM     22  O   UNL     1       5.446  -4.786  21.573  0.00  0.00    -0.491 OA
ENDBRANCH   1  22
BRANCH   2  23
ATOM     23  O   UNL     1       5.219  -6.363  24.024  0.00  0.00    -0.488 OA
BRANCH  23  24
ATOM     24  C   UNL     1       3.799  -6.469  24.073  0.00  0.00    +0.232 C 
BRANCH  24  25
ATOM     25  C   UNL     1       3.438  -7.460  25.193  0.00  0.00    +0.029 C 
ATOM     26  C   UNL     1       2.016  -8.041  25.050  0.00  0.00    +0.022 C 
ATOM     27  C   UNL     1       0.916  -7.158  25.648  0.00  0.00    +0.084 C 
ATOM     28  N   UNL     1       1.208  -6.664  26.999  0.00  0.00    -0.305 NA
ATOM     29  C   UNL     1       1.151  -7.724  28.006  0.00  0.00    +0.104 C 
ATOM     30  C   UNL     1       2.488  -5.952  27.013  0.00  0.00    +0.084 C 
ATOM     31  C   UNL     1       3.664  -6.824  26.571  0.00  0.00    +0.022 C 
ENDBRANCH  24  25
ENDBRANCH  23  24
ENDBRANCH   2  23
TORSDOF 5
ENDMDL
MODEL 6
REMARK VINA RESULT:      -6.8      4.293      8.894
REMARK  Name = 
REMARK  7 active torsions:
REMARK  status: ('A' for Active; 'I' for Inactive)
REMARK    1  A    between atoms: C_1  and  O_2
REMARK    2  A    between atoms: O_2  and  C_3
REMARK    3  A    between atoms: N_11  and  C_12
REMARK    4  A    between atoms: C_21  and  O_22
REMARK    5  A    between atoms: O_22  and  C_23
REMARK    6  A    between atoms: C_23  and  C_24
REMARK    7  A    between atoms: N_27  and  C_28
REMARK                            x       y       z     vdW  Elec       q    Type
REMARK                         _______ _______ _______ _____ _____    ______ ____
ROOT
ATOM      1  C   UNL     1       7.755  -4.248  24.256  0.00  0.00    +0.162 A 
ATOM      2  C   UNL     1       6.938  -4.646  25.334  0.00  0.00    +0.164 A 
ATOM      3  C   UNL     1       6.434  -3.686  26.227  0.00  0.00    +0.075 A 
ATOM      4  C   UNL     1       6.792  -2.349  26.110  0.00  0.00    +0.055 A 
ATOM      5  N   UNL     1       6.420  -1.392  27.054  0.00  0.00    -0.345 N 
ATOM      6  H   UNL     1       5.862  -1.679  27.846  0.00  0.00    +0.167 HD
ATOM      7  C   UNL     1       7.159  -0.249  27.096  0.00  0.00    +0.199 A 
ATOM      8  N   UNL     1       7.987   0.174  26.200  0.00  0.00    -0.218 NA
ATOM      9  C   UNL     1       8.015  -0.527  25.014  0.00  0.00    +0.164 A 
ATOM     10  N   UNL     1       8.382   0.005  23.889  0.00  0.00    -0.225 NA
ATOM     11  C   UNL     1       7.615  -1.964  25.047  0.00  0.00    +0.046 A 
ATOM     12  C   UNL     1       8.080  -2.894  24.111  0.00  0.00    +0.063 A 
ENDROOT
BRANCH  10  13
ATOM     13  C   UNL     1       8.848   1.328  23.781  0.00  0.00    +0.101 A 
ATOM     14  C   UNL     1       8.077   2.499  23.663  0.00  0.00    +0.150 A 
ATOM     15  F   UNL     1       6.744   2.450  23.510  0.00  0.00    -0.203 F 
ATOM     16  C   UNL     1       8.662   3.765  23.660  0.00  0.00    +0.055 A 
ATOM     17  C   UNL     1      10.046   3.879  23.684  0.00  0.00    +0.021 A 
ATOM     18 BR   UNL     1      10.847   5.590  23.682  0.00  0.00    -0.050 Br
ATOM     19  C   UNL     1      10.844   2.739  23.694  0.00  0.00    +0.017 A 
ATOM     20  C   UNL     1      10.244   1.478  23.749  0.00  0.00    +0.032 A 
ENDBRANCH  10  13
BRANCH   1  22
ATOM     21  C   UNL     1       7.528  -5.532  22.262  0.00  0.00    +0.277 C 
ATOM     22  O   UNL     1       8.269  -5.214  23.431  0.00  0.00    -0.491 OA
ENDBRANCH   1  22
BRANCH   2  23
ATOM     23  O   UNL     1       6.522  -5.905  25.671  0.00  0.00    -0.488 OA
BRANCH  23  24
ATOM     24  C   UNL     1       5.289  -6.066  26.366  0.00  0.00    +0.232 C 
BRANCH  24  25
ATOM     25  C   UNL     1       4.355  -6.908  25.480  0.00  0.00    +0.029 C 
ATOM     26  C   UNL     1       4.614  -6.714  23.972  0.00  0.00    +0.022 C 
ATOM     27  C   UNL     1       3.896  -5.505  23.363  0.00  0.00    +0.084 C 
ATOM     28  N   UNL     1       2.478  -5.401  23.726  0.00  0.00    -0.305 NA
ATOM     29  C   UNL     1       1.661  -6.434  23.086  0.00  0.00    +0.104 C 
ATOM     30  C   UNL     1       2.325  -5.397  25.183  0.00  0.00    +0.084 C 
ATOM     31  C   UNL     1       2.887  -6.654  25.849  0.00  0.00    +0.022 C 
ENDBRANCH  24  25
ENDBRANCH  23  24
ENDBRANCH   2  23
TORSDOF 5
ENDMDL
MODEL 7
REMARK VINA RESULT:      -6.7      4.448      9.437
REMARK  Name = 
REMARK  7 active torsions:
REMARK  status: ('A' for Active; 'I' for Inactive)
REMARK    1  A    between atoms: C_1  and  O_2
REMARK    2  A    between atoms: O_2  and  C_3
REMARK    3  A    between atoms: N_11  and  C_12
REMARK    4  A    between atoms: C_21  and  O_22
REMARK    5  A    between atoms: O_22  and  C_23
REMARK    6  A    between atoms: C_23  and  C_24
REMARK    7  A    between atoms: N_27  and  C_28
REMARK                            x       y       z     vdW  Elec       q    Type
REMARK                         _______ _______ _______ _____ _____    ______ ____
ROOT
ATOM      1  C   UNL     1       5.657  -3.394  22.612  0.00  0.00    +0.162 A 
ATOM      2  C   UNL     1       4.906  -3.879  23.703  0.00  0.00    +0.164 A 
ATOM      3  C   UNL     1       4.883  -3.166  24.913  0.00  0.00    +0.075 A 
ATOM      4  C   UNL     1       5.654  -2.023  25.080  0.00  0.00    +0.055 A 
ATOM      5  N   UNL     1       5.759  -1.367  26.307  0.00  0.00    -0.345 N 
ATOM      6  H   UNL     1       5.249  -1.730  27.100  0.00  0.00    +0.167 HD
ATOM      7  C   UNL     1       6.841  -0.559  26.482  0.00  0.00    +0.199 A 
ATOM      8  N   UNL     1       7.635  -0.114  25.565  0.00  0.00    -0.218 NA
ATOM      9  C   UNL     1       7.264  -0.363  24.262  0.00  0.00    +0.164 A 
ATOM     10  N   UNL     1       7.635   0.384  23.268  0.00  0.00    -0.225 NA
ATOM     11  C   UNL     1       6.408  -1.557  23.999  0.00  0.00    +0.046 A 
ATOM     12  C   UNL     1       6.399  -2.217  22.766  0.00  0.00    +0.063 A 
ENDROOT
BRANCH  10  13
ATOM     13  C   UNL     1       8.503   1.482  23.414  0.00  0.00    +0.101 A 
ATOM     14  C   UNL     1       9.910   1.464  23.422  0.00  0.00    +0.150 A 
ATOM     15  F   UNL     1      10.598   0.311  23.415  0.00  0.00    -0.203 F 
ATOM     16  C   UNL     1      10.658   2.640  23.478  0.00  0.00    +0.055 A 
ATOM     17  C   UNL     1      10.007   3.859  23.620  0.00  0.00    +0.021 A 
ATOM     18 BR   UNL     1      11.011   5.457  23.695  0.00  0.00    -0.050 Br
ATOM     19  C   UNL     1       8.620   3.905  23.721  0.00  0.00    +0.017 A 
ATOM     20  C   UNL     1       7.880   2.724  23.611  0.00  0.00    +0.032 A 
ENDBRANCH  10  13
BRANCH   1  22
ATOM     21  C   UNL     1       6.581  -5.248  21.434  0.00  0.00    +0.277 C 
ATOM     22  O   UNL     1       5.696  -4.137  21.462  0.00  0.00    -0.491 OA
ENDBRANCH   1  22
BRANCH   2  23
ATOM     23  O   UNL     1       4.137  -5.008  23.776  0.00  0.00    -0.488 OA
BRANCH  23  24
ATOM     24  C   UNL     1       2.775  -4.948  23.360  0.00  0.00    +0.232 C 
BRANCH  24  25
ATOM     25  C   UNL     1       1.931  -5.708  24.397  0.00  0.00    +0.029 C 
ATOM     26  C   UNL     1       2.783  -6.391  25.486  0.00  0.00    +0.022 C 
ATOM     27  C   UNL     1       3.316  -7.773  25.091  0.00  0.00    +0.084 C 
ATOM     28  N   UNL     1       2.307  -8.661  24.503  0.00  0.00    -0.305 NA
ATOM     29  C   UNL     1       1.327  -9.123  25.487  0.00  0.00    +0.104 C 
ATOM     30  C   UNL     1       1.674  -8.016  23.349  0.00  0.00    +0.084 C 
ATOM     31  C   UNL     1       0.985  -6.698  23.702  0.00  0.00    +0.022 C 
ENDBRANCH  24  25
ENDBRANCH  23  24
ENDBRANCH   2  23
TORSDOF 5
ENDMDL
MODEL 8
REMARK VINA RESULT:      -6.3      4.615      9.231
REMARK  Name = 
REMARK  7 active torsions:
REMARK  status: ('A' for Active; 'I' for Inactive)
REMARK    1  A    between atoms: C_1  and  O_2
REMARK    2  A    between atoms: O_2  and  C_3
REMARK    3  A    between atoms: N_11  and  C_12
REMARK    4  A    between atoms: C_21  and  O_22
REMARK    5  A    between atoms: O_22  and  C_23
REMARK    6  A    between atoms: C_23  and  C_24
REMARK    7  A    between atoms: N_27  and  C_28
REMARK                            x       y       z     vdW  Elec       q    Type
REMARK                         _______ _______ _______ _____ _____    ______ ____
ROOT
ATOM      1  C   UNL     1       5.682  -3.027  22.643  0.00  0.00    +0.162 A 
ATOM      2  C   UNL     1       4.908  -3.473  23.734  0.00  0.00    +0.164 A 
ATOM      3  C   UNL     1       4.907  -2.750  24.938  0.00  0.00    +0.075 A 
ATOM      4  C   UNL     1       5.721  -1.635  25.099  0.00  0.00    +0.055 A 
ATOM      5  N   UNL     1       5.846  -0.973  26.321  0.00  0.00    -0.345 N 
ATOM      6  H   UNL     1       5.318  -1.310  27.114  0.00  0.00    +0.167 HD
ATOM      7  C   UNL     1       6.958  -0.206  26.494  0.00  0.00    +0.199 A 
ATOM      8  N   UNL     1       7.771   0.199  25.577  0.00  0.00    -0.218 NA
ATOM      9  C   UNL     1       7.397  -0.046  24.274  0.00  0.00    +0.164 A 
ATOM     10  N   UNL     1       7.801   0.677  23.276  0.00  0.00    -0.225 NA
ATOM     11  C   UNL     1       6.497  -1.208  24.017  0.00  0.00    +0.046 A 
ATOM     12  C   UNL     1       6.469  -1.878  22.790  0.00  0.00    +0.063 A 
ENDROOT
BRANCH  10  13
ATOM     13  C   UNL     1       8.711   1.742  23.417  0.00  0.00    +0.101 A 
ATOM     14  C   UNL     1      10.115   1.667  23.452  0.00  0.00    +0.150 A 
ATOM     15  F   UNL     1      10.756   0.488  23.481  0.00  0.00    -0.203 F 
ATOM     16  C   UNL     1      10.909   2.814  23.499  0.00  0.00    +0.055 A 
ATOM     17  C   UNL     1      10.305   4.060  23.604  0.00  0.00    +0.021 A 
ATOM     18 BR   UNL     1      11.372   5.618  23.666  0.00  0.00    -0.050 Br
ATOM     19  C   UNL     1       8.920   4.165  23.677  0.00  0.00    +0.017 A 
ATOM     20  C   UNL     1       8.135   3.012  23.577  0.00  0.00    +0.032 A 
ENDBRANCH  10  13
BRANCH   1  22
ATOM     21  C   UNL     1       6.507  -4.948  21.500  0.00  0.00    +0.277 C 
ATOM     22  O   UNL     1       5.698  -3.781  21.499  0.00  0.00    -0.491 OA
ENDBRANCH   1  22
BRANCH   2  23
ATOM     23  O   UNL     1       4.096  -4.571  23.813  0.00  0.00    -0.488 OA
BRANCH  23  24
ATOM     24  C   UNL     1       2.883  -4.485  24.557  0.00  0.00    +0.232 C 
BRANCH  24  25
ATOM     25  C   UNL     1       2.725  -5.791  25.354  0.00  0.00    +0.029 C 
ATOM     26  C   UNL     1       1.555  -5.749  26.358  0.00  0.00    +0.022 C 
ATOM     27  C   UNL     1       1.910  -5.115  27.707  0.00  0.00    +0.084 C 
ATOM     28  N   UNL     1       3.160  -5.610  28.294  0.00  0.00    -0.305 NA
ATOM     29  C   UNL     1       3.046  -6.989  28.771  0.00  0.00    +0.104 C 
ATOM     30  C   UNL     1       4.268  -5.439  27.350  0.00  0.00    +0.084 C 
ATOM     31  C   UNL     1       4.048  -6.176  26.029  0.00  0.00    +0.022 C 
ENDBRANCH  24  25
ENDBRANCH  23  24
ENDBRANCH   2  23
TORSDOF 5
ENDMDL
MODEL 9
REMARK VINA RESULT:      -6.0      4.759      9.042
REMARK  Name = 
REMARK  7 active torsions:
REMARK  status: ('A' for Active; 'I' for Inactive)
REMARK    1  A    between atoms: C_1  and  O_2
REMARK    2  A    between atoms: O_2  and  C_3
REMARK    3  A    between atoms: N_11  and  C_12
REMARK    4  A    between atoms: C_21  and  O_22
REMARK    5  A    between atoms: O_22  and  C_23
REMARK    6  A    between atoms: C_23  and  C_24
REMARK    7  A    between atoms: N_27  and  C_28
REMARK                            x       y       z     vdW  Elec       q    Type
REMARK                         _______ _______ _______ _____ _____    ______ ____
ROOT
ATOM      1  C   UNL     1       5.464  -1.811  24.642  0.00  0.00    +0.162 A 
ATOM      2  C   UNL     1       5.688  -2.982  23.889  0.00  0.00    +0.164 A 
ATOM      3  C   UNL     1       6.800  -3.068  23.037  0.00  0.00    +0.075 A 
ATOM      4  C   UNL     1       7.649  -1.982  22.863  0.00  0.00    +0.055 A 
ATOM      5  N   UNL     1       8.683  -1.985  21.926  0.00  0.00    -0.345 N 
ATOM      6  H   UNL     1       8.826  -2.811  21.361  0.00  0.00    +0.167 HD
ATOM      7  C   UNL     1       9.155  -0.772  21.526  0.00  0.00    +0.199 A 
ATOM      8  N   UNL     1       8.954   0.367  22.100  0.00  0.00    -0.218 NA
ATOM      9  C   UNL     1       8.319   0.333  23.322  0.00  0.00    +0.164 A 
ATOM     10  N   UNL     1       8.469   1.256  24.221  0.00  0.00    -0.225 NA
ATOM     11  C   UNL     1       7.412  -0.819  23.602  0.00  0.00    +0.046 A 
ATOM     12  C   UNL     1       6.345  -0.732  24.502  0.00  0.00    +0.063 A 
ENDROOT
BRANCH  10  13
ATOM     13  C   UNL     1       9.242   2.413  24.013  0.00  0.00    +0.101 A 
ATOM     14  C   UNL     1       8.807   3.750  24.050  0.00  0.00    +0.150 A 
ATOM     15  F   UNL     1       7.507   4.063  24.174  0.00  0.00    -0.203 F 
ATOM     16  C   UNL     1       9.698   4.815  23.921  0.00  0.00    +0.055 A 
ATOM     17  C   UNL     1      11.038   4.558  23.660  0.00  0.00    +0.021 A 
ATOM     18 BR   UNL     1      12.253   5.994  23.486  0.00  0.00    -0.050 Br
ATOM     19  C   UNL     1      11.486   3.249  23.512  0.00  0.00    +0.017 A 
ATOM     20  C   UNL     1      10.592   2.190  23.695  0.00  0.00    +0.032 A 
ENDBRANCH  10  13
BRANCH   1  22
ATOM     21  C   UNL     1       4.473  -1.097  26.688  0.00  0.00    +0.277 C 
ATOM     22  O   UNL     1       4.345  -1.742  25.429  0.00  0.00    -0.491 OA
ENDBRANCH   1  22
BRANCH   2  23
ATOM     23  O   UNL     1       4.947  -4.132  23.858  0.00  0.00    -0.488 OA
BRANCH  23  24
ATOM     24  C   UNL     1       4.375  -4.622  25.067  0.00  0.00    +0.232 C 
BRANCH  24  25
ATOM     25  C   UNL     1       5.433  -5.487  25.773  0.00  0.00    +0.029 C 
ATOM     26  C   UNL     1       4.849  -6.779  26.382  0.00  0.00    +0.022 C 
ATOM     27  C   UNL     1       4.247  -6.597  27.779  0.00  0.00    +0.084 C 
ATOM     28  N   UNL     1       5.101  -5.851  28.711  0.00  0.00    -0.305 NA
ATOM     29  C   UNL     1       6.278  -6.617  29.124  0.00  0.00    +0.104 C 
ATOM     30  C   UNL     1       5.457  -4.549  28.142  0.00  0.00    +0.084 C 
ATOM     31  C   UNL     1       6.202  -4.659  26.811  0.00  0.00    +0.022 C 
ENDBRANCH  24  25
ENDBRANCH  23  24
ENDBRANCH   2  23
TORSDOF 5
ENDMDL
