MODEL 1
REMARK VINA RESULT:      -3.3      0.000      0.000
REMARK  Name = 
REMARK  4 active torsions:
REMARK  status: ('A' for Active; 'I' for Inactive)
REMARK    1  A    between atoms: C_1  and  C_2
REMARK    2  A    between atoms: C_2  and  C_4
REMARK    3  A    between atoms: C_4  and  C_5
REMARK    4  A    between atoms: C_5  and  O_6
REMARK                            x       y       z     vdW  Elec       q    Type
REMARK                         _______ _______ _______ _____ _____    ______ ____
ROOT
ATOM      1  C   UNL     1      12.002   4.946  23.236  0.00  0.00    +0.101 C 
ENDROOT
BRANCH   1   3
ATOM      2  C   UNL     1      10.089   6.353  24.212  0.00  0.00    +0.086 C 
ATOM      3  C   UNL     1      11.562   6.044  24.184  0.00  0.00    +0.132 C 
ATOM      4  O   UNL     1      12.354   6.640  24.915  0.00  0.00    -0.298 OA
ENDBRANCH   1   3
BRANCH   1   5
ATOM      5  C   UNL     1      13.215   5.358  22.418  0.00  0.00    +0.163 C 
BRANCH   5   6
ATOM      6  O   UNL     1      14.414   5.102  23.141  0.00  0.00    -0.395 OA
ATOM      7  H   UNL     1      14.928   4.474  22.594  0.00  0.00    +0.209 HD
ENDBRANCH   5   6
ENDBRANCH   1   5
TORSDOF 3
ENDMDL
MODEL 2
REMARK VINA RESULT:      -3.0      5.934      6.665
REMARK  Name = 
REMARK  4 active torsions:
REMARK  status: ('A' for Active; 'I' for Inactive)
REMARK    1  A    between atoms: C_1  and  C_2
REMARK    2  A    between atoms: C_2  and  C_4
REMARK    3  A    between atoms: C_4  and  C_5
REMARK    4  A    between atoms: C_5  and  O_6
REMARK                            x       y       z     vdW  Elec       q    Type
REMARK                         _______ _______ _______ _____ _____    ______ ____
ROOT
ATOM      1  C   UNL     1       9.499   0.070  21.519  0.00  0.00    +0.101 C 
ENDROOT
BRANCH   1   3
ATOM      2  C   UNL     1      10.142  -0.207  23.990  0.00  0.00    +0.086 C 
ATOM      3  C   UNL     1      10.160  -0.770  22.593  0.00  0.00    +0.132 C 
ATOM      4  O   UNL     1      10.664  -1.868  22.354  0.00  0.00    -0.298 OA
ENDBRANCH   1   3
BRANCH   1   5
ATOM      5  C   UNL     1       9.251   1.495  21.989  0.00  0.00    +0.163 C 
BRANCH   5   6
ATOM      6  O   UNL     1      10.307   2.350  21.567  0.00  0.00    -0.395 OA
ATOM      7  H   UNL     1      10.010   2.745  20.722  0.00  0.00    +0.209 HD
ENDBRANCH   5   6
ENDBRANCH   1   5
TORSDOF 3
ENDMDL
MODEL 3
REMARK VINA RESULT:      -2.9     11.810     12.110
REMARK  Name = 
REMARK  4 active torsions:
REMARK  status: ('A' for Active; 'I' for Inactive)
REMARK    1  A    between atoms: C_1  and  C_2
REMARK    2  A    between atoms: C_2  and  C_4
REMARK    3  A    between atoms: C_4  and  C_5
REMARK    4  A    between atoms: C_5  and  O_6
REMARK                            x       y       z     vdW  Elec       q    Type
REMARK                         _______ _______ _______ _____ _____    ______ ____
ROOT
ATOM      1  C   UNL     1       8.492  -4.198  26.413  0.00  0.00    +0.101 C 
ENDROOT
BRANCH   1   3
ATOM      2  C   UNL     1       6.339  -5.439  25.767  0.00  0.00    +0.086 C 
ATOM      3  C   UNL     1       7.451  -5.241  26.764  0.00  0.00    +0.132 C 
ATOM      4  O   UNL     1       7.513  -5.915  27.792  0.00  0.00    -0.298 OA
ENDBRANCH   1   3
BRANCH   1   5
ATOM      5  C   UNL     1       9.514  -4.731  25.422  0.00  0.00    +0.163 C 
BRANCH   5   6
ATOM      6  O   UNL     1       9.770  -6.110  25.663  0.00  0.00    -0.395 OA
ATOM      7  H   UNL     1       9.885  -6.520  24.781  0.00  0.00    +0.209 HD
ENDBRANCH   5   6
ENDBRANCH   1   5
TORSDOF 3
ENDMDL
MODEL 4
REMARK VINA RESULT:      -2.9      5.737      6.177
REMARK  Name = 
REMARK  4 active torsions:
REMARK  status: ('A' for Active; 'I' for Inactive)
REMARK    1  A    between atoms: C_1  and  C_2
REMARK    2  A    between atoms: C_2  and  C_4
REMARK    3  A    between atoms: C_4  and  C_5
REMARK    4  A    between atoms: C_5  and  O_6
REMARK                            x       y       z     vdW  Elec       q    Type
REMARK                         _______ _______ _______ _____ _____    ______ ____
ROOT
ATOM      1  C   UNL     1       9.874   0.852  21.872  0.00  0.00    +0.101 C 
ENDROOT
BRANCH   1   3
ATOM      2  C   UNL     1       9.855   2.274  24.009  0.00  0.00    +0.086 C 
ATOM      3  C   UNL     1      10.213   0.972  23.343  0.00  0.00    +0.132 C 
ATOM      4  O   UNL     1      10.730   0.051  23.978  0.00  0.00    -0.298 OA
ENDBRANCH   1   3
BRANCH   1   5
ATOM      5  C   UNL     1       9.284  -0.509  21.537  0.00  0.00    +0.163 C 
BRANCH   5   6
ATOM      6  O   UNL     1      10.298  -1.508  21.546  0.00  0.00    -0.395 OA
ATOM      7  H   UNL     1      10.690  -1.500  20.649  0.00  0.00    +0.209 HD
ENDBRANCH   5   6
ENDBRANCH   1   5
TORSDOF 3
ENDMDL
MODEL 5
REMARK VINA RESULT:      -2.9      5.083      5.425
REMARK  Name = 
REMARK  4 active torsions:
REMARK  status: ('A' for Active; 'I' for Inactive)
REMARK    1  A    between atoms: C_1  and  C_2
REMARK    2  A    between atoms: C_2  and  C_4
REMARK    3  A    between atoms: C_4  and  C_5
REMARK    4  A    between atoms: C_5  and  O_6
REMARK                            x       y       z     vdW  Elec       q    Type
REMARK                         _______ _______ _______ _____ _____    ______ ____
ROOT
ATOM      1  C   UNL     1       8.864   0.712  23.046  0.00  0.00    +0.101 C 
ENDROOT
BRANCH   1   3
ATOM      2  C   UNL     1      10.786   0.560  24.741  0.00  0.00    +0.086 C 
ATOM      3  C   UNL     1       9.684   1.383  24.129  0.00  0.00    +0.132 C 
ATOM      4  O   UNL     1       9.486   2.547  24.480  0.00  0.00    -0.298 OA
ENDBRANCH   1   3
BRANCH   1   5
ATOM      5  C   UNL     1       9.485   0.897  21.671  0.00  0.00    +0.163 C 
BRANCH   5   6
ATOM      6  O   UNL     1      10.098   2.177  21.569  0.00  0.00    -0.395 OA
ATOM      7  H   UNL     1       9.494   2.800  22.024  0.00  0.00    +0.209 HD
ENDBRANCH   5   6
ENDBRANCH   1   5
TORSDOF 3
ENDMDL
MODEL 6
REMARK VINA RESULT:      -2.8      9.925     10.483
REMARK  Name = 
REMARK  4 active torsions:
REMARK  status: ('A' for Active; 'I' for Inactive)
REMARK    1  A    between atoms: C_1  and  C_2
REMARK    2  A    between atoms: C_2  and  C_4
REMARK    3  A    between atoms: C_4  and  C_5
REMARK    4  A    between atoms: C_5  and  O_6
REMARK                            x       y       z     vdW  Elec       q    Type
REMARK                         _______ _______ _______ _____ _____    ______ ____
ROOT
ATOM      1  C   UNL     1       8.790  -3.604  25.713  0.00  0.00    +0.101 C 
ENDROOT
BRANCH   1   3
ATOM      2  C   UNL     1       7.968  -3.655  23.281  0.00  0.00    +0.086 C 
ATOM      3  C   UNL     1       9.100  -3.405  24.243  0.00  0.00    +0.132 C 
ATOM      4  O   UNL     1      10.205  -3.035  23.846  0.00  0.00    -0.298 OA
ENDBRANCH   1   3
BRANCH   1   5
ATOM      5  C   UNL     1       9.272  -4.955  26.214  0.00  0.00    +0.163 C 
BRANCH   5   6
ATOM      6  O   UNL     1      10.314  -5.453  25.383  0.00  0.00    -0.395 OA
ATOM      7  H   UNL     1       9.875  -5.792  24.577  0.00  0.00    +0.209 HD
ENDBRANCH   5   6
ENDBRANCH   1   5
TORSDOF 3
ENDMDL
MODEL 7
REMARK VINA RESULT:      -2.8     11.658     12.235
REMARK  Name = 
REMARK  4 active torsions:
REMARK  status: ('A' for Active; 'I' for Inactive)
REMARK    1  A    between atoms: C_1  and  C_2
REMARK    2  A    between atoms: C_2  and  C_4
REMARK    3  A    between atoms: C_4  and  C_5
REMARK    4  A    between atoms: C_5  and  O_6
REMARK                            x       y       z     vdW  Elec       q    Type
REMARK                         _______ _______ _______ _____ _____    ______ ____
ROOT
ATOM      1  C   UNL     1       7.284  -4.441  25.303  0.00  0.00    +0.101 C 
ENDROOT
BRANCH   1   3
ATOM      2  C   UNL     1       7.463  -5.358  22.912  0.00  0.00    +0.086 C 
ATOM      3  C   UNL     1       8.132  -5.104  24.237  0.00  0.00    +0.132 C 
ATOM      4  O   UNL     1       9.313  -5.398  24.423  0.00  0.00    -0.298 OA
ENDBRANCH   1   3
BRANCH   1   5
ATOM      5  C   UNL     1       6.927  -5.406  26.422  0.00  0.00    +0.163 C 
BRANCH   5   6
ATOM      6  O   UNL     1       8.104  -5.887  27.060  0.00  0.00    -0.395 OA
ATOM      7  H   UNL     1       8.843  -5.361  26.691  0.00  0.00    +0.209 HD
ENDBRANCH   5   6
ENDBRANCH   1   5
TORSDOF 3
ENDMDL
MODEL 8
REMARK VINA RESULT:      -2.8      5.733      6.329
REMARK  Name = 
REMARK  4 active torsions:
REMARK  status: ('A' for Active; 'I' for Inactive)
REMARK    1  A    between atoms: C_1  and  C_2
REMARK    2  A    between atoms: C_2  and  C_4
REMARK    3  A    between atoms: C_4  and  C_5
REMARK    4  A    between atoms: C_5  and  O_6
REMARK                            x       y       z     vdW  Elec       q    Type
REMARK                         _______ _______ _______ _____ _____    ______ ____
ROOT
ATOM      1  C   UNL     1      10.366   0.865  23.576  0.00  0.00    +0.101 C 
ENDROOT
BRANCH   1   3
ATOM      2  C   UNL     1      10.281  -1.434  22.435  0.00  0.00    +0.086 C 
ATOM      3  C   UNL     1       9.576  -0.146  22.770  0.00  0.00    +0.132 C 
ATOM      4  O   UNL     1       8.410   0.052  22.425  0.00  0.00    -0.298 OA
ENDBRANCH   1   3
BRANCH   1   5
ATOM      5  C   UNL     1      10.257   2.264  22.991  0.00  0.00    +0.163 C 
BRANCH   5   6
ATOM      6  O   UNL     1      10.151   2.204  21.573  0.00  0.00    -0.395 OA
ATOM      7  H   UNL     1       9.573   2.952  21.316  0.00  0.00    +0.209 HD
ENDBRANCH   5   6
ENDBRANCH   1   5
TORSDOF 3
ENDMDL
MODEL 9
REMARK VINA RESULT:      -2.7      6.422      7.031
REMARK  Name = 
REMARK  4 active torsions:
REMARK  status: ('A' for Active; 'I' for Inactive)
REMARK    1  A    between atoms: C_1  and  C_2
REMARK    2  A    between atoms: C_2  and  C_4
REMARK    3  A    between atoms: C_4  and  C_5
REMARK    4  A    between atoms: C_5  and  O_6
REMARK                            x       y       z     vdW  Elec       q    Type
REMARK                         _______ _______ _______ _____ _____    ______ ____
ROOT
ATOM      1  C   UNL     1      10.353  -0.157  23.580  0.00  0.00    +0.101 C 
ENDROOT
BRANCH   1   3
ATOM      2  C   UNL     1      10.012   1.868  22.038  0.00  0.00    +0.086 C 
ATOM      3  C   UNL     1       9.915   0.377  22.231  0.00  0.00    +0.132 C 
ATOM      4  O   UNL     1       9.526  -0.360  21.325  0.00  0.00    -0.298 OA
ENDBRANCH   1   3
BRANCH   1   5
ATOM      5  C   UNL     1       9.832  -1.564  23.826  0.00  0.00    +0.163 C 
BRANCH   5   6
ATOM      6  O   UNL     1      10.509  -2.499  22.994  0.00  0.00    -0.395 OA
ATOM      7  H   UNL     1      11.427  -2.167  22.910  0.00  0.00    +0.209 HD
ENDBRANCH   5   6
ENDBRANCH   1   5
TORSDOF 3
ENDMDL
