MODEL 1
REMARK VINA RESULT:      -7.4      0.000      0.000
REMARK  Name = 
REMARK  11 active torsions:
REMARK  status: ('A' for Active; 'I' for Inactive)
REMARK    1  A    between atoms: C_1  and  O_2
REMARK    2  A    between atoms: O_2  and  C_3
REMARK    3  A    between atoms: C_5  and  O_6
REMARK    4  A    between atoms: C_7  and  C_15
REMARK    5  A    between atoms: C_9  and  C_10
REMARK    6  A    between atoms: C_10  and  C_11
REMARK    7  A    between atoms: C_12  and  C_13
REMARK    8  A    between atoms: C_12  and  C_14
REMARK    9  A    between atoms: C_15  and  C_17
REMARK   10  A    between atoms: C_18  and  C_19
REMARK   11  A    between atoms: C_22  and  O_23
REMARK                            x       y       z     vdW  Elec       q    Type
REMARK                         _______ _______ _______ _____ _____    ______ ____
ROOT
ATOM      1  C   UNL     1       4.622  -5.371  25.926  0.00  0.00    +0.127 A 
ATOM      2  C   UNL     1       4.884  -5.045  24.581  0.00  0.00    -0.001 A 
ATOM      3  C   UNL     1       6.231  -4.888  24.181  0.00  0.00    +0.022 A 
ATOM      4  C   UNL     1       7.287  -5.043  25.096  0.00  0.00    +0.064 A 
ATOM      5  C   UNL     1       7.001  -5.472  26.393  0.00  0.00    +0.131 A 
ATOM      6  C   UNL     1       5.683  -5.644  26.800  0.00  0.00    +0.092 A 
ENDROOT
BRANCH   1   8
ATOM      7  C   UNL     1       2.822  -6.699  26.686  0.00  0.00    +0.277 C 
ATOM      8  O   UNL     1       3.314  -5.396  26.350  0.00  0.00    -0.495 OA
ENDBRANCH   1   8
BRANCH   4   9
ATOM      9  C   UNL     1       8.673  -4.731  24.651  0.00  0.00    +0.190 C 
ATOM     10  O   UNL     1       9.589  -5.523  24.844  0.00  0.00    -0.287 OA
BRANCH   9  11
ATOM     11  C   UNL     1       8.872  -3.468  23.885  0.00  0.00    +0.052 C 
ATOM     12  C   UNL     1       9.604  -2.458  24.377  0.00  0.00    +0.012 C 
BRANCH  12  13
ATOM     13  C   UNL     1       9.790  -1.181  23.670  0.00  0.00    -0.025 A 
ATOM     14  C   UNL     1       9.513  -1.120  22.298  0.00  0.00    +0.011 A 
ATOM     15  C   UNL     1       9.645   0.082  21.597  0.00  0.00    +0.046 A 
ATOM     16  C   UNL     1      10.070   1.225  22.262  0.00  0.00    +0.117 A 
ATOM     17  C   UNL     1      10.397   1.179  23.612  0.00  0.00    +0.046 A 
ATOM     18  C   UNL     1      10.268  -0.026  24.310  0.00  0.00    +0.011 A 
BRANCH  16  19
ATOM     19  O   UNL     1      10.151   2.384  21.549  0.00  0.00    -0.507 OA
ATOM     20  H   UNL     1      10.499   2.181  20.665  0.00  0.00    +0.292 HD
ENDBRANCH  16  19
ENDBRANCH  12  13
ENDBRANCH   9  11
ENDBRANCH   4   9
BRANCH   5  21
ATOM     21  O   UNL     1       8.001  -5.729  27.293  0.00  0.00    -0.506 OA
ATOM     22  H   UNL     1       8.680  -6.288  26.881  0.00  0.00    +0.292 HD
ENDBRANCH   5  21
BRANCH   2  23
ATOM     23  C   UNL     1       3.783  -4.779  23.571  0.00  0.00    +0.066 C 
BRANCH  23  24
ATOM     24  C   UNL     1       3.097  -5.990  22.993  0.00  0.00    -0.023 C 
ATOM     25  C   UNL     1       1.773  -6.250  22.903  0.00  0.00    -0.079 C 
ATOM     26  C   UNL     1       1.269  -7.613  22.488  0.00  0.00    +0.038 C 
ATOM     27  C   UNL     1       0.671  -5.280  23.232  0.00  0.00    +0.038 C 
ENDBRANCH  23  24
ENDBRANCH   2  23
TORSDOF 8
ENDMDL
MODEL 2
REMARK VINA RESULT:      -6.9      1.410      2.097
REMARK  Name = 
REMARK  11 active torsions:
REMARK  status: ('A' for Active; 'I' for Inactive)
REMARK    1  A    between atoms: C_1  and  O_2
REMARK    2  A    between atoms: O_2  and  C_3
REMARK    3  A    between atoms: C_5  and  O_6
REMARK    4  A    between atoms: C_7  and  C_15
REMARK    5  A    between atoms: C_9  and  C_10
REMARK    6  A    between atoms: C_10  and  C_11
REMARK    7  A    between atoms: C_12  and  C_13
REMARK    8  A    between atoms: C_12  and  C_14
REMARK    9  A    between atoms: C_15  and  C_17
REMARK   10  A    between atoms: C_18  and  C_19
REMARK   11  A    between atoms: C_22  and  O_23
REMARK                            x       y       z     vdW  Elec       q    Type
REMARK                         _______ _______ _______ _____ _____    ______ ____
ROOT
ATOM      1  C   UNL     1       6.451  -4.969  27.467  0.00  0.00    +0.127 A 
ATOM      2  C   UNL     1       5.586  -4.588  26.422  0.00  0.00    -0.001 A 
ATOM      3  C   UNL     1       6.088  -4.596  25.101  0.00  0.00    +0.022 A 
ATOM      4  C   UNL     1       7.418  -4.964  24.827  0.00  0.00    +0.064 A 
ATOM      5  C   UNL     1       8.216  -5.439  25.869  0.00  0.00    +0.131 A 
ATOM      6  C   UNL     1       7.734  -5.452  27.173  0.00  0.00    +0.092 A 
ENDROOT
BRANCH   1   8
ATOM      7  C   UNL     1       5.798  -6.079  29.447  0.00  0.00    +0.277 C 
ATOM      8  O   UNL     1       6.010  -4.838  28.762  0.00  0.00    -0.495 OA
ENDBRANCH   1   8
BRANCH   4   9
ATOM      9  C   UNL     1       7.930  -4.820  23.436  0.00  0.00    +0.190 C 
ATOM     10  O   UNL     1       8.017  -5.793  22.695  0.00  0.00    -0.287 OA
BRANCH   9  11
ATOM     11  C   UNL     1       8.238  -3.440  22.965  0.00  0.00    +0.052 C 
ATOM     12  C   UNL     1       9.217  -2.713  23.521  0.00  0.00    +0.012 C 
BRANCH  12  13
ATOM     13  C   UNL     1       9.525  -1.333  23.112  0.00  0.00    -0.025 A 
ATOM     14  C   UNL     1       9.190  -0.921  21.815  0.00  0.00    +0.011 A 
ATOM     15  C   UNL     1       9.436   0.391  21.399  0.00  0.00    +0.046 A 
ATOM     16  C   UNL     1      10.032   1.292  22.272  0.00  0.00    +0.117 A 
ATOM     17  C   UNL     1      10.416   0.894  23.546  0.00  0.00    +0.046 A 
ATOM     18  C   UNL     1      10.173  -0.420  23.959  0.00  0.00    +0.011 A 
BRANCH  16  19
ATOM     19  O   UNL     1      10.221   2.570  21.837  0.00  0.00    -0.507 OA
ATOM     20  H   UNL     1      10.946   2.575  21.192  0.00  0.00    +0.292 HD
ENDBRANCH  16  19
ENDBRANCH  12  13
ENDBRANCH   9  11
ENDBRANCH   4   9
BRANCH   5  21
ATOM     21  O   UNL     1       9.485  -5.899  25.638  0.00  0.00    -0.506 OA
ATOM     22  H   UNL     1       9.453  -6.828  25.355  0.00  0.00    +0.292 HD
ENDBRANCH   5  21
BRANCH   2  23
ATOM     23  C   UNL     1       4.170  -4.098  26.666  0.00  0.00    +0.066 C 
BRANCH  23  24
ATOM     24  C   UNL     1       3.216  -4.197  25.503  0.00  0.00    -0.023 C 
ATOM     25  C   UNL     1       2.538  -5.278  25.055  0.00  0.00    -0.079 C 
ATOM     26  C   UNL     1       1.791  -5.244  23.743  0.00  0.00    +0.038 C 
ATOM     27  C   UNL     1       2.475  -6.614  25.745  0.00  0.00    +0.038 C 
ENDBRANCH  23  24
ENDBRANCH   2  23
TORSDOF 8
ENDMDL
MODEL 3
REMARK VINA RESULT:      -6.8      1.605      3.299
REMARK  Name = 
REMARK  11 active torsions:
REMARK  status: ('A' for Active; 'I' for Inactive)
REMARK    1  A    between atoms: C_1  and  O_2
REMARK    2  A    between atoms: O_2  and  C_3
REMARK    3  A    between atoms: C_5  and  O_6
REMARK    4  A    between atoms: C_7  and  C_15
REMARK    5  A    between atoms: C_9  and  C_10
REMARK    6  A    between atoms: C_10  and  C_11
REMARK    7  A    between atoms: C_12  and  C_13
REMARK    8  A    between atoms: C_12  and  C_14
REMARK    9  A    between atoms: C_15  and  C_17
REMARK   10  A    between atoms: C_18  and  C_19
REMARK   11  A    between atoms: C_22  and  O_23
REMARK                            x       y       z     vdW  Elec       q    Type
REMARK                         _______ _______ _______ _____ _____    ______ ____
ROOT
ATOM      1  C   UNL     1       5.151  -6.401  24.347  0.00  0.00    +0.127 A 
ATOM      2  C   UNL     1       5.677  -6.042  25.604  0.00  0.00    -0.001 A 
ATOM      3  C   UNL     1       6.880  -5.301  25.638  0.00  0.00    +0.022 A 
ATOM      4  C   UNL     1       7.547  -4.935  24.455  0.00  0.00    +0.064 A 
ATOM      5  C   UNL     1       6.944  -5.210  23.226  0.00  0.00    +0.131 A 
ATOM      6  C   UNL     1       5.754  -5.926  23.174  0.00  0.00    +0.092 A 
ENDROOT
BRANCH   1   8
ATOM      7  C   UNL     1       2.886  -6.646  23.723  0.00  0.00    +0.277 C 
ATOM      8  O   UNL     1       4.055  -7.230  24.309  0.00  0.00    -0.495 OA
ENDBRANCH   1   8
BRANCH   4   9
ATOM      9  C   UNL     1       8.878  -4.276  24.557  0.00  0.00    +0.190 C 
ATOM     10  O   UNL     1       9.893  -4.937  24.747  0.00  0.00    -0.287 OA
BRANCH   9  11
ATOM     11  C   UNL     1       8.928  -2.805  24.325  0.00  0.00    +0.052 C 
ATOM     12  C   UNL     1       9.881  -2.247  23.566  0.00  0.00    +0.012 C 
BRANCH  12  13
ATOM     13  C   UNL     1       9.988  -0.796  23.347  0.00  0.00    -0.025 A 
ATOM     14  C   UNL     1      10.287   0.033  24.436  0.00  0.00    +0.011 A 
ATOM     15  C   UNL     1      10.429   1.413  24.263  0.00  0.00    +0.046 A 
ATOM     16  C   UNL     1      10.257   1.972  23.004  0.00  0.00    +0.117 A 
ATOM     17  C   UNL     1       9.914   1.177  21.917  0.00  0.00    +0.046 A 
ATOM     18  C   UNL     1       9.769  -0.203  22.093  0.00  0.00    +0.011 A 
BRANCH  16  19
ATOM     19  O   UNL     1      10.440   3.316  22.874  0.00  0.00    -0.507 OA
ATOM     20  H   UNL     1       9.858   3.772  23.504  0.00  0.00    +0.292 HD
ENDBRANCH  16  19
ENDBRANCH  12  13
ENDBRANCH   9  11
ENDBRANCH   4   9
BRANCH   5  21
ATOM     21  O   UNL     1       7.505  -4.790  22.050  0.00  0.00    -0.506 OA
ATOM     22  H   UNL     1       7.090  -5.252  21.303  0.00  0.00    +0.292 HD
ENDBRANCH   5  21
BRANCH   2  23
ATOM     23  C   UNL     1       5.050  -6.485  26.913  0.00  0.00    +0.066 C 
BRANCH  23  24
ATOM     24  C   UNL     1       4.809  -5.408  27.939  0.00  0.00    -0.023 C 
ATOM     25  C   UNL     1       3.913  -4.396  27.909  0.00  0.00    -0.079 C 
ATOM     26  C   UNL     1       3.957  -3.280  28.927  0.00  0.00    +0.038 C 
ATOM     27  C   UNL     1       2.830  -4.223  26.879  0.00  0.00    +0.038 C 
ENDBRANCH  23  24
ENDBRANCH   2  23
TORSDOF 8
ENDMDL
MODEL 4
REMARK VINA RESULT:      -6.7      1.930      3.353
REMARK  Name = 
REMARK  11 active torsions:
REMARK  status: ('A' for Active; 'I' for Inactive)
REMARK    1  A    between atoms: C_1  and  O_2
REMARK    2  A    between atoms: O_2  and  C_3
REMARK    3  A    between atoms: C_5  and  O_6
REMARK    4  A    between atoms: C_7  and  C_15
REMARK    5  A    between atoms: C_9  and  C_10
REMARK    6  A    between atoms: C_10  and  C_11
REMARK    7  A    between atoms: C_12  and  C_13
REMARK    8  A    between atoms: C_12  and  C_14
REMARK    9  A    between atoms: C_15  and  C_17
REMARK   10  A    between atoms: C_18  and  C_19
REMARK   11  A    between atoms: C_22  and  O_23
REMARK                            x       y       z     vdW  Elec       q    Type
REMARK                         _______ _______ _______ _____ _____    ______ ____
ROOT
ATOM      1  C   UNL     1       3.351  -6.736  25.181  0.00  0.00    +0.127 A 
ATOM      2  C   UNL     1       4.301  -5.951  24.498  0.00  0.00    -0.001 A 
ATOM      3  C   UNL     1       5.507  -5.632  25.163  0.00  0.00    +0.022 A 
ATOM      4  C   UNL     1       5.758  -6.075  26.474  0.00  0.00    +0.064 A 
ATOM      5  C   UNL     1       4.847  -6.941  27.081  0.00  0.00    +0.131 A 
ATOM      6  C   UNL     1       3.661  -7.276  26.436  0.00  0.00    +0.092 A 
ENDROOT
BRANCH   1   8
ATOM      7  C   UNL     1       1.922  -8.263  24.083  0.00  0.00    +0.277 C 
ATOM      8  O   UNL     1       2.126  -6.940  24.591  0.00  0.00    -0.495 OA
ENDBRANCH   1   8
BRANCH   4   9
ATOM      9  C   UNL     1       6.982  -5.594  27.172  0.00  0.00    +0.190 C 
ATOM     10  O   UNL     1       7.280  -6.018  28.283  0.00  0.00    -0.287 OA
BRANCH   9  11
ATOM     11  C   UNL     1       7.866  -4.656  26.423  0.00  0.00    +0.052 C 
ATOM     12  C   UNL     1       7.703  -3.328  26.502  0.00  0.00    +0.012 C 
BRANCH  12  13
ATOM     13  C   UNL     1       8.528  -2.371  25.746  0.00  0.00    -0.025 A 
ATOM     14  C   UNL     1       9.203  -2.815  24.602  0.00  0.00    +0.011 A 
ATOM     15  C   UNL     1       9.970  -1.930  23.839  0.00  0.00    +0.046 A 
ATOM     16  C   UNL     1      10.078  -0.600  24.226  0.00  0.00    +0.117 A 
ATOM     17  C   UNL     1       9.457  -0.147  25.383  0.00  0.00    +0.046 A 
ATOM     18  C   UNL     1       8.693  -1.036  26.147  0.00  0.00    +0.011 A 
BRANCH  16  19
ATOM     19  O   UNL     1      10.806   0.236  23.434  0.00  0.00    -0.507 OA
ATOM     20  H   UNL     1      10.303   0.413  22.623  0.00  0.00    +0.292 HD
ENDBRANCH  16  19
ENDBRANCH  12  13
ENDBRANCH   9  11
ENDBRANCH   4   9
BRANCH   5  21
ATOM     21  O   UNL     1       5.090  -7.476  28.318  0.00  0.00    -0.506 OA
ATOM     22  H   UNL     1       4.872  -8.423  28.316  0.00  0.00    +0.292 HD
ENDBRANCH   5  21
BRANCH   2  23
ATOM     23  C   UNL     1       4.048  -5.371  23.118  0.00  0.00    +0.066 C 
BRANCH  23  24
ATOM     24  C   UNL     1       4.839  -4.141  22.753  0.00  0.00    -0.023 C 
ATOM     25  C   UNL     1       6.081  -4.059  22.225  0.00  0.00    -0.079 C 
ATOM     26  C   UNL     1       6.802  -2.735  22.124  0.00  0.00    +0.038 C 
ATOM     27  C   UNL     1       6.897  -5.224  21.734  0.00  0.00    +0.038 C 
ENDBRANCH  23  24
ENDBRANCH   2  23
TORSDOF 8
ENDMDL
MODEL 5
REMARK VINA RESULT:      -6.5      3.346      6.381
REMARK  Name = 
REMARK  11 active torsions:
REMARK  status: ('A' for Active; 'I' for Inactive)
REMARK    1  A    between atoms: C_1  and  O_2
REMARK    2  A    between atoms: O_2  and  C_3
REMARK    3  A    between atoms: C_5  and  O_6
REMARK    4  A    between atoms: C_7  and  C_15
REMARK    5  A    between atoms: C_9  and  C_10
REMARK    6  A    between atoms: C_10  and  C_11
REMARK    7  A    between atoms: C_12  and  C_13
REMARK    8  A    between atoms: C_12  and  C_14
REMARK    9  A    between atoms: C_15  and  C_17
REMARK   10  A    between atoms: C_18  and  C_19
REMARK   11  A    between atoms: C_22  and  O_23
REMARK                            x       y       z     vdW  Elec       q    Type
REMARK                         _______ _______ _______ _____ _____    ______ ____
ROOT
ATOM      1  C   UNL     1       6.873  -3.475  22.807  0.00  0.00    +0.127 A 
ATOM      2  C   UNL     1       7.704  -2.364  23.052  0.00  0.00    -0.001 A 
ATOM      3  C   UNL     1       7.222  -1.343  23.902  0.00  0.00    +0.022 A 
ATOM      4  C   UNL     1       5.944  -1.420  24.485  0.00  0.00    +0.064 A 
ATOM      5  C   UNL     1       5.190  -2.582  24.311  0.00  0.00    +0.131 A 
ATOM      6  C   UNL     1       5.655  -3.603  23.489  0.00  0.00    +0.092 A 
ENDROOT
BRANCH   1   8
ATOM      7  C   UNL     1       7.242  -5.762  22.342  0.00  0.00    +0.277 C 
ATOM      8  O   UNL     1       7.281  -4.406  21.881  0.00  0.00    -0.495 OA
ENDBRANCH   1   8
BRANCH   4   9
ATOM      9  C   UNL     1       5.437  -0.254  25.259  0.00  0.00    +0.190 C 
ATOM     10  O   UNL     1       4.548  -0.390  26.092  0.00  0.00    -0.287 OA
BRANCH   9  11
ATOM     11  C   UNL     1       6.118   1.054  25.040  0.00  0.00    +0.052 C 
ATOM     12  C   UNL     1       6.212   1.599  23.820  0.00  0.00    +0.012 C 
BRANCH  12  13
ATOM     13  C   UNL     1       6.913   2.867  23.557  0.00  0.00    -0.025 A 
ATOM     14  C   UNL     1       7.973   3.240  24.393  0.00  0.00    +0.011 A 
ATOM     15  C   UNL     1       8.684   4.420  24.158  0.00  0.00    +0.046 A 
ATOM     16  C   UNL     1       8.329   5.240  23.095  0.00  0.00    +0.117 A 
ATOM     17  C   UNL     1       7.251   4.916  22.280  0.00  0.00    +0.046 A 
ATOM     18  C   UNL     1       6.538   3.736  22.520  0.00  0.00    +0.011 A 
BRANCH  16  19
ATOM     19  O   UNL     1       9.071   6.363  22.881  0.00  0.00    -0.507 OA
ATOM     20  H   UNL     1       8.771   7.055  23.492  0.00  0.00    +0.292 HD
ENDBRANCH  16  19
ENDBRANCH  12  13
ENDBRANCH   9  11
ENDBRANCH   4   9
BRANCH   5  21
ATOM     21  O   UNL     1       3.983  -2.746  24.936  0.00  0.00    -0.506 OA
ATOM     22  H   UNL     1       4.047  -2.452  25.859  0.00  0.00    +0.292 HD
ENDBRANCH   5  21
BRANCH   2  23
ATOM     23  C   UNL     1       9.053  -2.184  22.381  0.00  0.00    +0.066 C 
BRANCH  23  24
ATOM     24  C   UNL     1       9.351  -0.812  21.832  0.00  0.00    -0.023 C 
ATOM     25  C   UNL     1       9.931   0.240  22.453  0.00  0.00    -0.079 C 
ATOM     26  C   UNL     1       9.956   1.609  21.815  0.00  0.00    +0.038 C 
ATOM     27  C   UNL     1      10.560   0.206  23.820  0.00  0.00    +0.038 C 
ENDBRANCH  23  24
ENDBRANCH   2  23
TORSDOF 8
ENDMDL
MODEL 6
REMARK VINA RESULT:      -6.5      2.766      8.077
REMARK  Name = 
REMARK  11 active torsions:
REMARK  status: ('A' for Active; 'I' for Inactive)
REMARK    1  A    between atoms: C_1  and  O_2
REMARK    2  A    between atoms: O_2  and  C_3
REMARK    3  A    between atoms: C_5  and  O_6
REMARK    4  A    between atoms: C_7  and  C_15
REMARK    5  A    between atoms: C_9  and  C_10
REMARK    6  A    between atoms: C_10  and  C_11
REMARK    7  A    between atoms: C_12  and  C_13
REMARK    8  A    between atoms: C_12  and  C_14
REMARK    9  A    between atoms: C_15  and  C_17
REMARK   10  A    between atoms: C_18  and  C_19
REMARK   11  A    between atoms: C_22  and  O_23
REMARK                            x       y       z     vdW  Elec       q    Type
REMARK                         _______ _______ _______ _____ _____    ______ ____
ROOT
ATOM      1  C   UNL     1       7.830   0.904  22.358  0.00  0.00    +0.127 A 
ATOM      2  C   UNL     1       7.214   0.362  23.504  0.00  0.00    -0.001 A 
ATOM      3  C   UNL     1       7.646  -0.905  23.959  0.00  0.00    +0.022 A 
ATOM      4  C   UNL     1       8.655  -1.618  23.286  0.00  0.00    +0.064 A 
ATOM      5  C   UNL     1       9.319  -1.007  22.221  0.00  0.00    +0.131 A 
ATOM      6  C   UNL     1       8.917   0.245  21.769  0.00  0.00    +0.092 A 
ENDROOT
BRANCH   1   8
ATOM      7  C   UNL     1       7.988   3.260  22.288  0.00  0.00    +0.277 C 
ATOM      8  O   UNL     1       7.326   2.072  21.836  0.00  0.00    -0.495 OA
ENDBRANCH   1   8
BRANCH   4   9
ATOM      9  C   UNL     1       8.971  -3.004  23.729  0.00  0.00    +0.190 C 
ATOM     10  O   UNL     1      10.109  -3.312  24.066  0.00  0.00    -0.287 OA
BRANCH   9  11
ATOM     11  C   UNL     1       7.832  -3.960  23.831  0.00  0.00    +0.052 C 
ATOM     12  C   UNL     1       7.371  -4.375  25.019  0.00  0.00    +0.012 C 
BRANCH  12  13
ATOM     13  C   UNL     1       6.277  -5.349  25.161  0.00  0.00    -0.025 A 
ATOM     14  C   UNL     1       5.595  -5.774  24.013  0.00  0.00    +0.011 A 
ATOM     15  C   UNL     1       4.572  -6.721  24.102  0.00  0.00    +0.046 A 
ATOM     16  C   UNL     1       4.215  -7.238  25.340  0.00  0.00    +0.117 A 
ATOM     17  C   UNL     1       4.843  -6.797  26.499  0.00  0.00    +0.046 A 
ATOM     18  C   UNL     1       5.864  -5.846  26.408  0.00  0.00    +0.011 A 
BRANCH  16  19
ATOM     19  O   UNL     1       3.236  -8.186  25.377  0.00  0.00    -0.507 OA
ATOM     20  H   UNL     1       3.319  -8.686  26.205  0.00  0.00    +0.292 HD
ENDBRANCH  16  19
ENDBRANCH  12  13
ENDBRANCH   9  11
ENDBRANCH   4   9
BRANCH   5  21
ATOM     21  O   UNL     1      10.372  -1.620  21.595  0.00  0.00    -0.506 OA
ATOM     22  H   UNL     1      11.135  -1.019  21.569  0.00  0.00    +0.292 HD
ENDBRANCH   5  21
BRANCH   2  23
ATOM     23  C   UNL     1       6.061   1.044  24.217  0.00  0.00    +0.066 C 
BRANCH  23  24
ATOM     24  C   UNL     1       6.057   0.956  25.722  0.00  0.00    -0.023 C 
ATOM     25  C   UNL     1       6.664   1.766  26.618  0.00  0.00    -0.079 C 
ATOM     26  C   UNL     1       6.731   1.402  28.083  0.00  0.00    +0.038 C 
ATOM     27  C   UNL     1       7.365   3.057  26.290  0.00  0.00    +0.038 C 
ENDBRANCH  23  24
ENDBRANCH   2  23
TORSDOF 8
ENDMDL
MODEL 7
REMARK VINA RESULT:      -6.4      4.117      8.776
REMARK  Name = 
REMARK  11 active torsions:
REMARK  status: ('A' for Active; 'I' for Inactive)
REMARK    1  A    between atoms: C_1  and  O_2
REMARK    2  A    between atoms: O_2  and  C_3
REMARK    3  A    between atoms: C_5  and  O_6
REMARK    4  A    between atoms: C_7  and  C_15
REMARK    5  A    between atoms: C_9  and  C_10
REMARK    6  A    between atoms: C_10  and  C_11
REMARK    7  A    between atoms: C_12  and  C_13
REMARK    8  A    between atoms: C_12  and  C_14
REMARK    9  A    between atoms: C_15  and  C_17
REMARK   10  A    between atoms: C_18  and  C_19
REMARK   11  A    between atoms: C_22  and  O_23
REMARK                            x       y       z     vdW  Elec       q    Type
REMARK                         _______ _______ _______ _____ _____    ______ ____
ROOT
ATOM      1  C   UNL     1       6.763   4.116  22.602  0.00  0.00    +0.127 A 
ATOM      2  C   UNL     1       7.703   3.185  23.086  0.00  0.00    -0.001 A 
ATOM      3  C   UNL     1       7.226   2.066  23.805  0.00  0.00    +0.022 A 
ATOM      4  C   UNL     1       5.852   1.882  24.045  0.00  0.00    +0.064 A 
ATOM      5  C   UNL     1       4.941   2.762  23.459  0.00  0.00    +0.131 A 
ATOM      6  C   UNL     1       5.392   3.861  22.736  0.00  0.00    +0.092 A 
ENDROOT
BRANCH   1   8
ATOM      7  C   UNL     1       6.871   6.474  22.707  0.00  0.00    +0.277 C 
ATOM      8  O   UNL     1       7.228   5.270  22.016  0.00  0.00    -0.495 OA
ENDBRANCH   1   8
BRANCH   4   9
ATOM      9  C   UNL     1       5.421   0.761  24.924  0.00  0.00    +0.190 C 
ATOM     10  O   UNL     1       4.448   0.878  25.660  0.00  0.00    -0.287 OA
BRANCH   9  11
ATOM     11  C   UNL     1       6.164  -0.525  24.799  0.00  0.00    +0.052 C 
ATOM     12  C   UNL     1       6.995  -0.951  25.761  0.00  0.00    +0.012 C 
BRANCH  12  13
ATOM     13  C   UNL     1       7.777  -2.193  25.657  0.00  0.00    -0.025 A 
ATOM     14  C   UNL     1       8.656  -2.350  24.578  0.00  0.00    +0.011 A 
ATOM     15  C   UNL     1       9.440  -3.501  24.459  0.00  0.00    +0.046 A 
ATOM     16  C   UNL     1       9.338  -4.506  25.412  0.00  0.00    +0.117 A 
ATOM     17  C   UNL     1       8.439  -4.395  26.466  0.00  0.00    +0.046 A 
ATOM     18  C   UNL     1       7.652  -3.244  26.579  0.00  0.00    +0.011 A 
BRANCH  16  19
ATOM     19  O   UNL     1      10.147  -5.595  25.278  0.00  0.00    -0.507 OA
ATOM     20  H   UNL     1      10.729  -5.647  26.054  0.00  0.00    +0.292 HD
ENDBRANCH  16  19
ENDBRANCH  12  13
ENDBRANCH   9  11
ENDBRANCH   4   9
BRANCH   5  21
ATOM     21  O   UNL     1       3.590   2.571  23.582  0.00  0.00    -0.506 OA
ATOM     22  H   UNL     1       3.397   2.111  24.415  0.00  0.00    +0.292 HD
ENDBRANCH   5  21
BRANCH   2  23
ATOM     23  C   UNL     1       9.201   3.377  22.936  0.00  0.00    +0.066 C 
BRANCH  23  24
ATOM     24  C   UNL     1      10.079   2.512  23.804  0.00  0.00    -0.023 C 
ATOM     25  C   UNL     1      10.414   1.212  23.640  0.00  0.00    -0.079 C 
ATOM     26  C   UNL     1      11.130   0.445  24.727  0.00  0.00    +0.038 C 
ATOM     27  C   UNL     1      10.093   0.377  22.430  0.00  0.00    +0.038 C 
ENDBRANCH  23  24
ENDBRANCH   2  23
TORSDOF 8
ENDMDL
MODEL 8
REMARK VINA RESULT:      -6.4      3.268      8.336
REMARK  Name = 
REMARK  11 active torsions:
REMARK  status: ('A' for Active; 'I' for Inactive)
REMARK    1  A    between atoms: C_1  and  O_2
REMARK    2  A    between atoms: O_2  and  C_3
REMARK    3  A    between atoms: C_5  and  O_6
REMARK    4  A    between atoms: C_7  and  C_15
REMARK    5  A    between atoms: C_9  and  C_10
REMARK    6  A    between atoms: C_10  and  C_11
REMARK    7  A    between atoms: C_12  and  C_13
REMARK    8  A    between atoms: C_12  and  C_14
REMARK    9  A    between atoms: C_15  and  C_17
REMARK   10  A    between atoms: C_18  and  C_19
REMARK   11  A    between atoms: C_22  and  O_23
REMARK                            x       y       z     vdW  Elec       q    Type
REMARK                         _______ _______ _______ _____ _____    ______ ____
ROOT
ATOM      1  C   UNL     1       8.801   2.716  23.652  0.00  0.00    +0.127 A 
ATOM      2  C   UNL     1       8.039   2.125  22.624  0.00  0.00    -0.001 A 
ATOM      3  C   UNL     1       8.284   0.770  22.306  0.00  0.00    +0.022 A 
ATOM      4  C   UNL     1       9.266   0.025  22.985  0.00  0.00    +0.064 A 
ATOM      5  C   UNL     1       9.925   0.607  24.069  0.00  0.00    +0.131 A 
ATOM      6  C   UNL     1       9.687   1.935  24.405  0.00  0.00    +0.092 A 
ENDROOT
BRANCH   1   8
ATOM      7  C   UNL     1       8.248   4.407  25.206  0.00  0.00    +0.277 C 
ATOM      8  O   UNL     1       8.659   4.065  23.877  0.00  0.00    -0.495 OA
ENDBRANCH   1   8
BRANCH   4   9
ATOM      9  C   UNL     1       9.573  -1.353  22.514  0.00  0.00    +0.190 C 
ATOM     10  O   UNL     1      10.713  -1.666  22.187  0.00  0.00    -0.287 OA
BRANCH   9  11
ATOM     11  C   UNL     1       8.463  -2.347  22.550  0.00  0.00    +0.052 C 
ATOM     12  C   UNL     1       8.472  -3.377  23.407  0.00  0.00    +0.012 C 
BRANCH  12  13
ATOM     13  C   UNL     1       7.416  -4.402  23.444  0.00  0.00    -0.025 A 
ATOM     14  C   UNL     1       6.774  -4.667  24.660  0.00  0.00    +0.011 A 
ATOM     15  C   UNL     1       5.743  -5.609  24.731  0.00  0.00    +0.046 A 
ATOM     16  C   UNL     1       5.361  -6.301  23.589  0.00  0.00    +0.117 A 
ATOM     17  C   UNL     1       6.015  -6.089  22.381  0.00  0.00    +0.046 A 
ATOM     18  C   UNL     1       7.048  -5.149  22.314  0.00  0.00    +0.011 A 
BRANCH  16  19
ATOM     19  O   UNL     1       4.328  -7.184  23.695  0.00  0.00    -0.507 OA
ATOM     20  H   UNL     1       3.614  -6.767  24.205  0.00  0.00    +0.292 HD
ENDBRANCH  16  19
ENDBRANCH  12  13
ENDBRANCH   9  11
ENDBRANCH   4   9
BRANCH   5  21
ATOM     21  O   UNL     1      10.820  -0.107  24.821  0.00  0.00    -0.506 OA
ATOM     22  H   UNL     1      10.750  -1.052  24.608  0.00  0.00    +0.292 HD
ENDBRANCH   5  21
BRANCH   2  23
ATOM     23  C   UNL     1       7.030   2.902  21.799  0.00  0.00    +0.066 C 
BRANCH  23  24
ATOM     24  C   UNL     1       5.691   3.155  22.442  0.00  0.00    -0.023 C 
ATOM     25  C   UNL     1       5.170   4.323  22.883  0.00  0.00    -0.079 C 
ATOM     26  C   UNL     1       3.899   4.355  23.698  0.00  0.00    +0.038 C 
ATOM     27  C   UNL     1       5.781   5.682  22.673  0.00  0.00    +0.038 C 
ENDBRANCH  23  24
ENDBRANCH   2  23
TORSDOF 8
ENDMDL
MODEL 9
REMARK VINA RESULT:      -6.3      3.410      5.073
REMARK  Name = 
REMARK  11 active torsions:
REMARK  status: ('A' for Active; 'I' for Inactive)
REMARK    1  A    between atoms: C_1  and  O_2
REMARK    2  A    between atoms: O_2  and  C_3
REMARK    3  A    between atoms: C_5  and  O_6
REMARK    4  A    between atoms: C_7  and  C_15
REMARK    5  A    between atoms: C_9  and  C_10
REMARK    6  A    between atoms: C_10  and  C_11
REMARK    7  A    between atoms: C_12  and  C_13
REMARK    8  A    between atoms: C_12  and  C_14
REMARK    9  A    between atoms: C_15  and  C_17
REMARK   10  A    between atoms: C_18  and  C_19
REMARK   11  A    between atoms: C_22  and  O_23
REMARK                            x       y       z     vdW  Elec       q    Type
REMARK                         _______ _______ _______ _____ _____    ______ ____
ROOT
ATOM      1  C   UNL     1       6.911  -2.212  25.468  0.00  0.00    +0.127 A 
ATOM      2  C   UNL     1       7.292  -1.873  24.154  0.00  0.00    -0.001 A 
ATOM      3  C   UNL     1       8.375  -0.982  23.981  0.00  0.00    +0.022 A 
ATOM      4  C   UNL     1       9.055  -0.436  25.085  0.00  0.00    +0.064 A 
ATOM      5  C   UNL     1       8.725  -0.875  26.368  0.00  0.00    +0.131 A 
ATOM      6  C   UNL     1       7.671  -1.762  26.556  0.00  0.00    +0.092 A 
ENDROOT
BRANCH   1   8
ATOM      7  C   UNL     1       5.569  -3.424  26.989  0.00  0.00    +0.277 C 
ATOM      8  O   UNL     1       5.779  -2.973  25.645  0.00  0.00    -0.495 OA
ENDBRANCH   1   8
BRANCH   4   9
ATOM      9  C   UNL     1      10.096   0.602  24.843  0.00  0.00    +0.190 C 
ATOM     10  O   UNL     1      11.254   0.425  25.203  0.00  0.00    -0.287 OA
BRANCH   9  11
ATOM     11  C   UNL     1       9.685   1.808  24.071  0.00  0.00    +0.052 C 
ATOM     12  C   UNL     1       8.652   2.569  24.457  0.00  0.00    +0.012 C 
BRANCH  12  13
ATOM     13  C   UNL     1       8.190   3.743  23.699  0.00  0.00    -0.025 A 
ATOM     14  C   UNL     1       8.985   4.897  23.687  0.00  0.00    +0.011 A 
ATOM     15  C   UNL     1       8.598   6.022  22.953  0.00  0.00    +0.046 A 
ATOM     16  C   UNL     1       7.407   6.003  22.239  0.00  0.00    +0.117 A 
ATOM     17  C   UNL     1       6.579   4.888  22.273  0.00  0.00    +0.046 A 
ATOM     18  C   UNL     1       6.966   3.765  23.012  0.00  0.00    +0.011 A 
BRANCH  16  19
ATOM     19  O   UNL     1       7.086   7.108  21.509  0.00  0.00    -0.507 OA
ATOM     20  H   UNL     1       7.361   6.963  20.589  0.00  0.00    +0.292 HD
ENDBRANCH  16  19
ENDBRANCH  12  13
ENDBRANCH   9  11
ENDBRANCH   4   9
BRANCH   5  21
ATOM     21  O   UNL     1       9.421  -0.446  27.466  0.00  0.00    -0.506 OA
ATOM     22  H   UNL     1       9.301   0.512  27.579  0.00  0.00    +0.292 HD
ENDBRANCH   5  21
BRANCH   2  23
ATOM     23  C   UNL     1       6.540  -2.361  22.930  0.00  0.00    +0.066 C 
BRANCH  23  24
ATOM     24  C   UNL     1       7.034  -3.641  22.305  0.00  0.00    -0.023 C 
ATOM     25  C   UNL     1       6.483  -4.875  22.354  0.00  0.00    -0.079 C 
ATOM     26  C   UNL     1       7.231  -6.087  21.850  0.00  0.00    +0.038 C 
ATOM     27  C   UNL     1       5.134  -5.203  22.934  0.00  0.00    +0.038 C 
ENDBRANCH  23  24
ENDBRANCH   2  23
TORSDOF 8
ENDMDL
