MODEL 1
REMARK VINA RESULT:      -5.1      0.000      0.000
REMARK  Name = 
REMARK  12 active torsions:
REMARK  status: ('A' for Active; 'I' for Inactive)
REMARK    1  A    between atoms: O_1  and  C_2
REMARK    2  A    between atoms: C_4  and  O_6
REMARK    3  A    between atoms: C_7  and  C_9
REMARK    4  A    between atoms: C_9  and  O_10
REMARK    5  A    between atoms: O_10  and  P_11
REMARK    6  A    between atoms: P_11  and  O_12
REMARK    7  A    between atoms: P_11  and  O_13
REMARK    8  A    between atoms: C_16  and  C_18
REMARK    9  A    between atoms: C_18  and  O_19
REMARK   10  A    between atoms: O_19  and  P_20
REMARK   11  A    between atoms: P_20  and  O_21
REMARK   12  A    between atoms: P_20  and  O_22
REMARK                            x       y       z     vdW  Elec       q    Type
REMARK                         _______ _______ _______ _____ _____    ______ ____
ROOT
ATOM      1  C   UNL     1       7.637  -0.683  22.845  0.00  0.00    +0.176 C 
ATOM      2  C   UNL     1       8.000  -0.564  24.338  0.00  0.00    +0.176 C 
ATOM      3  O   UNL     1       8.741  -1.756  24.695  0.00  0.00    -0.363 OA
ATOM      4  C   UNL     1       8.959  -2.542  23.491  0.00  0.00    +0.176 C 
ATOM      5  C   UNL     1       8.730  -1.599  22.303  0.00  0.00    +0.176 C 
ENDROOT
BRANCH   1   6
ATOM      6  O   UNL     1       6.374  -1.347  22.668  0.00  0.00    -0.386 OA
ATOM      7  H   UNL     1       5.671  -0.665  22.661  0.00  0.00    +0.210 HD
ENDBRANCH   1   6
BRANCH   5   8
ATOM      8  O   UNL     1       9.911  -0.836  22.058  0.00  0.00    -0.386 OA
ATOM      9  H   UNL     1      10.525  -1.417  21.562  0.00  0.00    +0.210 HD
ENDBRANCH   5   8
BRANCH   2  10
ATOM     10  C   UNL     1       8.826   0.683  24.683  0.00  0.00    +0.206 C 
BRANCH  10  11
ATOM     11  O   UNL     1       8.769   1.588  23.590  0.00  0.00    -0.284 OA
BRANCH  11  12
ATOM     12  P   UNL     1      10.135   2.634  23.412  0.00  0.00    +0.472 P 
ATOM     13  O   UNL     1      11.358   3.569  23.253  0.00  0.00    -0.228 OA
BRANCH  12  14
ATOM     14  O   UNL     1      10.173   2.193  21.838  0.00  0.00    -0.303 OA
ATOM     15  H   UNL     1       9.845   2.975  21.342  0.00  0.00    +0.222 HD
ENDBRANCH  12  14
BRANCH  12  16
ATOM     16  O   UNL     1      11.023   1.355  23.918  0.00  0.00    -0.303 OA
ATOM     17  H   UNL     1      11.863   1.670  24.253  0.00  0.00    +0.222 HD
ENDBRANCH  12  16
ENDBRANCH  11  12
ENDBRANCH  10  11
ENDBRANCH   2  10
BRANCH   4  18
ATOM     18  C   UNL     1       8.006  -3.746  23.552  0.00  0.00    +0.206 C 
BRANCH  18  19
ATOM     19  O   UNL     1       7.541  -4.143  22.261  0.00  0.00    -0.284 OA
BRANCH  19  20
ATOM     20  P   UNL     1       5.967  -4.859  22.322  0.00  0.00    +0.472 P 
ATOM     21  O   UNL     1       4.558  -5.500  22.377  0.00  0.00    -0.228 OA
BRANCH  20  22
ATOM     22  O   UNL     1       5.490  -3.696  21.272  0.00  0.00    -0.303 OA
ATOM     23  H   UNL     1       6.248  -3.367  20.758  0.00  0.00    +0.222 HD
ENDBRANCH  20  22
BRANCH  20  24
ATOM     24  O   UNL     1       5.736  -3.992  23.690  0.00  0.00    -0.303 OA
ATOM     25  H   UNL     1       4.843  -4.152  24.040  0.00  0.00    +0.222 HD
ENDBRANCH  20  24
ENDBRANCH  19  20
ENDBRANCH  18  19
ENDBRANCH   4  18
TORSDOF 12
ENDMDL
MODEL 2
REMARK VINA RESULT:      -5.1      0.214      6.469
REMARK  Name = 
REMARK  12 active torsions:
REMARK  status: ('A' for Active; 'I' for Inactive)
REMARK    1  A    between atoms: O_1  and  C_2
REMARK    2  A    between atoms: C_4  and  O_6
REMARK    3  A    between atoms: C_7  and  C_9
REMARK    4  A    between atoms: C_9  and  O_10
REMARK    5  A    between atoms: O_10  and  P_11
REMARK    6  A    between atoms: P_11  and  O_12
REMARK    7  A    between atoms: P_11  and  O_13
REMARK    8  A    between atoms: C_16  and  C_18
REMARK    9  A    between atoms: C_18  and  O_19
REMARK   10  A    between atoms: O_19  and  P_20
REMARK   11  A    between atoms: P_20  and  O_21
REMARK   12  A    between atoms: P_20  and  O_22
REMARK                            x       y       z     vdW  Elec       q    Type
REMARK                         _______ _______ _______ _____ _____    ______ ____
ROOT
ATOM      1  C   UNL     1       8.519  -1.474  22.346  0.00  0.00    +0.176 C 
ATOM      2  C   UNL     1       8.862  -2.354  23.565  0.00  0.00    +0.176 C 
ATOM      3  O   UNL     1       8.493  -1.607  24.749  0.00  0.00    -0.363 OA
ATOM      4  C   UNL     1       7.837  -0.377  24.333  0.00  0.00    +0.176 C 
ATOM      5  C   UNL     1       7.403  -0.581  22.876  0.00  0.00    +0.176 C 
ENDROOT
BRANCH   1   6
ATOM      6  O   UNL     1       9.628  -0.632  21.984  0.00  0.00    -0.386 OA
ATOM      7  H   UNL     1      10.125  -0.418  22.800  0.00  0.00    +0.210 HD
ENDBRANCH   1   6
BRANCH   5   8
ATOM      8  O   UNL     1       6.166  -1.291  22.837  0.00  0.00    -0.386 OA
ATOM      9  H   UNL     1       5.872  -1.399  23.766  0.00  0.00    +0.210 HD
ENDBRANCH   5   8
BRANCH   2  10
ATOM     10  C   UNL     1       8.155  -3.717  23.570  0.00  0.00    +0.206 C 
BRANCH  10  11
ATOM     11  O   UNL     1       7.616  -3.958  22.278  0.00  0.00    -0.284 OA
BRANCH  11  12
ATOM     12  P   UNL     1       6.131  -4.845  22.242  0.00  0.00    +0.472 P 
ATOM     13  O   UNL     1       4.801  -5.637  22.210  0.00  0.00    -0.228 OA
BRANCH  12  14
ATOM     14  O   UNL     1       5.521  -3.639  21.320  0.00  0.00    -0.303 OA
ATOM     15  H   UNL     1       4.630  -3.455  21.690  0.00  0.00    +0.222 HD
ENDBRANCH  12  14
BRANCH  12  16
ATOM     16  O   UNL     1       5.795  -4.097  23.659  0.00  0.00    -0.303 OA
ATOM     17  H   UNL     1       6.305  -4.507  24.358  0.00  0.00    +0.222 HD
ENDBRANCH  12  16
ENDBRANCH  11  12
ENDBRANCH  10  11
ENDBRANCH   2  10
BRANCH   4  18
ATOM     18  C   UNL     1       8.836   0.770  24.554  0.00  0.00    +0.206 C 
BRANCH  18  19
ATOM     19  O   UNL     1       8.746   1.778  23.546  0.00  0.00    -0.284 OA
BRANCH  19  20
ATOM     20  P   UNL     1      10.197   2.712  23.419  0.00  0.00    +0.472 P 
ATOM     21  O   UNL     1      11.497   3.547  23.307  0.00  0.00    -0.228 OA
BRANCH  20  22
ATOM     22  O   UNL     1      10.237   2.278  21.840  0.00  0.00    -0.303 OA
ATOM     23  H   UNL     1      10.537   3.020  21.288  0.00  0.00    +0.222 HD
ENDBRANCH  20  22
BRANCH  20  24
ATOM     24  O   UNL     1      10.975   1.396  24.002  0.00  0.00    -0.303 OA
ATOM     25  H   UNL     1      10.337   0.783  24.406  0.00  0.00    +0.222 HD
ENDBRANCH  20  24
ENDBRANCH  19  20
ENDBRANCH  18  19
ENDBRANCH   4  18
TORSDOF 12
ENDMDL
MODEL 3
REMARK VINA RESULT:      -5.0      2.205      2.993
REMARK  Name = 
REMARK  12 active torsions:
REMARK  status: ('A' for Active; 'I' for Inactive)
REMARK    1  A    between atoms: O_1  and  C_2
REMARK    2  A    between atoms: C_4  and  O_6
REMARK    3  A    between atoms: C_7  and  C_9
REMARK    4  A    between atoms: C_9  and  O_10
REMARK    5  A    between atoms: O_10  and  P_11
REMARK    6  A    between atoms: P_11  and  O_12
REMARK    7  A    between atoms: P_11  and  O_13
REMARK    8  A    between atoms: C_16  and  C_18
REMARK    9  A    between atoms: C_18  and  O_19
REMARK   10  A    between atoms: O_19  and  P_20
REMARK   11  A    between atoms: P_20  and  O_21
REMARK   12  A    between atoms: P_20  and  O_22
REMARK                            x       y       z     vdW  Elec       q    Type
REMARK                         _______ _______ _______ _____ _____    ______ ____
ROOT
ATOM      1  C   UNL     1       7.950   1.088  22.770  0.00  0.00    +0.176 C 
ATOM      2  C   UNL     1       8.773   1.165  24.071  0.00  0.00    +0.176 C 
ATOM      3  O   UNL     1      10.027   0.485  23.825  0.00  0.00    -0.363 OA
ATOM      4  C   UNL     1      10.076   0.100  22.423  0.00  0.00    +0.176 C 
ATOM      5  C   UNL     1       9.024   0.948  21.697  0.00  0.00    +0.176 C 
ENDROOT
BRANCH   1   6
ATOM      6  O   UNL     1       7.135  -0.098  22.740  0.00  0.00    -0.386 OA
ATOM      7  H   UNL     1       7.725  -0.873  22.832  0.00  0.00    +0.210 HD
ENDBRANCH   1   6
BRANCH   5   8
ATOM      8  O   UNL     1       9.566   2.233  21.396  0.00  0.00    -0.386 OA
ATOM      9  H   UNL     1       9.266   2.461  20.490  0.00  0.00    +0.210 HD
ENDBRANCH   5   8
BRANCH   2  10
ATOM     10  C   UNL     1       9.045   2.597  24.554  0.00  0.00    +0.206 C 
BRANCH  10  11
ATOM     11  O   UNL     1       8.071   3.463  23.990  0.00  0.00    -0.284 OA
BRANCH  11  12
ATOM     12  P   UNL     1       8.623   5.056  23.599  0.00  0.00    +0.472 P 
ATOM     13  O   UNL     1       9.118   6.480  23.250  0.00  0.00    -0.228 OA
BRANCH  12  14
ATOM     14  O   UNL     1       8.041   4.807  22.092  0.00  0.00    -0.303 OA
ATOM     15  H   UNL     1       7.785   3.859  22.066  0.00  0.00    +0.222 HD
ENDBRANCH  12  14
BRANCH  12  16
ATOM     16  O   UNL     1      10.065   4.345  23.292  0.00  0.00    -0.303 OA
ATOM     17  H   UNL     1      10.701   5.019  23.050  0.00  0.00    +0.222 HD
ENDBRANCH  12  16
ENDBRANCH  11  12
ENDBRANCH  10  11
ENDBRANCH   2  10
BRANCH   4  18
ATOM     18  C   UNL     1       9.840  -1.417  22.358  0.00  0.00    +0.206 C 
BRANCH  18  19
ATOM     19  O   UNL     1      10.142  -2.073  23.591  0.00  0.00    -0.284 OA
BRANCH  19  20
ATOM     20  P   UNL     1       8.891  -3.165  24.077  0.00  0.00    +0.472 P 
ATOM     21  O   UNL     1       7.771  -4.143  24.512  0.00  0.00    -0.228 OA
BRANCH  20  22
ATOM     22  O   UNL     1       8.166  -2.838  22.644  0.00  0.00    -0.303 OA
ATOM     23  H   UNL     1       8.188  -1.883  22.460  0.00  0.00    +0.222 HD
ENDBRANCH  20  22
BRANCH  20  24
ATOM     24  O   UNL     1       8.255  -1.908  24.908  0.00  0.00    -0.303 OA
ATOM     25  H   UNL     1       7.369  -2.138  25.235  0.00  0.00    +0.222 HD
ENDBRANCH  20  24
ENDBRANCH  19  20
ENDBRANCH  18  19
ENDBRANCH   4  18
TORSDOF 12
ENDMDL
MODEL 4
REMARK VINA RESULT:      -5.0      2.265      3.143
REMARK  Name = 
REMARK  12 active torsions:
REMARK  status: ('A' for Active; 'I' for Inactive)
REMARK    1  A    between atoms: O_1  and  C_2
REMARK    2  A    between atoms: C_4  and  O_6
REMARK    3  A    between atoms: C_7  and  C_9
REMARK    4  A    between atoms: C_9  and  O_10
REMARK    5  A    between atoms: O_10  and  P_11
REMARK    6  A    between atoms: P_11  and  O_12
REMARK    7  A    between atoms: P_11  and  O_13
REMARK    8  A    between atoms: C_16  and  C_18
REMARK    9  A    between atoms: C_18  and  O_19
REMARK   10  A    between atoms: O_19  and  P_20
REMARK   11  A    between atoms: P_20  and  O_21
REMARK   12  A    between atoms: P_20  and  O_22
REMARK                            x       y       z     vdW  Elec       q    Type
REMARK                         _______ _______ _______ _____ _____    ______ ____
ROOT
ATOM      1  C   UNL     1      10.131  -0.401  22.158  0.00  0.00    +0.176 C 
ATOM      2  C   UNL     1       8.784   0.347  22.098  0.00  0.00    +0.176 C 
ATOM      3  O   UNL     1       8.063   0.027  23.312  0.00  0.00    -0.363 OA
ATOM      4  C   UNL     1       8.928  -0.773  24.166  0.00  0.00    +0.176 C 
ATOM      5  C   UNL     1      10.360  -0.568  23.656  0.00  0.00    +0.176 C 
ENDROOT
BRANCH   1   6
ATOM      6  O   UNL     1      10.023  -1.712  21.576  0.00  0.00    -0.386 OA
ATOM      7  H   UNL     1      10.928  -2.038  21.393  0.00  0.00    +0.210 HD
ENDBRANCH   1   6
BRANCH   5   8
ATOM      8  O   UNL     1      10.894   0.641  24.193  0.00  0.00    -0.386 OA
ATOM      9  H   UNL     1      11.621   0.919  23.596  0.00  0.00    +0.210 HD
ENDBRANCH   5   8
BRANCH   2  10
ATOM     10  C   UNL     1       8.921   1.870  21.963  0.00  0.00    +0.206 C 
BRANCH  10  11
ATOM     11  O   UNL     1       8.055   2.493  22.901  0.00  0.00    -0.284 OA
BRANCH  11  12
ATOM     12  P   UNL     1       8.767   3.750  23.854  0.00  0.00    +0.472 P 
ATOM     13  O   UNL     1       9.403   4.874  24.707  0.00  0.00    -0.228 OA
BRANCH  12  14
ATOM     14  O   UNL     1      10.186   3.400  23.121  0.00  0.00    -0.303 OA
ATOM     15  H   UNL     1      10.062   3.656  22.181  0.00  0.00    +0.222 HD
ENDBRANCH  12  14
BRANCH  12  16
ATOM     16  O   UNL     1       8.940   2.605  25.010  0.00  0.00    -0.303 OA
ATOM     17  H   UNL     1       9.114   3.031  25.849  0.00  0.00    +0.222 HD
ENDBRANCH  12  16
ENDBRANCH  11  12
ENDBRANCH  10  11
ENDBRANCH   2  10
BRANCH   4  18
ATOM     18  C   UNL     1       8.421  -2.222  24.100  0.00  0.00    +0.206 C 
BRANCH  18  19
ATOM     19  O   UNL     1       9.466  -3.178  24.285  0.00  0.00    -0.284 OA
BRANCH  19  20
ATOM     20  P   UNL     1       8.932  -4.575  25.155  0.00  0.00    +0.472 P 
ATOM     21  O   UNL     1       8.453  -5.826  25.932  0.00  0.00    -0.228 OA
BRANCH  20  22
ATOM     22  O   UNL     1      10.466  -5.136  25.027  0.00  0.00    -0.303 OA
ATOM     23  H   UNL     1      11.104  -4.405  25.100  0.00  0.00    +0.222 HD
ENDBRANCH  20  22
BRANCH  20  24
ATOM     24  O   UNL     1       8.398  -5.142  23.716  0.00  0.00    -0.303 OA
ATOM     25  H   UNL     1       8.034  -6.037  23.824  0.00  0.00    +0.222 HD
ENDBRANCH  20  24
ENDBRANCH  19  20
ENDBRANCH  18  19
ENDBRANCH   4  18
TORSDOF 12
ENDMDL
MODEL 5
REMARK VINA RESULT:      -5.0      2.045      6.590
REMARK  Name = 
REMARK  12 active torsions:
REMARK  status: ('A' for Active; 'I' for Inactive)
REMARK    1  A    between atoms: O_1  and  C_2
REMARK    2  A    between atoms: C_4  and  O_6
REMARK    3  A    between atoms: C_7  and  C_9
REMARK    4  A    between atoms: C_9  and  O_10
REMARK    5  A    between atoms: O_10  and  P_11
REMARK    6  A    between atoms: P_11  and  O_12
REMARK    7  A    between atoms: P_11  and  O_13
REMARK    8  A    between atoms: C_16  and  C_18
REMARK    9  A    between atoms: C_18  and  O_19
REMARK   10  A    between atoms: O_19  and  P_20
REMARK   11  A    between atoms: P_20  and  O_21
REMARK   12  A    between atoms: P_20  and  O_22
REMARK                            x       y       z     vdW  Elec       q    Type
REMARK                         _______ _______ _______ _____ _____    ______ ____
ROOT
ATOM      1  C   UNL     1       8.778   0.937  21.763  0.00  0.00    +0.176 C 
ATOM      2  C   UNL     1       9.805   0.067  22.516  0.00  0.00    +0.176 C 
ATOM      3  O   UNL     1       9.617   0.311  23.930  0.00  0.00    -0.363 OA
ATOM      4  C   UNL     1       8.464   1.182  24.100  0.00  0.00    +0.176 C 
ATOM      5  C   UNL     1       7.666   1.114  22.792  0.00  0.00    +0.176 C 
ENDROOT
BRANCH   1   6
ATOM      6  O   UNL     1       9.317   2.236  21.464  0.00  0.00    -0.386 OA
ATOM      7  H   UNL     1       9.892   2.151  20.676  0.00  0.00    +0.210 HD
ENDBRANCH   1   6
BRANCH   5   8
ATOM      8  O   UNL     1       6.832  -0.044  22.795  0.00  0.00    -0.386 OA
ATOM      9  H   UNL     1       6.740  -0.329  21.861  0.00  0.00    +0.210 HD
ENDBRANCH   5   8
BRANCH   2  10
ATOM     10  C   UNL     1       9.682  -1.435  22.227  0.00  0.00    +0.206 C 
BRANCH  10  11
ATOM     11  O   UNL     1       9.775  -2.147  23.453  0.00  0.00    -0.284 OA
BRANCH  11  12
ATOM     12  P   UNL     1       8.498  -3.272  23.765  0.00  0.00    +0.472 P 
ATOM     13  O   UNL     1       7.356  -4.278  24.044  0.00  0.00    -0.228 OA
BRANCH  12  14
ATOM     14  O   UNL     1       7.811  -2.762  22.371  0.00  0.00    -0.303 OA
ATOM     15  H   UNL     1       8.549  -2.392  21.839  0.00  0.00    +0.222 HD
ENDBRANCH  12  14
BRANCH  12  16
ATOM     16  O   UNL     1       7.837  -2.079  24.671  0.00  0.00    -0.303 OA
ATOM     17  H   UNL     1       8.020  -1.235  24.258  0.00  0.00    +0.222 HD
ENDBRANCH  12  16
ENDBRANCH  11  12
ENDBRANCH  10  11
ENDBRANCH   2  10
BRANCH   4  18
ATOM     18  C   UNL     1       8.995   2.578  24.460  0.00  0.00    +0.206 C 
BRANCH  18  19
ATOM     19  O   UNL     1       8.103   3.623  24.069  0.00  0.00    -0.284 OA
BRANCH  19  20
ATOM     20  P   UNL     1       8.935   5.093  23.698  0.00  0.00    +0.472 P 
ATOM     21  O   UNL     1       9.681   6.409  23.366  0.00  0.00    -0.228 OA
BRANCH  20  22
ATOM     22  O   UNL     1       8.201   5.039  22.234  0.00  0.00    -0.303 OA
ATOM     23  H   UNL     1       8.855   4.896  21.528  0.00  0.00    +0.222 HD
ENDBRANCH  20  22
BRANCH  20  24
ATOM     24  O   UNL     1      10.215   4.152  23.308  0.00  0.00    -0.303 OA
ATOM     25  H   UNL     1      10.216   3.348  23.853  0.00  0.00    +0.222 HD
ENDBRANCH  20  24
ENDBRANCH  19  20
ENDBRANCH  18  19
ENDBRANCH   4  18
TORSDOF 12
ENDMDL
MODEL 6
REMARK VINA RESULT:      -4.9      2.195      6.518
REMARK  Name = 
REMARK  12 active torsions:
REMARK  status: ('A' for Active; 'I' for Inactive)
REMARK    1  A    between atoms: O_1  and  C_2
REMARK    2  A    between atoms: C_4  and  O_6
REMARK    3  A    between atoms: C_7  and  C_9
REMARK    4  A    between atoms: C_9  and  O_10
REMARK    5  A    between atoms: O_10  and  P_11
REMARK    6  A    between atoms: P_11  and  O_12
REMARK    7  A    between atoms: P_11  and  O_13
REMARK    8  A    between atoms: C_16  and  C_18
REMARK    9  A    between atoms: C_18  and  O_19
REMARK   10  A    between atoms: O_19  and  P_20
REMARK   11  A    between atoms: P_20  and  O_21
REMARK   12  A    between atoms: P_20  and  O_22
REMARK                            x       y       z     vdW  Elec       q    Type
REMARK                         _______ _______ _______ _____ _____    ______ ____
ROOT
ATOM      1  C   UNL     1       9.059  -1.855  22.222  0.00  0.00    +0.176 C 
ATOM      2  C   UNL     1       9.420  -2.652  23.492  0.00  0.00    +0.176 C 
ATOM      3  O   UNL     1       9.548  -1.698  24.573  0.00  0.00    -0.363 OA
ATOM      4  C   UNL     1       9.170  -0.384  24.077  0.00  0.00    +0.176 C 
ATOM      5  C   UNL     1       8.377  -0.613  22.785  0.00  0.00    +0.176 C 
ENDROOT
BRANCH   1   6
ATOM      6  O   UNL     1      10.240  -1.433  21.519  0.00  0.00    -0.386 OA
ATOM      7  H   UNL     1      10.046  -1.455  20.560  0.00  0.00    +0.210 HD
ENDBRANCH   1   6
BRANCH   5   8
ATOM      8  O   UNL     1       7.019  -0.918  23.101  0.00  0.00    -0.386 OA
ATOM      9  H   UNL     1       6.551  -0.061  23.194  0.00  0.00    +0.210 HD
ENDBRANCH   5   8
BRANCH   2  10
ATOM     10  C   UNL     1       8.394  -3.729  23.867  0.00  0.00    +0.206 C 
BRANCH  10  11
ATOM     11  O   UNL     1       9.052  -4.756  24.594  0.00  0.00    -0.284 OA
BRANCH  11  12
ATOM     12  P   UNL     1       8.320  -5.196  26.099  0.00  0.00    +0.472 P 
ATOM     13  O   UNL     1       7.665  -5.588  27.445  0.00  0.00    -0.228 OA
BRANCH  12  14
ATOM     14  O   UNL     1       7.864  -3.632  26.247  0.00  0.00    -0.303 OA
ATOM     15  H   UNL     1       8.702  -3.120  26.282  0.00  0.00    +0.222 HD
ENDBRANCH  12  14
BRANCH  12  16
ATOM     16  O   UNL     1       9.803  -4.953  26.748  0.00  0.00    -0.303 OA
ATOM     17  H   UNL     1      10.457  -4.976  26.050  0.00  0.00    +0.222 HD
ENDBRANCH  12  16
ENDBRANCH  11  12
ENDBRANCH  10  11
ENDBRANCH   2  10
BRANCH   4  18
ATOM     18  C   UNL     1      10.464   0.428  23.904  0.00  0.00    +0.206 C 
BRANCH  18  19
ATOM     19  O   UNL     1      10.352   1.431  22.893  0.00  0.00    -0.284 OA
BRANCH  19  20
ATOM     20  P   UNL     1       9.812   2.947  23.529  0.00  0.00    +0.472 P 
ATOM     21  O   UNL     1       9.329   4.304  24.098  0.00  0.00    -0.228 OA
BRANCH  20  22
ATOM     22  O   UNL     1       8.823   3.044  22.226  0.00  0.00    -0.303 OA
ATOM     23  H   UNL     1       8.333   2.213  22.105  0.00  0.00    +0.222 HD
ENDBRANCH  20  22
BRANCH  20  24
ATOM     24  O   UNL     1      11.133   3.600  22.819  0.00  0.00    -0.303 OA
ATOM     25  H   UNL     1      11.272   3.203  21.943  0.00  0.00    +0.222 HD
ENDBRANCH  20  24
ENDBRANCH  19  20
ENDBRANCH  18  19
ENDBRANCH   4  18
TORSDOF 12
ENDMDL
MODEL 7
REMARK VINA RESULT:      -4.8      1.348      2.368
REMARK  Name = 
REMARK  12 active torsions:
REMARK  status: ('A' for Active; 'I' for Inactive)
REMARK    1  A    between atoms: O_1  and  C_2
REMARK    2  A    between atoms: C_4  and  O_6
REMARK    3  A    between atoms: C_7  and  C_9
REMARK    4  A    between atoms: C_9  and  O_10
REMARK    5  A    between atoms: O_10  and  P_11
REMARK    6  A    between atoms: P_11  and  O_12
REMARK    7  A    between atoms: P_11  and  O_13
REMARK    8  A    between atoms: C_16  and  C_18
REMARK    9  A    between atoms: C_18  and  O_19
REMARK   10  A    between atoms: O_19  and  P_20
REMARK   11  A    between atoms: P_20  and  O_21
REMARK   12  A    between atoms: P_20  and  O_22
REMARK                            x       y       z     vdW  Elec       q    Type
REMARK                         _______ _______ _______ _____ _____    ______ ____
ROOT
ATOM      1  C   UNL     1       9.802  -2.069  23.849  0.00  0.00    +0.176 C 
ATOM      2  C   UNL     1       9.157  -1.867  22.464  0.00  0.00    +0.176 C 
ATOM      3  O   UNL     1       7.767  -2.257  22.579  0.00  0.00    -0.363 OA
ATOM      4  C   UNL     1       7.489  -2.570  23.972  0.00  0.00    +0.176 C 
ATOM      5  C   UNL     1       8.616  -1.938  24.798  0.00  0.00    +0.176 C 
ENDROOT
BRANCH   1   6
ATOM      6  O   UNL     1      10.336  -3.398  23.986  0.00  0.00    -0.386 OA
ATOM      7  H   UNL     1      11.008  -3.528  23.286  0.00  0.00    +0.210 HD
ENDBRANCH   1   6
BRANCH   5   8
ATOM      8  O   UNL     1       8.335  -0.557  25.020  0.00  0.00    -0.386 OA
ATOM      9  H   UNL     1       7.372  -0.438  24.879  0.00  0.00    +0.210 HD
ENDBRANCH   5   8
BRANCH   2  10
ATOM     10  C   UNL     1       9.251  -0.430  21.934  0.00  0.00    +0.206 C 
BRANCH  10  11
ATOM     11  O   UNL     1      10.274   0.254  22.643  0.00  0.00    -0.284 OA
BRANCH  11  12
ATOM     12  P   UNL     1       9.929   1.899  23.053  0.00  0.00    +0.472 P 
ATOM     13  O   UNL     1       9.620   3.371  23.420  0.00  0.00    -0.228 OA
BRANCH  12  14
ATOM     14  O   UNL     1       8.343   1.515  22.941  0.00  0.00    -0.303 OA
ATOM     15  H   UNL     1       7.928   2.264  22.460  0.00  0.00    +0.222 HD
ENDBRANCH  12  14
BRANCH  12  16
ATOM     16  O   UNL     1      10.094   2.202  21.453  0.00  0.00    -0.303 OA
ATOM     17  H   UNL     1       9.488   2.900  21.202  0.00  0.00    +0.222 HD
ENDBRANCH  12  16
ENDBRANCH  11  12
ENDBRANCH  10  11
ENDBRANCH   2  10
BRANCH   4  18
ATOM     18  C   UNL     1       7.387  -4.100  24.084  0.00  0.00    +0.206 C 
BRANCH  18  19
ATOM     19  O   UNL     1       7.007  -4.716  22.853  0.00  0.00    -0.284 OA
BRANCH  19  20
ATOM     20  P   UNL     1       5.305  -5.015  22.764  0.00  0.00    +0.472 P 
ATOM     21  O   UNL     1       3.782  -5.282  22.686  0.00  0.00    -0.228 OA
BRANCH  20  22
ATOM     22  O   UNL     1       5.663  -6.265  21.767  0.00  0.00    -0.303 OA
ATOM     23  H   UNL     1       5.164  -7.060  22.022  0.00  0.00    +0.222 HD
ENDBRANCH  20  22
BRANCH  20  24
ATOM     24  O   UNL     1       5.263  -3.854  21.613  0.00  0.00    -0.303 OA
ATOM     25  H   UNL     1       4.780  -4.175  20.833  0.00  0.00    +0.222 HD
ENDBRANCH  20  24
ENDBRANCH  19  20
ENDBRANCH  18  19
ENDBRANCH   4  18
TORSDOF 12
ENDMDL
MODEL 8
REMARK VINA RESULT:      -4.8      3.269      6.856
REMARK  Name = 
REMARK  12 active torsions:
REMARK  status: ('A' for Active; 'I' for Inactive)
REMARK    1  A    between atoms: O_1  and  C_2
REMARK    2  A    between atoms: C_4  and  O_6
REMARK    3  A    between atoms: C_7  and  C_9
REMARK    4  A    between atoms: C_9  and  O_10
REMARK    5  A    between atoms: O_10  and  P_11
REMARK    6  A    between atoms: P_11  and  O_12
REMARK    7  A    between atoms: P_11  and  O_13
REMARK    8  A    between atoms: C_16  and  C_18
REMARK    9  A    between atoms: C_18  and  O_19
REMARK   10  A    between atoms: O_19  and  P_20
REMARK   11  A    between atoms: P_20  and  O_21
REMARK   12  A    between atoms: P_20  and  O_22
REMARK                            x       y       z     vdW  Elec       q    Type
REMARK                         _______ _______ _______ _____ _____    ______ ____
ROOT
ATOM      1  C   UNL     1       8.165  -3.163  26.375  0.00  0.00    +0.176 C 
ATOM      2  C   UNL     1       6.856  -3.243  25.565  0.00  0.00    +0.176 C 
ATOM      3  O   UNL     1       7.204  -3.688  24.232  0.00  0.00    -0.363 OA
ATOM      4  C   UNL     1       8.624  -4.001  24.206  0.00  0.00    +0.176 C 
ATOM      5  C   UNL     1       9.064  -4.169  25.665  0.00  0.00    +0.176 C 
ENDROOT
BRANCH   1   6
ATOM      6  O   UNL     1       8.772  -1.864  26.255  0.00  0.00    -0.386 OA
ATOM      7  H   UNL     1       9.054  -1.578  27.148  0.00  0.00    +0.210 HD
ENDBRANCH   1   6
BRANCH   5   8
ATOM      8  O   UNL     1       8.750  -5.487  26.115  0.00  0.00    -0.386 OA
ATOM      9  H   UNL     1       8.432  -5.985  25.332  0.00  0.00    +0.210 HD
ENDBRANCH   5   8
BRANCH   2  10
ATOM     10  C   UNL     1       5.804  -4.184  26.169  0.00  0.00    +0.206 C 
BRANCH  10  11
ATOM     11  O   UNL     1       6.153  -4.455  27.518  0.00  0.00    -0.284 OA
BRANCH  11  12
ATOM     12  P   UNL     1       5.783  -6.049  28.080  0.00  0.00    +0.472 P 
ATOM     13  O   UNL     1       5.452  -7.476  28.582  0.00  0.00    -0.228 OA
BRANCH  12  14
ATOM     14  O   UNL     1       7.388  -6.255  28.321  0.00  0.00    -0.303 OA
ATOM     15  H   UNL     1       7.513  -6.194  29.293  0.00  0.00    +0.222 HD
ENDBRANCH  12  14
BRANCH  12  16
ATOM     16  O   UNL     1       5.840  -6.483  26.503  0.00  0.00    -0.303 OA
ATOM     17  H   UNL     1       6.101  -7.403  26.441  0.00  0.00    +0.222 HD
ENDBRANCH  12  16
ENDBRANCH  11  12
ENDBRANCH  10  11
ENDBRANCH   2  10
BRANCH   4  18
ATOM     18  C   UNL     1       9.328  -2.865  23.447  0.00  0.00    +0.206 C 
BRANCH  18  19
ATOM     19  O   UNL     1       8.426  -1.832  23.045  0.00  0.00    -0.284 OA
BRANCH  19  20
ATOM     20  P   UNL     1       9.251  -0.454  22.402  0.00  0.00    +0.472 P 
ATOM     21  O   UNL     1       9.990   0.779  21.826  0.00  0.00    -0.228 OA
BRANCH  20  22
ATOM     22  O   UNL     1      10.191  -1.510  21.573  0.00  0.00    -0.303 OA
ATOM     23  H   UNL     1      10.998  -1.717  22.075  0.00  0.00    +0.222 HD
ENDBRANCH  20  22
BRANCH  20  24
ATOM     24  O   UNL     1      10.126  -0.459  23.784  0.00  0.00    -0.303 OA
ATOM     25  H   UNL     1       9.686  -1.007  24.455  0.00  0.00    +0.222 HD
ENDBRANCH  20  24
ENDBRANCH  19  20
ENDBRANCH  18  19
ENDBRANCH   4  18
TORSDOF 12
ENDMDL
MODEL 9
REMARK VINA RESULT:      -4.8      2.351      7.086
REMARK  Name = 
REMARK  12 active torsions:
REMARK  status: ('A' for Active; 'I' for Inactive)
REMARK    1  A    between atoms: O_1  and  C_2
REMARK    2  A    between atoms: C_4  and  O_6
REMARK    3  A    between atoms: C_7  and  C_9
REMARK    4  A    between atoms: C_9  and  O_10
REMARK    5  A    between atoms: O_10  and  P_11
REMARK    6  A    between atoms: P_11  and  O_12
REMARK    7  A    between atoms: P_11  and  O_13
REMARK    8  A    between atoms: C_16  and  C_18
REMARK    9  A    between atoms: C_18  and  O_19
REMARK   10  A    between atoms: O_19  and  P_20
REMARK   11  A    between atoms: P_20  and  O_21
REMARK   12  A    between atoms: P_20  and  O_22
REMARK                            x       y       z     vdW  Elec       q    Type
REMARK                         _______ _______ _______ _____ _____    ______ ____
ROOT
ATOM      1  C   UNL     1       7.760  -5.032  23.813  0.00  0.00    +0.176 C 
ATOM      2  C   UNL     1       6.583  -4.662  24.737  0.00  0.00    +0.176 C 
ATOM      3  O   UNL     1       5.831  -3.618  24.073  0.00  0.00    -0.363 OA
ATOM      4  C   UNL     1       6.399  -3.408  22.751  0.00  0.00    +0.176 C 
ATOM      5  C   UNL     1       7.240  -4.650  22.432  0.00  0.00    +0.176 C 
ENDROOT
BRANCH   1   6
ATOM      6  O   UNL     1       8.915  -4.221  24.092  0.00  0.00    -0.386 OA
ATOM      7  H   UNL     1       9.702  -4.804  24.090  0.00  0.00    +0.210 HD
ENDBRANCH   1   6
BRANCH   5   8
ATOM      8  O   UNL     1       6.395  -5.689  21.938  0.00  0.00    -0.386 OA
ATOM      9  H   UNL     1       5.474  -5.356  21.993  0.00  0.00    +0.210 HD
ENDBRANCH   5   8
BRANCH   2  10
ATOM     10  C   UNL     1       5.656  -5.839  25.069  0.00  0.00    +0.206 C 
BRANCH  10  11
ATOM     11  O   UNL     1       4.308  -5.396  24.996  0.00  0.00    -0.284 OA
BRANCH  11  12
ATOM     12  P   UNL     1       3.251  -6.373  24.036  0.00  0.00    +0.472 P 
ATOM     13  O   UNL     1       2.305  -7.247  23.177  0.00  0.00    -0.228 OA
BRANCH  12  14
ATOM     14  O   UNL     1       4.537  -7.337  23.736  0.00  0.00    -0.303 OA
ATOM     15  H   UNL     1       4.991  -6.931  22.965  0.00  0.00    +0.222 HD
ENDBRANCH  12  14
BRANCH  12  16
ATOM     16  O   UNL     1       3.594  -5.330  22.821  0.00  0.00    -0.303 OA
ATOM     17  H   UNL     1       3.389  -4.439  23.107  0.00  0.00    +0.222 HD
ENDBRANCH  12  16
ENDBRANCH  11  12
ENDBRANCH  10  11
ENDBRANCH   2  10
BRANCH   4  18
ATOM     18  C   UNL     1       7.189  -2.090  22.798  0.00  0.00    +0.206 C 
BRANCH  18  19
ATOM     19  O   UNL     1       8.399  -2.147  22.041  0.00  0.00    -0.284 OA
BRANCH  19  20
ATOM     20  P   UNL     1       9.589  -1.034  22.621  0.00  0.00    +0.472 P 
ATOM     21  O   UNL     1      10.655  -0.037  23.139  0.00  0.00    -0.228 OA
BRANCH  20  22
ATOM     22  O   UNL     1      10.613  -2.310  22.716  0.00  0.00    -0.303 OA
ATOM     23  H   UNL     1      11.258  -2.286  21.988  0.00  0.00    +0.222 HD
ENDBRANCH  20  22
BRANCH  20  24
ATOM     24  O   UNL     1       8.905  -1.224  24.094  0.00  0.00    -0.303 OA
ATOM     25  H   UNL     1       9.593  -1.261  24.779  0.00  0.00    +0.222 HD
ENDBRANCH  20  24
ENDBRANCH  19  20
ENDBRANCH  18  19
ENDBRANCH   4  18
TORSDOF 12
ENDMDL
