MODEL 1
REMARK VINA RESULT:      -4.7      0.000      0.000
REMARK  Name = 
REMARK  12 active torsions:
REMARK  status: ('A' for Active; 'I' for Inactive)
REMARK    1  A    between atoms: C_1  and  C_2
REMARK    2  A    between atoms: C_2  and  C_4
REMARK    3  A    between atoms: C_2  and  C_6
REMARK    4  A    between atoms: C_4  and  O_5
REMARK    5  A    between atoms: C_6  and  C_7
REMARK    6  A    between atoms: C_7  and  O_8
REMARK    7  A    between atoms: O_8  and  P_9
REMARK    8  A    between atoms: P_9  and  O_10
REMARK    9  A    between atoms: P_9  and  O_12
REMARK   10  A    between atoms: O_12  and  P_13
REMARK   11  A    between atoms: P_13  and  O_14
REMARK   12  A    between atoms: P_13  and  O_15
REMARK                            x       y       z     vdW  Elec       q    Type
REMARK                         _______ _______ _______ _____ _____    ______ ____
ROOT
ATOM      1  P   UNL     1       9.820  -1.989  23.044  0.00  0.00    +0.483 P 
ATOM      2  O   UNL     1       8.370  -1.609  22.743  0.00  0.00    -0.227 OA
ENDROOT
BRANCH   1   3
ATOM      3  O   UNL     1      10.236  -1.489  21.441  0.00  0.00    -0.302 OA
ATOM      4  H   UNL     1       9.910  -0.565  21.406  0.00  0.00    +0.222 HD
ENDBRANCH   1   3
BRANCH   1   5
ATOM      5  O   UNL     1      10.589  -0.666  23.637  0.00  0.00    -0.286 OA
BRANCH   5   6
ATOM      6  C   UNL     1       9.973  -0.108  24.784  0.00  0.00    +0.173 C 
BRANCH   6   7
ATOM      7  C   UNL     1       9.516   1.314  24.485  0.00  0.00    +0.034 C 
BRANCH   7   9
ATOM      8  C   UNL     1      10.851   3.127  23.365  0.00  0.00    +0.010 C 
ATOM      9  C   UNL     1      10.058   1.836  23.141  0.00  0.00    +0.014 C 
BRANCH   9  10
ATOM     10  C   UNL     1       8.935   2.044  22.115  0.00  0.00    +0.159 C 
BRANCH  10  11
ATOM     11  O   UNL     1       8.988   1.062  21.091  0.00  0.00    -0.395 OA
ATOM     12  H   UNL     1       8.247   0.449  21.232  0.00  0.00    +0.209 HD
ENDBRANCH  10  11
ENDBRANCH   9  10
ENDBRANCH   7   9
ENDBRANCH   6   7
ENDBRANCH   5   6
ENDBRANCH   1   5
BRANCH   1  13
ATOM     13  O   UNL     1       9.405  -2.492  24.646  0.00  0.00    -0.186 OA
BRANCH  13  14
ATOM     14  P   UNL     1       8.976  -3.967  25.005  0.00  0.00    +0.481 P 
ATOM     15  O   UNL     1       8.282  -4.132  26.309  0.00  0.00    -0.227 OA
BRANCH  14  16
ATOM     16  O   UNL     1      10.288  -4.840  24.766  0.00  0.00    -0.302 OA
ATOM     17  H   UNL     1      10.171  -5.525  24.080  0.00  0.00    +0.222 HD
ENDBRANCH  14  16
BRANCH  14  18
ATOM     18  O   UNL     1       8.086  -4.368  23.736  0.00  0.00    -0.302 OA
ATOM     19  H   UNL     1       7.131  -4.375  23.921  0.00  0.00    +0.222 HD
ENDBRANCH  14  18
ENDBRANCH  13  14
ENDBRANCH   1  13
TORSDOF 11
ENDMDL
MODEL 2
REMARK VINA RESULT:      -4.6      2.016      3.284
REMARK  Name = 
REMARK  12 active torsions:
REMARK  status: ('A' for Active; 'I' for Inactive)
REMARK    1  A    between atoms: C_1  and  C_2
REMARK    2  A    between atoms: C_2  and  C_4
REMARK    3  A    between atoms: C_2  and  C_6
REMARK    4  A    between atoms: C_4  and  O_5
REMARK    5  A    between atoms: C_6  and  C_7
REMARK    6  A    between atoms: C_7  and  O_8
REMARK    7  A    between atoms: O_8  and  P_9
REMARK    8  A    between atoms: P_9  and  O_10
REMARK    9  A    between atoms: P_9  and  O_12
REMARK   10  A    between atoms: O_12  and  P_13
REMARK   11  A    between atoms: P_13  and  O_14
REMARK   12  A    between atoms: P_13  and  O_15
REMARK                            x       y       z     vdW  Elec       q    Type
REMARK                         _______ _______ _______ _____ _____    ______ ____
ROOT
ATOM      1  P   UNL     1       8.503  -3.933  24.260  0.00  0.00    +0.483 P 
ATOM      2  O   UNL     1       8.676  -5.434  24.022  0.00  0.00    -0.227 OA
ENDROOT
BRANCH   1   3
ATOM      3  O   UNL     1       9.151  -4.157  25.849  0.00  0.00    -0.302 OA
ATOM      4  H   UNL     1       9.965  -3.612  25.836  0.00  0.00    +0.222 HD
ENDBRANCH   1   3
BRANCH   1   5
ATOM      5  O   UNL     1       9.892  -3.178  23.822  0.00  0.00    -0.286 OA
BRANCH   5   6
ATOM      6  C   UNL     1       9.690  -1.975  23.100  0.00  0.00    +0.173 C 
BRANCH   6   7
ATOM      7  C   UNL     1       9.859  -0.780  24.030  0.00  0.00    +0.034 C 
BRANCH   7   9
ATOM      8  C   UNL     1      10.228   1.703  24.171  0.00  0.00    +0.010 C 
ATOM      9  C   UNL     1      10.427   0.454  23.306  0.00  0.00    +0.014 C 
BRANCH   9  10
ATOM     10  C   UNL     1       9.806   0.636  21.914  0.00  0.00    +0.159 C 
BRANCH  10  11
ATOM     11  O   UNL     1       9.870   1.992  21.497  0.00  0.00    -0.395 OA
ATOM     12  H   UNL     1      10.134   2.525  22.267  0.00  0.00    +0.209 HD
ENDBRANCH  10  11
ENDBRANCH   9  10
ENDBRANCH   7   9
ENDBRANCH   6   7
ENDBRANCH   5   6
ENDBRANCH   1   5
BRANCH   1  13
ATOM     13  O   UNL     1       7.855  -3.709  22.672  0.00  0.00    -0.186 OA
BRANCH  13  14
ATOM     14  P   UNL     1       6.590  -4.486  22.139  0.00  0.00    +0.481 P 
ATOM     15  O   UNL     1       5.677  -3.700  21.269  0.00  0.00    -0.227 OA
BRANCH  14  16
ATOM     16  O   UNL     1       5.953  -5.163  23.433  0.00  0.00    -0.302 OA
ATOM     17  H   UNL     1       5.305  -4.588  23.885  0.00  0.00    +0.222 HD
ENDBRANCH  14  16
BRANCH  14  18
ATOM     18  O   UNL     1       7.260  -5.746  21.412  0.00  0.00    -0.302 OA
ATOM     19  H   UNL     1       6.871  -6.597  21.677  0.00  0.00    +0.222 HD
ENDBRANCH  14  18
ENDBRANCH  13  14
ENDBRANCH   1  13
TORSDOF 11
ENDMDL
MODEL 3
REMARK VINA RESULT:      -4.5      2.051      3.533
REMARK  Name = 
REMARK  12 active torsions:
REMARK  status: ('A' for Active; 'I' for Inactive)
REMARK    1  A    between atoms: C_1  and  C_2
REMARK    2  A    between atoms: C_2  and  C_4
REMARK    3  A    between atoms: C_2  and  C_6
REMARK    4  A    between atoms: C_4  and  O_5
REMARK    5  A    between atoms: C_6  and  C_7
REMARK    6  A    between atoms: C_7  and  O_8
REMARK    7  A    between atoms: O_8  and  P_9
REMARK    8  A    between atoms: P_9  and  O_10
REMARK    9  A    between atoms: P_9  and  O_12
REMARK   10  A    between atoms: O_12  and  P_13
REMARK   11  A    between atoms: P_13  and  O_14
REMARK   12  A    between atoms: P_13  and  O_15
REMARK                            x       y       z     vdW  Elec       q    Type
REMARK                         _______ _______ _______ _____ _____    ______ ____
ROOT
ATOM      1  P   UNL     1       8.260  -4.762  24.471  0.00  0.00    +0.483 P 
ATOM      2  O   UNL     1       8.137  -5.514  23.145  0.00  0.00    -0.227 OA
ENDROOT
BRANCH   1   3
ATOM      3  O   UNL     1       9.760  -5.580  24.743  0.00  0.00    -0.302 OA
ATOM      4  H   UNL     1      10.399  -5.053  24.218  0.00  0.00    +0.222 HD
ENDBRANCH   1   3
BRANCH   1   5
ATOM      5  O   UNL     1       9.090  -3.371  24.201  0.00  0.00    -0.286 OA
BRANCH   5   6
ATOM      6  C   UNL     1       8.932  -2.399  25.221  0.00  0.00    +0.173 C 
BRANCH   6   7
ATOM      7  C   UNL     1       8.892  -1.007  24.605  0.00  0.00    +0.034 C 
BRANCH   7   9
ATOM      8  C   UNL     1      10.771   0.663  24.593  0.00  0.00    +0.010 C 
ATOM      9  C   UNL     1      10.228  -0.615  23.948  0.00  0.00    +0.014 C 
BRANCH   9  10
ATOM     10  C   UNL     1      10.091  -0.456  22.427  0.00  0.00    +0.159 C 
BRANCH  10  11
ATOM     11  O   UNL     1      10.149  -1.715  21.773  0.00  0.00    -0.395 OA
ATOM     12  H   UNL     1       9.356  -2.216  22.029  0.00  0.00    +0.209 HD
ENDBRANCH  10  11
ENDBRANCH   9  10
ENDBRANCH   7   9
ENDBRANCH   6   7
ENDBRANCH   5   6
ENDBRANCH   1   5
BRANCH   1  13
ATOM     13  O   UNL     1       6.760  -3.945  24.200  0.00  0.00    -0.186 OA
BRANCH  13  14
ATOM     14  P   UNL     1       6.266  -3.499  22.770  0.00  0.00    +0.481 P 
ATOM     15  O   UNL     1       5.308  -4.422  22.108  0.00  0.00    -0.227 OA
BRANCH  14  16
ATOM     16  O   UNL     1       7.599  -3.145  21.971  0.00  0.00    -0.302 OA
ATOM     17  H   UNL     1       7.506  -3.255  21.005  0.00  0.00    +0.222 HD
ENDBRANCH  14  16
BRANCH  14  18
ATOM     18  O   UNL     1       5.670  -2.043  23.066  0.00  0.00    -0.302 OA
ATOM     19  H   UNL     1       6.097  -1.596  23.817  0.00  0.00    +0.222 HD
ENDBRANCH  14  18
ENDBRANCH  13  14
ENDBRANCH   1  13
TORSDOF 11
ENDMDL
MODEL 4
REMARK VINA RESULT:      -4.5      1.812      2.771
REMARK  Name = 
REMARK  12 active torsions:
REMARK  status: ('A' for Active; 'I' for Inactive)
REMARK    1  A    between atoms: C_1  and  C_2
REMARK    2  A    between atoms: C_2  and  C_4
REMARK    3  A    between atoms: C_2  and  C_6
REMARK    4  A    between atoms: C_4  and  O_5
REMARK    5  A    between atoms: C_6  and  C_7
REMARK    6  A    between atoms: C_7  and  O_8
REMARK    7  A    between atoms: O_8  and  P_9
REMARK    8  A    between atoms: P_9  and  O_10
REMARK    9  A    between atoms: P_9  and  O_12
REMARK   10  A    between atoms: O_12  and  P_13
REMARK   11  A    between atoms: P_13  and  O_14
REMARK   12  A    between atoms: P_13  and  O_15
REMARK                            x       y       z     vdW  Elec       q    Type
REMARK                         _______ _______ _______ _____ _____    ______ ____
ROOT
ATOM      1  P   UNL     1       8.095  -2.464  24.603  0.00  0.00    +0.483 P 
ATOM      2  O   UNL     1       8.107  -1.443  25.742  0.00  0.00    -0.227 OA
ENDROOT
BRANCH   1   3
ATOM      3  O   UNL     1       7.244  -1.309  23.637  0.00  0.00    -0.302 OA
ATOM      4  H   UNL     1       7.865  -0.551  23.599  0.00  0.00    +0.222 HD
ENDBRANCH   1   3
BRANCH   1   5
ATOM      5  O   UNL     1       9.430  -2.224  23.680  0.00  0.00    -0.286 OA
BRANCH   5   6
ATOM      6  C   UNL     1       9.168  -1.581  22.444  0.00  0.00    +0.173 C 
BRANCH   6   7
ATOM      7  C   UNL     1      10.215  -0.505  22.189  0.00  0.00    +0.034 C 
BRANCH   7   9
ATOM      8  C   UNL     1      10.085   2.005  22.159  0.00  0.00    +0.010 C 
ATOM      9  C   UNL     1       9.981   0.757  23.040  0.00  0.00    +0.014 C 
BRANCH   9  10
ATOM     10  C   UNL     1      10.951   0.832  24.228  0.00  0.00    +0.159 C 
BRANCH  10  11
ATOM     11  O   UNL     1      10.350   0.327  25.412  0.00  0.00    -0.395 OA
ATOM     12  H   UNL     1       9.488  -0.051  25.167  0.00  0.00    +0.209 HD
ENDBRANCH  10  11
ENDBRANCH   9  10
ENDBRANCH   7   9
ENDBRANCH   6   7
ENDBRANCH   5   6
ENDBRANCH   1   5
BRANCH   1  13
ATOM     13  O   UNL     1       8.945  -3.620  25.570  0.00  0.00    -0.186 OA
BRANCH  13  14
ATOM     14  P   UNL     1       9.020  -5.154  25.213  0.00  0.00    +0.481 P 
ATOM     15  O   UNL     1       8.542  -5.519  23.853  0.00  0.00    -0.227 OA
BRANCH  14  16
ATOM     16  O   UNL     1       8.331  -5.893  26.445  0.00  0.00    -0.302 OA
ATOM     17  H   UNL     1       8.405  -5.393  27.281  0.00  0.00    +0.222 HD
ENDBRANCH  14  16
BRANCH  14  18
ATOM     18  O   UNL     1      10.568  -5.476  25.468  0.00  0.00    -0.302 OA
ATOM     19  H   UNL     1      10.882  -6.266  24.996  0.00  0.00    +0.222 HD
ENDBRANCH  14  18
ENDBRANCH  13  14
ENDBRANCH   1  13
TORSDOF 11
ENDMDL
MODEL 5
REMARK VINA RESULT:      -4.5      2.673      3.765
REMARK  Name = 
REMARK  12 active torsions:
REMARK  status: ('A' for Active; 'I' for Inactive)
REMARK    1  A    between atoms: C_1  and  C_2
REMARK    2  A    between atoms: C_2  and  C_4
REMARK    3  A    between atoms: C_2  and  C_6
REMARK    4  A    between atoms: C_4  and  O_5
REMARK    5  A    between atoms: C_6  and  C_7
REMARK    6  A    between atoms: C_7  and  O_8
REMARK    7  A    between atoms: O_8  and  P_9
REMARK    8  A    between atoms: P_9  and  O_10
REMARK    9  A    between atoms: P_9  and  O_12
REMARK   10  A    between atoms: O_12  and  P_13
REMARK   11  A    between atoms: P_13  and  O_14
REMARK   12  A    between atoms: P_13  and  O_15
REMARK                            x       y       z     vdW  Elec       q    Type
REMARK                         _______ _______ _______ _____ _____    ______ ____
ROOT
ATOM      1  P   UNL     1       9.900   0.917  22.544  0.00  0.00    +0.483 P 
ATOM      2  O   UNL     1       8.444   0.831  22.083  0.00  0.00    -0.227 OA
ENDROOT
BRANCH   1   3
ATOM      3  O   UNL     1      10.104   2.276  21.493  0.00  0.00    -0.302 OA
ATOM      4  H   UNL     1       9.297   2.250  20.938  0.00  0.00    +0.222 HD
ENDBRANCH   1   3
BRANCH   1   5
ATOM      5  O   UNL     1       9.974   1.928  23.835  0.00  0.00    -0.286 OA
BRANCH   5   6
ATOM      6  C   UNL     1      10.502   3.208  23.533  0.00  0.00    +0.173 C 
BRANCH   6   7
ATOM      7  C   UNL     1       9.598   4.289  24.111  0.00  0.00    +0.034 C 
BRANCH   7   9
ATOM      8  C   UNL     1       9.434   6.787  23.879  0.00  0.00    +0.010 C 
ATOM      9  C   UNL     1      10.334   5.627  24.313  0.00  0.00    +0.014 C 
BRANCH   9  10
ATOM     10  C   UNL     1      11.678   5.657  23.571  0.00  0.00    +0.159 C 
BRANCH  10  11
ATOM     11  O   UNL     1      12.731   6.054  24.436  0.00  0.00    -0.395 OA
ATOM     12  H   UNL     1      12.750   7.026  24.450  0.00  0.00    +0.209 HD
ENDBRANCH  10  11
ENDBRANCH   9  10
ENDBRANCH   7   9
ENDBRANCH   6   7
ENDBRANCH   5   6
ENDBRANCH   1   5
BRANCH   1  13
ATOM     13  O   UNL     1       9.696  -0.442  23.594  0.00  0.00    -0.186 OA
BRANCH  13  14
ATOM     14  P   UNL     1       9.503  -1.917  23.069  0.00  0.00    +0.481 P 
ATOM     15  O   UNL     1      10.172  -2.974  23.872  0.00  0.00    -0.227 OA
BRANCH  14  16
ATOM     16  O   UNL     1       9.864  -1.848  21.519  0.00  0.00    -0.302 OA
ATOM     17  H   UNL     1       9.984  -2.729  21.114  0.00  0.00    +0.222 HD
ENDBRANCH  14  16
BRANCH  14  18
ATOM     18  O   UNL     1       7.908  -2.044  23.024  0.00  0.00    -0.302 OA
ATOM     19  H   UNL     1       7.478  -1.340  22.509  0.00  0.00    +0.222 HD
ENDBRANCH  14  18
ENDBRANCH  13  14
ENDBRANCH   1  13
TORSDOF 11
ENDMDL
MODEL 6
REMARK VINA RESULT:      -4.5      3.113      5.691
REMARK  Name = 
REMARK  12 active torsions:
REMARK  status: ('A' for Active; 'I' for Inactive)
REMARK    1  A    between atoms: C_1  and  C_2
REMARK    2  A    between atoms: C_2  and  C_4
REMARK    3  A    between atoms: C_2  and  C_6
REMARK    4  A    between atoms: C_4  and  O_5
REMARK    5  A    between atoms: C_6  and  C_7
REMARK    6  A    between atoms: C_7  and  O_8
REMARK    7  A    between atoms: O_8  and  P_9
REMARK    8  A    between atoms: P_9  and  O_10
REMARK    9  A    between atoms: P_9  and  O_12
REMARK   10  A    between atoms: O_12  and  P_13
REMARK   11  A    between atoms: P_13  and  O_14
REMARK   12  A    between atoms: P_13  and  O_15
REMARK                            x       y       z     vdW  Elec       q    Type
REMARK                         _______ _______ _______ _____ _____    ______ ____
ROOT
ATOM      1  P   UNL     1       9.348  -0.595  21.944  0.00  0.00    +0.483 P 
ATOM      2  O   UNL     1       9.924  -0.278  23.325  0.00  0.00    -0.227 OA
ENDROOT
BRANCH   1   3
ATOM      3  O   UNL     1      10.601  -1.769  21.741  0.00  0.00    -0.302 OA
ATOM      4  H   UNL     1      11.158  -1.639  22.537  0.00  0.00    +0.222 HD
ENDBRANCH   1   3
BRANCH   1   5
ATOM      5  O   UNL     1       8.259  -1.812  22.105  0.00  0.00    -0.286 OA
BRANCH   5   6
ATOM      6  C   UNL     1       7.186  -1.513  22.980  0.00  0.00    +0.173 C 
BRANCH   6   7
ATOM      7  C   UNL     1       7.274  -2.386  24.225  0.00  0.00    +0.034 C 
BRANCH   7   9
ATOM      8  C   UNL     1       6.597  -4.806  24.317  0.00  0.00    +0.010 C 
ATOM      9  C   UNL     1       7.702  -3.830  23.902  0.00  0.00    +0.014 C 
BRANCH   9  10
ATOM     10  C   UNL     1       9.040  -4.190  24.563  0.00  0.00    +0.159 C 
BRANCH  10  11
ATOM     11  O   UNL     1      10.071  -3.306  24.147  0.00  0.00    -0.395 OA
ATOM     12  H   UNL     1       9.682  -2.419  24.061  0.00  0.00    +0.209 HD
ENDBRANCH  10  11
ENDBRANCH   9  10
ENDBRANCH   7   9
ENDBRANCH   6   7
ENDBRANCH   5   6
ENDBRANCH   1   5
BRANCH   1  13
ATOM     13  O   UNL     1       8.095   0.581  22.146  0.00  0.00    -0.186 OA
BRANCH  13  14
ATOM     14  P   UNL     1       8.372   2.130  22.238  0.00  0.00    +0.481 P 
ATOM     15  O   UNL     1       7.286   3.006  21.723  0.00  0.00    -0.227 OA
BRANCH  14  16
ATOM     16  O   UNL     1       9.820   2.323  21.602  0.00  0.00    -0.302 OA
ATOM     17  H   UNL     1       9.798   2.755  20.725  0.00  0.00    +0.222 HD
ENDBRANCH  14  16
BRANCH  14  18
ATOM     18  O   UNL     1       8.676   2.318  23.798  0.00  0.00    -0.302 OA
ATOM     19  H   UNL     1       8.780   1.478  24.276  0.00  0.00    +0.222 HD
ENDBRANCH  14  18
ENDBRANCH  13  14
ENDBRANCH   1  13
TORSDOF 11
ENDMDL
MODEL 7
REMARK VINA RESULT:      -4.4      3.966      5.265
REMARK  Name = 
REMARK  12 active torsions:
REMARK  status: ('A' for Active; 'I' for Inactive)
REMARK    1  A    between atoms: C_1  and  C_2
REMARK    2  A    between atoms: C_2  and  C_4
REMARK    3  A    between atoms: C_2  and  C_6
REMARK    4  A    between atoms: C_4  and  O_5
REMARK    5  A    between atoms: C_6  and  C_7
REMARK    6  A    between atoms: C_7  and  O_8
REMARK    7  A    between atoms: O_8  and  P_9
REMARK    8  A    between atoms: P_9  and  O_10
REMARK    9  A    between atoms: P_9  and  O_12
REMARK   10  A    between atoms: O_12  and  P_13
REMARK   11  A    between atoms: P_13  and  O_14
REMARK   12  A    between atoms: P_13  and  O_15
REMARK                            x       y       z     vdW  Elec       q    Type
REMARK                         _______ _______ _______ _____ _____    ______ ____
ROOT
ATOM      1  P   UNL     1       8.797  -2.874  24.592  0.00  0.00    +0.483 P 
ATOM      2  O   UNL     1       9.993  -3.750  24.215  0.00  0.00    -0.227 OA
ENDROOT
BRANCH   1   3
ATOM      3  O   UNL     1       9.696  -1.496  24.058  0.00  0.00    -0.302 OA
ATOM      4  H   UNL     1       9.042  -0.997  23.525  0.00  0.00    +0.222 HD
ENDBRANCH   1   3
BRANCH   1   5
ATOM      5  O   UNL     1       7.828  -2.728  23.276  0.00  0.00    -0.286 OA
BRANCH   5   6
ATOM      6  C   UNL     1       6.482  -3.107  23.507  0.00  0.00    +0.173 C 
BRANCH   6   7
ATOM      7  C   UNL     1       5.851  -3.591  22.208  0.00  0.00    +0.034 C 
BRANCH   7   9
ATOM      8  C   UNL     1       5.427  -5.731  23.457  0.00  0.00    +0.010 C 
ATOM      9  C   UNL     1       5.819  -5.127  22.105  0.00  0.00    +0.014 C 
BRANCH   9  10
ATOM     10  C   UNL     1       7.156  -5.694  21.608  0.00  0.00    +0.159 C 
BRANCH  10  11
ATOM     11  O   UNL     1       8.072  -5.861  22.680  0.00  0.00    -0.395 OA
ATOM     12  H   UNL     1       8.515  -6.718  22.558  0.00  0.00    +0.209 HD
ENDBRANCH  10  11
ENDBRANCH   9  10
ENDBRANCH   7   9
ENDBRANCH   6   7
ENDBRANCH   5   6
ENDBRANCH   1   5
BRANCH   1  13
ATOM     13  O   UNL     1       7.898  -4.251  25.128  0.00  0.00    -0.186 OA
BRANCH  13  14
ATOM     14  P   UNL     1       8.430  -5.257  26.220  0.00  0.00    +0.481 P 
ATOM     15  O   UNL     1       7.382  -5.986  26.982  0.00  0.00    -0.227 OA
BRANCH  14  16
ATOM     16  O   UNL     1       9.487  -4.417  27.066  0.00  0.00    -0.302 OA
ATOM     17  H   UNL     1      10.050  -3.842  26.512  0.00  0.00    +0.222 HD
ENDBRANCH  14  16
BRANCH  14  18
ATOM     18  O   UNL     1       9.387  -6.206  25.356  0.00  0.00    -0.302 OA
ATOM     19  H   UNL     1      10.301  -5.881  25.296  0.00  0.00    +0.222 HD
ENDBRANCH  14  18
ENDBRANCH  13  14
ENDBRANCH   1  13
TORSDOF 11
ENDMDL
MODEL 8
REMARK VINA RESULT:      -4.4      3.728      5.929
REMARK  Name = 
REMARK  12 active torsions:
REMARK  status: ('A' for Active; 'I' for Inactive)
REMARK    1  A    between atoms: C_1  and  C_2
REMARK    2  A    between atoms: C_2  and  C_4
REMARK    3  A    between atoms: C_2  and  C_6
REMARK    4  A    between atoms: C_4  and  O_5
REMARK    5  A    between atoms: C_6  and  C_7
REMARK    6  A    between atoms: C_7  and  O_8
REMARK    7  A    between atoms: O_8  and  P_9
REMARK    8  A    between atoms: P_9  and  O_10
REMARK    9  A    between atoms: P_9  and  O_12
REMARK   10  A    between atoms: O_12  and  P_13
REMARK   11  A    between atoms: P_13  and  O_14
REMARK   12  A    between atoms: P_13  and  O_15
REMARK                            x       y       z     vdW  Elec       q    Type
REMARK                         _______ _______ _______ _____ _____    ______ ____
ROOT
ATOM      1  P   UNL     1       9.635  -1.401  23.048  0.00  0.00    +0.483 P 
ATOM      2  O   UNL     1       8.978  -1.098  24.396  0.00  0.00    -0.227 OA
ENDROOT
BRANCH   1   3
ATOM      3  O   UNL     1      10.237  -2.875  23.724  0.00  0.00    -0.302 OA
ATOM      4  H   UNL     1       9.841  -3.561  23.147  0.00  0.00    +0.222 HD
ENDBRANCH   1   3
BRANCH   1   5
ATOM      5  O   UNL     1       8.578  -2.270  22.142  0.00  0.00    -0.286 OA
BRANCH   5   6
ATOM      6  C   UNL     1       7.243  -2.231  22.618  0.00  0.00    +0.173 C 
BRANCH   6   7
ATOM      7  C   UNL     1       6.456  -3.402  22.045  0.00  0.00    +0.034 C 
BRANCH   7   9
ATOM      8  C   UNL     1       6.463  -5.837  21.420  0.00  0.00    +0.010 C 
ATOM      9  C   UNL     1       7.195  -4.743  22.204  0.00  0.00    +0.014 C 
BRANCH   9  10
ATOM     10  C   UNL     1       7.361  -5.132  23.680  0.00  0.00    +0.159 C 
BRANCH  10  11
ATOM     11  O   UNL     1       8.731  -5.295  24.015  0.00  0.00    -0.395 OA
ATOM     12  H   UNL     1       9.203  -5.558  23.207  0.00  0.00    +0.209 HD
ENDBRANCH  10  11
ENDBRANCH   9  10
ENDBRANCH   7   9
ENDBRANCH   6   7
ENDBRANCH   5   6
ENDBRANCH   1   5
BRANCH   1  13
ATOM     13  O   UNL     1       9.033   0.074  22.372  0.00  0.00    -0.186 OA
BRANCH  13  14
ATOM     14  P   UNL     1       9.492   1.500  22.866  0.00  0.00    +0.481 P 
ATOM     15  O   UNL     1       8.445   2.310  23.542  0.00  0.00    -0.227 OA
BRANCH  14  16
ATOM     16  O   UNL     1      10.213   2.155  21.606  0.00  0.00    -0.302 OA
ATOM     17  H   UNL     1       9.809   3.001  21.331  0.00  0.00    +0.222 HD
ENDBRANCH  14  16
BRANCH  14  18
ATOM     18  O   UNL     1      10.741   1.138  23.801  0.00  0.00    -0.302 OA
ATOM     19  H   UNL     1      10.581   1.311  24.744  0.00  0.00    +0.222 HD
ENDBRANCH  14  18
ENDBRANCH  13  14
ENDBRANCH   1  13
TORSDOF 11
ENDMDL
MODEL 9
REMARK VINA RESULT:      -4.4      1.653      2.542
REMARK  Name = 
REMARK  12 active torsions:
REMARK  status: ('A' for Active; 'I' for Inactive)
REMARK    1  A    between atoms: C_1  and  C_2
REMARK    2  A    between atoms: C_2  and  C_4
REMARK    3  A    between atoms: C_2  and  C_6
REMARK    4  A    between atoms: C_4  and  O_5
REMARK    5  A    between atoms: C_6  and  C_7
REMARK    6  A    between atoms: C_7  and  O_8
REMARK    7  A    between atoms: O_8  and  P_9
REMARK    8  A    between atoms: P_9  and  O_10
REMARK    9  A    between atoms: P_9  and  O_12
REMARK   10  A    between atoms: O_12  and  P_13
REMARK   11  A    between atoms: P_13  and  O_14
REMARK   12  A    between atoms: P_13  and  O_15
REMARK                            x       y       z     vdW  Elec       q    Type
REMARK                         _______ _______ _______ _____ _____    ______ ____
ROOT
ATOM      1  P   UNL     1       7.475  -3.621  23.245  0.00  0.00    +0.483 P 
ATOM      2  O   UNL     1       6.748  -3.337  24.560  0.00  0.00    -0.227 OA
ENDROOT
BRANCH   1   3
ATOM      3  O   UNL     1       6.676  -2.247  22.560  0.00  0.00    -0.302 OA
ATOM      4  H   UNL     1       6.493  -1.685  23.341  0.00  0.00    +0.222 HD
ENDBRANCH   1   3
BRANCH   1   5
ATOM      5  O   UNL     1       8.884  -2.779  23.242  0.00  0.00    -0.286 OA
BRANCH   5   6
ATOM      6  C   UNL     1       8.748  -1.431  22.824  0.00  0.00    +0.173 C 
BRANCH   6   7
ATOM      7  C   UNL     1      10.117  -0.855  22.486  0.00  0.00    +0.034 C 
BRANCH   7   9
ATOM      8  C   UNL     1      10.255   0.179  24.772  0.00  0.00    +0.010 C 
ATOM      9  C   UNL     1      10.425   0.432  23.272  0.00  0.00    +0.014 C 
BRANCH   9  10
ATOM     10  C   UNL     1       9.558   1.609  22.803  0.00  0.00    +0.159 C 
BRANCH  10  11
ATOM     11  O   UNL     1       9.959   2.061  21.518  0.00  0.00    -0.395 OA
ATOM     12  H   UNL     1      10.464   2.883  21.640  0.00  0.00    +0.209 HD
ENDBRANCH  10  11
ENDBRANCH   9  10
ENDBRANCH   7   9
ENDBRANCH   6   7
ENDBRANCH   5   6
ENDBRANCH   1   5
BRANCH   1  13
ATOM     13  O   UNL     1       8.273  -4.995  23.929  0.00  0.00    -0.186 OA
BRANCH  13  14
ATOM     14  P   UNL     1       8.729  -5.065  25.437  0.00  0.00    +0.481 P 
ATOM     15  O   UNL     1       7.797  -5.771  26.354  0.00  0.00    -0.227 OA
BRANCH  14  16
ATOM     16  O   UNL     1       9.122  -3.568  25.814  0.00  0.00    -0.302 OA
ATOM     17  H   UNL     1       8.440  -2.918  25.556  0.00  0.00    +0.222 HD
ENDBRANCH  14  16
BRANCH  14  18
ATOM     18  O   UNL     1      10.169  -5.756  25.313  0.00  0.00    -0.302 OA
ATOM     19  H   UNL     1      10.612  -5.576  24.466  0.00  0.00    +0.222 HD
ENDBRANCH  14  18
ENDBRANCH  13  14
ENDBRANCH   1  13
TORSDOF 11
ENDMDL
