MODEL 1
REMARK VINA RESULT:      -7.8      0.000      0.000
REMARK  Name = 
REMARK  8 active torsions:
REMARK  status: ('A' for Active; 'I' for Inactive)
REMARK    1  A    between atoms: C_1  and  C_2
REMARK    2  A    between atoms: N_6  and  C_7
REMARK    3  A    between atoms: C_7  and  C_8
REMARK    4  A    between atoms: C_8  and  C_11
REMARK    5  A    between atoms: N_19  and  C_20
REMARK    6  A    between atoms: C_20  and  C_21
REMARK    7  A    between atoms: N_23  and  C_24
REMARK    8  A    between atoms: C_24  and  C_25
REMARK                            x       y       z     vdW  Elec       q    Type
REMARK                         _______ _______ _______ _____ _____    ______ ____
ROOT
ATOM      1  C   UNL     1       7.119   0.526  26.325  0.00  0.00    +0.065 C 
ATOM      2  C   UNL     1       7.253  -0.475  25.213  0.00  0.00    +0.038 A 
ATOM      3  N   UNL     1       8.506  -0.895  24.774  0.00  0.00    -0.300 N 
ATOM      4  C   UNL     1       8.599  -1.767  23.684  0.00  0.00    +0.292 A 
ATOM      5  O   UNL     1       9.634  -2.202  23.193  0.00  0.00    -0.264 OA
ATOM      6  C   UNL     1       7.252  -2.202  23.055  0.00  0.00    +0.185 A 
ATOM      7  N   UNL     1       7.294  -3.029  21.948  0.00  0.00    -0.319 N 
ATOM      8  H   UNL     1       8.224  -3.379  21.713  0.00  0.00    +0.148 HD
ATOM      9  N   UNL     1       6.113  -1.811  23.555  0.00  0.00    -0.234 NA
ATOM     10  C   UNL     1       6.149  -0.948  24.611  0.00  0.00    +0.134 A 
ENDROOT
BRANCH   3  11
ATOM     11  C   UNL     1       9.754  -0.312  25.254  0.00  0.00    +0.220 C 
BRANCH  11  12
ATOM     12  C   UNL     1      10.426   0.837  24.493  0.00  0.00    +0.233 C 
ATOM     13  N   UNL     1       9.661   1.710  23.759  0.00  0.00    -0.308 N 
ATOM     14  H   UNL     1       8.677   1.543  23.581  0.00  0.00    +0.149 HD
ATOM     15  O   UNL     1      11.658   0.922  24.493  0.00  0.00    -0.274 OA
BRANCH  13  16
ATOM     16  C   UNL     1      10.344   2.748  23.002  0.00  0.00    +0.162 C 
BRANCH  16  17
ATOM     17  C   UNL     1      10.351   4.123  23.624  0.00  0.00    +0.093 A 
ATOM     18  N   UNL     1       9.166   4.696  23.979  0.00  0.00    -0.255 NA
ATOM     19  C   UNL     1       9.219   5.974  24.427  0.00  0.00    +0.111 A 
ATOM     20  C   UNL     1      10.390   6.717  24.539  0.00  0.00    +0.022 A 
ATOM     21  C   UNL     1      11.589   6.118  24.174  0.00  0.00    +0.042 A 
ATOM     22  C   UNL     1      11.564   4.811  23.704  0.00  0.00    +0.146 A 
ATOM     23  F   UNL     1      12.711   4.236  23.316  0.00  0.00    -0.204 F 
ENDBRANCH  16  17
ENDBRANCH  13  16
ENDBRANCH  11  12
ENDBRANCH   3  11
BRANCH   7  24
ATOM     24  C   UNL     1       6.185  -3.968  21.709  0.00  0.00    +0.185 C 
BRANCH  24  25
ATOM     25  C   UNL     1       6.453  -5.389  22.238  0.00  0.00    +0.305 C 
ATOM     26  F   UNL     1       7.267  -6.029  21.336  0.00  0.00    -0.197 F 
ATOM     27  F   UNL     1       5.280  -6.097  22.212  0.00  0.00    -0.197 F 
BRANCH  25  28
ATOM     28  C   UNL     1       7.063  -5.380  23.637  0.00  0.00    +0.111 A 
ATOM     29  N   UNL     1       8.418  -5.368  23.781  0.00  0.00    -0.254 NA
ATOM     30  C   UNL     1       8.920  -5.315  25.033  0.00  0.00    +0.111 A 
ATOM     31  C   UNL     1       8.136  -5.272  26.173  0.00  0.00    +0.020 A 
ATOM     32  C   UNL     1       6.755  -5.300  26.018  0.00  0.00    +0.003 A 
ATOM     33  C   UNL     1       6.209  -5.356  24.739  0.00  0.00    +0.029 A 
ENDBRANCH  25  28
ENDBRANCH  24  25
ENDBRANCH   7  24
TORSDOF 7
ENDMDL
MODEL 2
REMARK VINA RESULT:      -7.3      2.787      9.037
REMARK  Name = 
REMARK  8 active torsions:
REMARK  status: ('A' for Active; 'I' for Inactive)
REMARK    1  A    between atoms: C_1  and  C_2
REMARK    2  A    between atoms: N_6  and  C_7
REMARK    3  A    between atoms: C_7  and  C_8
REMARK    4  A    between atoms: C_8  and  C_11
REMARK    5  A    between atoms: N_19  and  C_20
REMARK    6  A    between atoms: C_20  and  C_21
REMARK    7  A    between atoms: N_23  and  C_24
REMARK    8  A    between atoms: C_24  and  C_25
REMARK                            x       y       z     vdW  Elec       q    Type
REMARK                         _______ _______ _______ _____ _____    ______ ____
ROOT
ATOM      1  C   UNL     1       7.044  -3.209  26.717  0.00  0.00    +0.065 C 
ATOM      2  C   UNL     1       7.981  -2.415  25.854  0.00  0.00    +0.038 A 
ATOM      3  N   UNL     1       8.604  -2.994  24.751  0.00  0.00    -0.300 N 
ATOM      4  C   UNL     1       9.532  -2.251  24.013  0.00  0.00    +0.292 A 
ATOM      5  O   UNL     1      10.155  -2.642  23.033  0.00  0.00    -0.264 OA
ATOM      6  C   UNL     1       9.780  -0.805  24.508  0.00  0.00    +0.185 A 
ATOM      7  N   UNL     1      10.722  -0.045  23.837  0.00  0.00    -0.319 N 
ATOM      8  H   UNL     1      11.090  -0.477  22.989  0.00  0.00    +0.148 HD
ATOM      9  N   UNL     1       9.119  -0.311  25.517  0.00  0.00    -0.234 NA
ATOM     10  C   UNL     1       8.249  -1.136  26.168  0.00  0.00    +0.134 A 
ENDROOT
BRANCH   3  11
ATOM     11  C   UNL     1       8.502  -4.414  24.433  0.00  0.00    +0.220 C 
BRANCH  11  12
ATOM     12  C   UNL     1       7.407  -4.930  23.492  0.00  0.00    +0.233 C 
ATOM     13  N   UNL     1       6.278  -5.514  24.012  0.00  0.00    -0.308 N 
ATOM     14  H   UNL     1       6.199  -5.749  24.996  0.00  0.00    +0.149 HD
ATOM     15  O   UNL     1       7.586  -4.878  22.271  0.00  0.00    -0.274 OA
BRANCH  13  16
ATOM     16  C   UNL     1       5.293  -6.046  23.083  0.00  0.00    +0.162 C 
BRANCH  16  17
ATOM     17  C   UNL     1       3.862  -6.036  23.560  0.00  0.00    +0.093 A 
ATOM     18  N   UNL     1       2.968  -5.199  22.960  0.00  0.00    -0.255 NA
ATOM     19  C   UNL     1       1.726  -5.147  23.500  0.00  0.00    +0.111 A 
ATOM     20  C   UNL     1       1.323  -5.882  24.610  0.00  0.00    +0.022 A 
ATOM     21  C   UNL     1       2.245  -6.731  25.210  0.00  0.00    +0.042 A 
ATOM     22  C   UNL     1       3.529  -6.800  24.682  0.00  0.00    +0.146 A 
ATOM     23  F   UNL     1       4.436  -7.589  25.274  0.00  0.00    -0.204 F 
ENDBRANCH  16  17
ENDBRANCH  13  16
ENDBRANCH  11  12
ENDBRANCH   3  11
BRANCH   7  24
ATOM     24  C   UNL     1      10.563   1.418  23.786  0.00  0.00    +0.185 C 
BRANCH  24  25
ATOM     25  C   UNL     1      10.010   1.933  22.446  0.00  0.00    +0.305 C 
ATOM     26  F   UNL     1       9.831   0.851  21.619  0.00  0.00    -0.197 F 
ATOM     27  F   UNL     1      10.976   2.685  21.830  0.00  0.00    -0.197 F 
BRANCH  25  28
ATOM     28  C   UNL     1       8.718   2.727  22.619  0.00  0.00    +0.111 A 
ATOM     29  N   UNL     1       8.716   3.849  23.393  0.00  0.00    -0.254 NA
ATOM     30  C   UNL     1       7.566   4.550  23.488  0.00  0.00    +0.111 A 
ATOM     31  C   UNL     1       6.394   4.191  22.843  0.00  0.00    +0.020 A 
ATOM     32  C   UNL     1       6.400   3.037  22.069  0.00  0.00    +0.003 A 
ATOM     33  C   UNL     1       7.572   2.294  21.954  0.00  0.00    +0.029 A 
ENDBRANCH  25  28
ENDBRANCH  24  25
ENDBRANCH   7  24
TORSDOF 7
ENDMDL
MODEL 3
REMARK VINA RESULT:      -7.3      2.956      3.963
REMARK  Name = 
REMARK  8 active torsions:
REMARK  status: ('A' for Active; 'I' for Inactive)
REMARK    1  A    between atoms: C_1  and  C_2
REMARK    2  A    between atoms: N_6  and  C_7
REMARK    3  A    between atoms: C_7  and  C_8
REMARK    4  A    between atoms: C_8  and  C_11
REMARK    5  A    between atoms: N_19  and  C_20
REMARK    6  A    between atoms: C_20  and  C_21
REMARK    7  A    between atoms: N_23  and  C_24
REMARK    8  A    between atoms: C_24  and  C_25
REMARK                            x       y       z     vdW  Elec       q    Type
REMARK                         _______ _______ _______ _____ _____    ______ ____
ROOT
ATOM      1  C   UNL     1       4.481  -3.243  28.672  0.00  0.00    +0.065 C 
ATOM      2  C   UNL     1       4.611  -3.415  27.186  0.00  0.00    +0.038 A 
ATOM      3  N   UNL     1       4.978  -2.348  26.370  0.00  0.00    -0.300 N 
ATOM      4  C   UNL     1       5.014  -2.519  24.983  0.00  0.00    +0.292 A 
ATOM      5  O   UNL     1       5.308  -1.664  24.155  0.00  0.00    -0.264 OA
ATOM      6  C   UNL     1       4.635  -3.931  24.471  0.00  0.00    +0.185 A 
ATOM      7  N   UNL     1       4.612  -4.138  23.103  0.00  0.00    -0.319 N 
ATOM      8  H   UNL     1       4.968  -3.358  22.549  0.00  0.00    +0.148 HD
ATOM      9  N   UNL     1       4.354  -4.899  25.297  0.00  0.00    -0.234 NA
ATOM     10  C   UNL     1       4.338  -4.608  26.630  0.00  0.00    +0.134 A 
ENDROOT
BRANCH   3  11
ATOM     11  C   UNL     1       5.132  -0.984  26.865  0.00  0.00    +0.220 C 
BRANCH  11  12
ATOM     12  C   UNL     1       6.451  -0.226  26.676  0.00  0.00    +0.233 C 
ATOM     13  N   UNL     1       6.509   0.842  25.814  0.00  0.00    -0.308 N 
ATOM     14  H   UNL     1       5.746   1.066  25.184  0.00  0.00    +0.149 HD
ATOM     15  O   UNL     1       7.467  -0.631  27.249  0.00  0.00    -0.274 OA
BRANCH  13  16
ATOM     16  C   UNL     1       7.795   1.493  25.617  0.00  0.00    +0.162 C 
BRANCH  16  17
ATOM     17  C   UNL     1       8.407   1.345  24.246  0.00  0.00    +0.093 A 
ATOM     18  N   UNL     1       7.644   1.610  23.147  0.00  0.00    -0.255 NA
ATOM     19  C   UNL     1       8.206   1.353  21.940  0.00  0.00    +0.111 A 
ATOM     20  C   UNL     1       9.488   0.842  21.766  0.00  0.00    +0.022 A 
ATOM     21  C   UNL     1      10.253   0.579  22.896  0.00  0.00    +0.042 A 
ATOM     22  C   UNL     1       9.700   0.826  24.146  0.00  0.00    +0.146 A 
ATOM     23  F   UNL     1      10.415   0.542  25.243  0.00  0.00    -0.204 F 
ENDBRANCH  16  17
ENDBRANCH  13  16
ENDBRANCH  11  12
ENDBRANCH   3  11
BRANCH   7  24
ATOM     24  C   UNL     1       4.910  -5.479  22.573  0.00  0.00    +0.185 C 
BRANCH  24  25
ATOM     25  C   UNL     1       6.322  -5.608  21.974  0.00  0.00    +0.305 C 
ATOM     26  F   UNL     1       6.232  -5.367  20.625  0.00  0.00    -0.197 F 
ATOM     27  F   UNL     1       6.723  -6.915  22.068  0.00  0.00    -0.197 F 
BRANCH  25  28
ATOM     28  C   UNL     1       7.323  -4.672  22.646  0.00  0.00    +0.111 A 
ATOM     29  N   UNL     1       7.508  -3.415  22.151  0.00  0.00    -0.254 NA
ATOM     30  C   UNL     1       8.368  -2.601  22.798  0.00  0.00    +0.111 A 
ATOM     31  C   UNL     1       9.069  -2.973  23.932  0.00  0.00    +0.020 A 
ATOM     32  C   UNL     1       8.889  -4.261  24.422  0.00  0.00    +0.003 A 
ATOM     33  C   UNL     1       8.008  -5.123  23.774  0.00  0.00    +0.029 A 
ENDBRANCH  25  28
ENDBRANCH  24  25
ENDBRANCH   7  24
TORSDOF 7
ENDMDL
MODEL 4
REMARK VINA RESULT:      -7.3      3.194      8.664
REMARK  Name = 
REMARK  8 active torsions:
REMARK  status: ('A' for Active; 'I' for Inactive)
REMARK    1  A    between atoms: C_1  and  C_2
REMARK    2  A    between atoms: N_6  and  C_7
REMARK    3  A    between atoms: C_7  and  C_8
REMARK    4  A    between atoms: C_8  and  C_11
REMARK    5  A    between atoms: N_19  and  C_20
REMARK    6  A    between atoms: C_20  and  C_21
REMARK    7  A    between atoms: N_23  and  C_24
REMARK    8  A    between atoms: C_24  and  C_25
REMARK                            x       y       z     vdW  Elec       q    Type
REMARK                         _______ _______ _______ _____ _____    ______ ____
ROOT
ATOM      1  C   UNL     1       5.969  -5.600  23.329  0.00  0.00    +0.065 C 
ATOM      2  C   UNL     1       6.980  -4.501  23.172  0.00  0.00    +0.038 A 
ATOM      3  N   UNL     1       8.179  -4.524  23.881  0.00  0.00    -0.300 N 
ATOM      4  C   UNL     1       9.065  -3.447  23.773  0.00  0.00    +0.292 A 
ATOM      5  O   UNL     1      10.142  -3.337  24.348  0.00  0.00    -0.264 OA
ATOM      6  C   UNL     1       8.614  -2.297  22.839  0.00  0.00    +0.185 A 
ATOM      7  N   UNL     1       9.437  -1.190  22.735  0.00  0.00    -0.319 N 
ATOM      8  H   UNL     1      10.339  -1.285  23.201  0.00  0.00    +0.148 HD
ATOM      9  N   UNL     1       7.501  -2.368  22.164  0.00  0.00    -0.234 NA
ATOM     10  C   UNL     1       6.712  -3.463  22.362  0.00  0.00    +0.134 A 
ENDROOT
BRANCH   3  11
ATOM     11  C   UNL     1       8.481  -5.520  24.902  0.00  0.00    +0.220 C 
BRANCH  11  12
ATOM     12  C   UNL     1       8.010  -5.327  26.349  0.00  0.00    +0.233 C 
ATOM     13  N   UNL     1       6.916  -6.018  26.809  0.00  0.00    -0.308 N 
ATOM     14  H   UNL     1       6.315  -6.548  26.188  0.00  0.00    +0.149 HD
ATOM     15  O   UNL     1       8.579  -4.495  27.063  0.00  0.00    -0.274 OA
BRANCH  13  16
ATOM     16  C   UNL     1       6.464  -5.757  28.168  0.00  0.00    +0.162 C 
BRANCH  16  17
ATOM     17  C   UNL     1       4.998  -5.995  28.434  0.00  0.00    +0.093 A 
ATOM     18  N   UNL     1       4.631  -7.025  29.248  0.00  0.00    -0.255 NA
ATOM     19  C   UNL     1       3.302  -7.264  29.363  0.00  0.00    +0.111 A 
ATOM     20  C   UNL     1       2.315  -6.535  28.708  0.00  0.00    +0.022 A 
ATOM     21  C   UNL     1       2.706  -5.488  27.882  0.00  0.00    +0.042 A 
ATOM     22  C   UNL     1       4.062  -5.224  27.740  0.00  0.00    +0.146 A 
ATOM     23  F   UNL     1       4.452  -4.240  26.918  0.00  0.00    -0.204 F 
ENDBRANCH  16  17
ENDBRANCH  13  16
ENDBRANCH  11  12
ENDBRANCH   3  11
BRANCH   7  24
ATOM     24  C   UNL     1       9.451  -0.419  21.480  0.00  0.00    +0.185 C 
BRANCH  24  25
ATOM     25  C   UNL     1       9.051   1.057  21.656  0.00  0.00    +0.305 C 
ATOM     26  F   UNL     1       8.358   1.443  20.535  0.00  0.00    -0.197 F 
ATOM     27  F   UNL     1      10.186   1.825  21.645  0.00  0.00    -0.197 F 
BRANCH  25  28
ATOM     28  C   UNL     1       8.238   1.289  22.927  0.00  0.00    +0.111 A 
ATOM     29  N   UNL     1       8.882   1.483  24.112  0.00  0.00    -0.254 NA
ATOM     30  C   UNL     1       8.130   1.729  25.206  0.00  0.00    +0.111 A 
ATOM     31  C   UNL     1       6.748   1.794  25.188  0.00  0.00    +0.020 A 
ATOM     32  C   UNL     1       6.097   1.578  23.979  0.00  0.00    +0.003 A 
ATOM     33  C   UNL     1       6.847   1.321  22.834  0.00  0.00    +0.029 A 
ENDBRANCH  25  28
ENDBRANCH  24  25
ENDBRANCH   7  24
TORSDOF 7
ENDMDL
MODEL 5
REMARK VINA RESULT:      -7.2      1.796      2.301
REMARK  Name = 
REMARK  8 active torsions:
REMARK  status: ('A' for Active; 'I' for Inactive)
REMARK    1  A    between atoms: C_1  and  C_2
REMARK    2  A    between atoms: N_6  and  C_7
REMARK    3  A    between atoms: C_7  and  C_8
REMARK    4  A    between atoms: C_8  and  C_11
REMARK    5  A    between atoms: N_19  and  C_20
REMARK    6  A    between atoms: C_20  and  C_21
REMARK    7  A    between atoms: N_23  and  C_24
REMARK    8  A    between atoms: C_24  and  C_25
REMARK                            x       y       z     vdW  Elec       q    Type
REMARK                         _______ _______ _______ _____ _____    ______ ____
ROOT
ATOM      1  C   UNL     1       8.228  -0.457  27.219  0.00  0.00    +0.065 C 
ATOM      2  C   UNL     1       8.258  -1.382  26.036  0.00  0.00    +0.038 A 
ATOM      3  N   UNL     1       9.221  -1.239  25.040  0.00  0.00    -0.300 N 
ATOM      4  C   UNL     1       9.175  -2.065  23.912  0.00  0.00    +0.292 A 
ATOM      5  O   UNL     1       9.950  -2.038  22.963  0.00  0.00    -0.264 OA
ATOM      6  C   UNL     1       8.021  -3.099  23.883  0.00  0.00    +0.185 A 
ATOM      7  N   UNL     1       7.907  -3.909  22.768  0.00  0.00    -0.319 N 
ATOM      8  H   UNL     1       8.679  -3.830  22.104  0.00  0.00    +0.148 HD
ATOM      9  N   UNL     1       7.187  -3.211  24.879  0.00  0.00    -0.234 NA
ATOM     10  C   UNL     1       7.324  -2.340  25.919  0.00  0.00    +0.134 A 
ENDROOT
BRANCH   3  11
ATOM     11  C   UNL     1      10.167  -0.130  24.999  0.00  0.00    +0.220 C 
BRANCH  11  12
ATOM     12  C   UNL     1       9.863   1.130  24.180  0.00  0.00    +0.233 C 
ATOM     13  N   UNL     1      10.893   1.922  23.735  0.00  0.00    -0.308 N 
ATOM     14  H   UNL     1      11.849   1.786  24.047  0.00  0.00    +0.149 HD
ATOM     15  O   UNL     1       8.687   1.457  23.991  0.00  0.00    -0.274 OA
BRANCH  13  16
ATOM     16  C   UNL     1      10.558   3.141  23.016  0.00  0.00    +0.162 C 
BRANCH  16  17
ATOM     17  C   UNL     1      10.696   4.426  23.794  0.00  0.00    +0.093 A 
ATOM     18  N   UNL     1       9.588   4.980  24.363  0.00  0.00    -0.255 NA
ATOM     19  C   UNL     1       9.747   6.190  24.953  0.00  0.00    +0.111 A 
ATOM     20  C   UNL     1      10.952   6.884  25.005  0.00  0.00    +0.022 A 
ATOM     21  C   UNL     1      12.072   6.305  24.421  0.00  0.00    +0.042 A 
ATOM     22  C   UNL     1      11.937   5.069  23.802  0.00  0.00    +0.146 A 
ATOM     23  F   UNL     1      13.003   4.518  23.205  0.00  0.00    -0.204 F 
ENDBRANCH  16  17
ENDBRANCH  13  16
ENDBRANCH  11  12
ENDBRANCH   3  11
BRANCH   7  24
ATOM     24  C   UNL     1       7.332  -5.256  22.912  0.00  0.00    +0.185 C 
BRANCH  24  25
ATOM     25  C   UNL     1       6.015  -5.453  22.139  0.00  0.00    +0.305 C 
ATOM     26  F   UNL     1       6.201  -6.477  21.243  0.00  0.00    -0.197 F 
ATOM     27  F   UNL     1       5.792  -4.346  21.362  0.00  0.00    -0.197 F 
BRANCH  25  28
ATOM     28  C   UNL     1       4.835  -5.726  23.067  0.00  0.00    +0.111 A 
ATOM     29  N   UNL     1       3.624  -5.157  22.802  0.00  0.00    -0.254 NA
ATOM     30  C   UNL     1       2.593  -5.457  23.619  0.00  0.00    +0.111 A 
ATOM     31  C   UNL     1       2.698  -6.307  24.707  0.00  0.00    +0.020 A 
ATOM     32  C   UNL     1       3.939  -6.870  24.980  0.00  0.00    +0.003 A 
ATOM     33  C   UNL     1       5.021  -6.577  24.155  0.00  0.00    +0.029 A 
ENDBRANCH  25  28
ENDBRANCH  24  25
ENDBRANCH   7  24
TORSDOF 7
ENDMDL
MODEL 6
REMARK VINA RESULT:      -7.2      1.999      2.768
REMARK  Name = 
REMARK  8 active torsions:
REMARK  status: ('A' for Active; 'I' for Inactive)
REMARK    1  A    between atoms: C_1  and  C_2
REMARK    2  A    between atoms: N_6  and  C_7
REMARK    3  A    between atoms: C_7  and  C_8
REMARK    4  A    between atoms: C_8  and  C_11
REMARK    5  A    between atoms: N_19  and  C_20
REMARK    6  A    between atoms: C_20  and  C_21
REMARK    7  A    between atoms: N_23  and  C_24
REMARK    8  A    between atoms: C_24  and  C_25
REMARK                            x       y       z     vdW  Elec       q    Type
REMARK                         _______ _______ _______ _____ _____    ______ ____
ROOT
ATOM      1  C   UNL     1      10.837   0.315  24.792  0.00  0.00    +0.065 C 
ATOM      2  C   UNL     1       9.643  -0.453  24.299  0.00  0.00    +0.038 A 
ATOM      3  N   UNL     1       8.349  -0.038  24.602  0.00  0.00    -0.300 N 
ATOM      4  C   UNL     1       7.261  -0.817  24.195  0.00  0.00    +0.292 A 
ATOM      5  O   UNL     1       6.078  -0.573  24.404  0.00  0.00    -0.264 OA
ATOM      6  C   UNL     1       7.614  -2.108  23.415  0.00  0.00    +0.185 A 
ATOM      7  N   UNL     1       6.574  -2.935  23.030  0.00  0.00    -0.319 N 
ATOM      8  H   UNL     1       5.643  -2.552  23.197  0.00  0.00    +0.148 HD
ATOM      9  N   UNL     1       8.848  -2.406  23.121  0.00  0.00    -0.234 NA
ATOM     10  C   UNL     1       9.827  -1.575  23.583  0.00  0.00    +0.134 A 
ENDROOT
BRANCH   3  11
ATOM     11  C   UNL     1       8.059   1.069  25.507  0.00  0.00    +0.220 C 
BRANCH  11  12
ATOM     12  C   UNL     1       8.125   2.520  25.016  0.00  0.00    +0.233 C 
ATOM     13  N   UNL     1       8.614   2.796  23.763  0.00  0.00    -0.308 N 
ATOM     14  H   UNL     1       9.069   2.089  23.195  0.00  0.00    +0.149 HD
ATOM     15  O   UNL     1       7.804   3.432  25.785  0.00  0.00    -0.274 OA
BRANCH  13  16
ATOM     16  C   UNL     1       8.719   4.191  23.361  0.00  0.00    +0.162 C 
BRANCH  16  17
ATOM     17  C   UNL     1       9.949   4.924  23.836  0.00  0.00    +0.093 A 
ATOM     18  N   UNL     1       9.799   6.048  24.594  0.00  0.00    -0.255 NA
ATOM     19  C   UNL     1      10.930   6.731  24.898  0.00  0.00    +0.111 A 
ATOM     20  C   UNL     1      12.205   6.358  24.486  0.00  0.00    +0.022 A 
ATOM     21  C   UNL     1      12.340   5.209  23.715  0.00  0.00    +0.042 A 
ATOM     22  C   UNL     1      11.198   4.493  23.382  0.00  0.00    +0.146 A 
ATOM     23  F   UNL     1      11.313   3.404  22.609  0.00  0.00    -0.204 F 
ENDBRANCH  16  17
ENDBRANCH  13  16
ENDBRANCH  11  12
ENDBRANCH   3  11
BRANCH   7  24
ATOM     24  C   UNL     1       6.715  -3.750  21.812  0.00  0.00    +0.185 C 
BRANCH  24  25
ATOM     25  C   UNL     1       6.497  -5.255  22.046  0.00  0.00    +0.305 C 
ATOM     26  F   UNL     1       7.634  -5.761  22.627  0.00  0.00    -0.197 F 
ATOM     27  F   UNL     1       6.418  -5.883  20.831  0.00  0.00    -0.197 F 
BRANCH  25  28
ATOM     28  C   UNL     1       5.261  -5.536  22.896  0.00  0.00    +0.111 A 
ATOM     29  N   UNL     1       4.091  -4.895  22.615  0.00  0.00    -0.254 NA
ATOM     30  C   UNL     1       3.008  -5.201  23.360  0.00  0.00    +0.111 A 
ATOM     31  C   UNL     1       3.022  -6.127  24.389  0.00  0.00    +0.020 A 
ATOM     32  C   UNL     1       4.222  -6.765  24.680  0.00  0.00    +0.003 A 
ATOM     33  C   UNL     1       5.356  -6.467  23.928  0.00  0.00    +0.029 A 
ENDBRANCH  25  28
ENDBRANCH  24  25
ENDBRANCH   7  24
TORSDOF 7
ENDMDL
MODEL 7
REMARK VINA RESULT:      -7.2      2.701      9.454
REMARK  Name = 
REMARK  8 active torsions:
REMARK  status: ('A' for Active; 'I' for Inactive)
REMARK    1  A    between atoms: C_1  and  C_2
REMARK    2  A    between atoms: N_6  and  C_7
REMARK    3  A    between atoms: C_7  and  C_8
REMARK    4  A    between atoms: C_8  and  C_11
REMARK    5  A    between atoms: N_19  and  C_20
REMARK    6  A    between atoms: C_20  and  C_21
REMARK    7  A    between atoms: N_23  and  C_24
REMARK    8  A    between atoms: C_24  and  C_25
REMARK                            x       y       z     vdW  Elec       q    Type
REMARK                         _______ _______ _______ _____ _____    ______ ____
ROOT
ATOM      1  C   UNL     1       7.528  -4.409  26.736  0.00  0.00    +0.065 C 
ATOM      2  C   UNL     1       8.162  -3.334  25.900  0.00  0.00    +0.038 A 
ATOM      3  N   UNL     1       8.496  -3.566  24.568  0.00  0.00    -0.300 N 
ATOM      4  C   UNL     1       9.156  -2.572  23.839  0.00  0.00    +0.292 A 
ATOM      5  O   UNL     1       9.515  -2.650  22.670  0.00  0.00    -0.264 OA
ATOM      6  C   UNL     1       9.457  -1.262  24.609  0.00  0.00    +0.185 A 
ATOM      7  N   UNL     1      10.147  -0.265  23.944  0.00  0.00    -0.319 N 
ATOM      8  H   UNL     1      10.297  -0.442  22.950  0.00  0.00    +0.148 HD
ATOM      9  N   UNL     1       9.065  -1.095  25.841  0.00  0.00    -0.234 NA
ATOM     10  C   UNL     1       8.441  -2.142  26.454  0.00  0.00    +0.134 A 
ENDROOT
BRANCH   3  11
ATOM     11  C   UNL     1       8.382  -4.875  23.934  0.00  0.00    +0.220 C 
BRANCH  11  12
ATOM     12  C   UNL     1       7.188  -5.207  23.032  0.00  0.00    +0.233 C 
ATOM     13  N   UNL     1       5.929  -5.304  23.572  0.00  0.00    -0.308 N 
ATOM     14  H   UNL     1       5.773  -5.304  24.574  0.00  0.00    +0.149 HD
ATOM     15  O   UNL     1       7.384  -5.455  21.838  0.00  0.00    -0.274 OA
BRANCH  13  16
ATOM     16  C   UNL     1       4.834  -5.683  22.692  0.00  0.00    +0.162 C 
BRANCH  16  17
ATOM     17  C   UNL     1       3.514  -5.970  23.365  0.00  0.00    +0.093 A 
ATOM     18  N   UNL     1       2.410  -5.266  22.985  0.00  0.00    -0.255 NA
ATOM     19  C   UNL     1       1.277  -5.482  23.698  0.00  0.00    +0.111 A 
ATOM     20  C   UNL     1       1.183  -6.359  24.773  0.00  0.00    +0.022 A 
ATOM     21  C   UNL     1       2.318  -7.070  25.146  0.00  0.00    +0.042 A 
ATOM     22  C   UNL     1       3.495  -6.863  24.439  0.00  0.00    +0.146 A 
ATOM     23  F   UNL     1       4.604  -7.516  24.813  0.00  0.00    -0.204 F 
ENDBRANCH  16  17
ENDBRANCH  13  16
ENDBRANCH  11  12
ENDBRANCH   3  11
BRANCH   7  24
ATOM     24  C   UNL     1       9.910   1.142  24.308  0.00  0.00    +0.185 C 
BRANCH  24  25
ATOM     25  C   UNL     1       9.771   2.079  23.095  0.00  0.00    +0.305 C 
ATOM     26  F   UNL     1       8.439   2.155  22.771  0.00  0.00    -0.197 F 
ATOM     27  F   UNL     1      10.360   1.485  22.010  0.00  0.00    -0.197 F 
BRANCH  25  28
ATOM     28  C   UNL     1      10.363   3.461  23.360  0.00  0.00    +0.111 A 
ATOM     29  N   UNL     1      11.695   3.672  23.158  0.00  0.00    -0.254 NA
ATOM     30  C   UNL     1      12.174   4.918  23.361  0.00  0.00    +0.111 A 
ATOM     31  C   UNL     1      11.389   5.986  23.759  0.00  0.00    +0.020 A 
ATOM     32  C   UNL     1      10.036   5.759  23.978  0.00  0.00    +0.003 A 
ATOM     33  C   UNL     1       9.514   4.484  23.778  0.00  0.00    +0.029 A 
ENDBRANCH  25  28
ENDBRANCH  24  25
ENDBRANCH   7  24
TORSDOF 7
ENDMDL
MODEL 8
REMARK VINA RESULT:      -7.2      2.449      3.766
REMARK  Name = 
REMARK  8 active torsions:
REMARK  status: ('A' for Active; 'I' for Inactive)
REMARK    1  A    between atoms: C_1  and  C_2
REMARK    2  A    between atoms: N_6  and  C_7
REMARK    3  A    between atoms: C_7  and  C_8
REMARK    4  A    between atoms: C_8  and  C_11
REMARK    5  A    between atoms: N_19  and  C_20
REMARK    6  A    between atoms: C_20  and  C_21
REMARK    7  A    between atoms: N_23  and  C_24
REMARK    8  A    between atoms: C_24  and  C_25
REMARK                            x       y       z     vdW  Elec       q    Type
REMARK                         _______ _______ _______ _____ _____    ______ ____
ROOT
ATOM      1  C   UNL     1      10.564   2.186  22.287  0.00  0.00    +0.065 C 
ATOM      2  C   UNL     1       9.817   1.027  22.883  0.00  0.00    +0.038 A 
ATOM      3  N   UNL     1       8.468   0.824  22.601  0.00  0.00    -0.300 N 
ATOM      4  C   UNL     1       7.780  -0.217  23.233  0.00  0.00    +0.292 A 
ATOM      5  O   UNL     1       6.596  -0.497  23.083  0.00  0.00    -0.264 OA
ATOM      6  C   UNL     1       8.616  -1.077  24.213  0.00  0.00    +0.185 A 
ATOM      7  N   UNL     1       7.969  -2.091  24.896  0.00  0.00    -0.319 N 
ATOM      8  H   UNL     1       7.008  -2.258  24.597  0.00  0.00    +0.148 HD
ATOM      9  N   UNL     1       9.890  -0.861  24.386  0.00  0.00    -0.234 NA
ATOM     10  C   UNL     1      10.449   0.193  23.725  0.00  0.00    +0.134 A 
ENDROOT
BRANCH   3  11
ATOM     11  C   UNL     1       7.663   1.768  21.834  0.00  0.00    +0.220 C 
BRANCH  11  12
ATOM     12  C   UNL     1       7.107   3.038  22.490  0.00  0.00    +0.233 C 
ATOM     13  N   UNL     1       7.664   4.259  22.196  0.00  0.00    -0.308 N 
ATOM     14  H   UNL     1       8.525   4.344  21.668  0.00  0.00    +0.149 HD
ATOM     15  O   UNL     1       6.209   2.938  23.332  0.00  0.00    -0.274 OA
BRANCH  13  16
ATOM     16  C   UNL     1       7.148   5.430  22.889  0.00  0.00    +0.162 C 
BRANCH  16  17
ATOM     17  C   UNL     1       7.863   5.814  24.160  0.00  0.00    +0.093 A 
ATOM     18  N   UNL     1       7.211   5.692  25.351  0.00  0.00    -0.255 NA
ATOM     19  C   UNL     1       7.857   6.156  26.449  0.00  0.00    +0.111 A 
ATOM     20  C   UNL     1       9.119   6.741  26.426  0.00  0.00    +0.022 A 
ATOM     21  C   UNL     1       9.771   6.857  25.204  0.00  0.00    +0.042 A 
ATOM     22  C   UNL     1       9.129   6.396  24.061  0.00  0.00    +0.146 A 
ATOM     23  F   UNL     1       9.734   6.536  22.874  0.00  0.00    -0.204 F 
ENDBRANCH  16  17
ENDBRANCH  13  16
ENDBRANCH  11  12
ENDBRANCH   3  11
BRANCH   7  24
ATOM     24  C   UNL     1       8.727  -3.290  25.291  0.00  0.00    +0.185 C 
BRANCH  24  25
ATOM     25  C   UNL     1       7.919  -4.596  25.185  0.00  0.00    +0.305 C 
ATOM     26  F   UNL     1       7.012  -4.615  26.216  0.00  0.00    -0.197 F 
ATOM     27  F   UNL     1       8.754  -5.653  25.436  0.00  0.00    -0.197 F 
BRANCH  25  28
ATOM     28  C   UNL     1       7.232  -4.742  23.830  0.00  0.00    +0.111 A 
ATOM     29  N   UNL     1       6.189  -3.924  23.511  0.00  0.00    -0.254 NA
ATOM     30  C   UNL     1       5.636  -4.053  22.287  0.00  0.00    +0.111 A 
ATOM     31  C   UNL     1       6.069  -4.968  21.342  0.00  0.00    +0.020 A 
ATOM     32  C   UNL     1       7.121  -5.810  21.681  0.00  0.00    +0.003 A 
ATOM     33  C   UNL     1       7.711  -5.700  22.937  0.00  0.00    +0.029 A 
ENDBRANCH  25  28
ENDBRANCH  24  25
ENDBRANCH   7  24
TORSDOF 7
ENDMDL
MODEL 9
REMARK VINA RESULT:      -7.2      3.857      9.776
REMARK  Name = 
REMARK  8 active torsions:
REMARK  status: ('A' for Active; 'I' for Inactive)
REMARK    1  A    between atoms: C_1  and  C_2
REMARK    2  A    between atoms: N_6  and  C_7
REMARK    3  A    between atoms: C_7  and  C_8
REMARK    4  A    between atoms: C_8  and  C_11
REMARK    5  A    between atoms: N_19  and  C_20
REMARK    6  A    between atoms: C_20  and  C_21
REMARK    7  A    between atoms: N_23  and  C_24
REMARK    8  A    between atoms: C_24  and  C_25
REMARK                            x       y       z     vdW  Elec       q    Type
REMARK                         _______ _______ _______ _____ _____    ______ ____
ROOT
ATOM      1  C   UNL     1       7.621  -5.385  26.196  0.00  0.00    +0.065 C 
ATOM      2  C   UNL     1       7.960  -4.407  25.107  0.00  0.00    +0.038 A 
ATOM      3  N   UNL     1       7.313  -4.455  23.874  0.00  0.00    -0.300 N 
ATOM      4  C   UNL     1       7.707  -3.583  22.854  0.00  0.00    +0.292 A 
ATOM      5  O   UNL     1       7.231  -3.528  21.726  0.00  0.00    -0.264 OA
ATOM      6  C   UNL     1       8.858  -2.610  23.209  0.00  0.00    +0.185 A 
ATOM      7  N   UNL     1       9.312  -1.757  22.219  0.00  0.00    -0.319 N 
ATOM      8  H   UNL     1       8.757  -1.767  21.362  0.00  0.00    +0.148 HD
ATOM      9  N   UNL     1       9.380  -2.584  24.403  0.00  0.00    -0.234 NA
ATOM     10  C   UNL     1       8.923  -3.493  25.312  0.00  0.00    +0.134 A 
ENDROOT
BRANCH   3  11
ATOM     11  C   UNL     1       6.377  -5.512  23.506  0.00  0.00    +0.220 C 
BRANCH  11  12
ATOM     12  C   UNL     1       4.865  -5.309  23.662  0.00  0.00    +0.233 C 
ATOM     13  N   UNL     1       4.207  -5.868  24.731  0.00  0.00    -0.308 N 
ATOM     14  H   UNL     1       4.657  -6.533  25.350  0.00  0.00    +0.149 HD
ATOM     15  O   UNL     1       4.244  -4.702  22.784  0.00  0.00    -0.274 OA
BRANCH  13  16
ATOM     16  C   UNL     1       2.764  -5.703  24.807  0.00  0.00    +0.162 C 
BRANCH  16  17
ATOM     17  C   UNL     1       1.948  -6.968  24.695  0.00  0.00    +0.093 A 
ATOM     18  N   UNL     1       1.605  -7.637  25.832  0.00  0.00    -0.255 NA
ATOM     19  C   UNL     1       0.971  -8.825  25.670  0.00  0.00    +0.111 A 
ATOM     20  C   UNL     1       0.662  -9.386  24.436  0.00  0.00    +0.022 A 
ATOM     21  C   UNL     1       1.018  -8.690  23.287  0.00  0.00    +0.042 A 
ATOM     22  C   UNL     1       1.675  -7.474  23.422  0.00  0.00    +0.146 A 
ATOM     23  F   UNL     1       2.055  -6.811  22.320  0.00  0.00    -0.204 F 
ENDBRANCH  16  17
ENDBRANCH  13  16
ENDBRANCH  11  12
ENDBRANCH   3  11
BRANCH   7  24
ATOM     24  C   UNL     1       9.871  -0.448  22.597  0.00  0.00    +0.185 C 
BRANCH  24  25
ATOM     25  C   UNL     1       9.296   0.727  21.786  0.00  0.00    +0.305 C 
ATOM     26  F   UNL     1       9.100   0.295  20.498  0.00  0.00    -0.197 F 
ATOM     27  F   UNL     1      10.253   1.702  21.684  0.00  0.00    -0.197 F 
BRANCH  25  28
ATOM     28  C   UNL     1       8.009   1.276  22.396  0.00  0.00    +0.111 A 
ATOM     29  N   UNL     1       7.451   0.648  23.470  0.00  0.00    -0.254 NA
ATOM     30  C   UNL     1       6.338   1.188  24.009  0.00  0.00    +0.111 A 
ATOM     31  C   UNL     1       5.736   2.340  23.533  0.00  0.00    +0.020 A 
ATOM     32  C   UNL     1       6.301   2.965  22.428  0.00  0.00    +0.003 A 
ATOM     33  C   UNL     1       7.449   2.430  21.850  0.00  0.00    +0.029 A 
ENDBRANCH  25  28
ENDBRANCH  24  25
ENDBRANCH   7  24
TORSDOF 7
ENDMDL
