MODEL 1
REMARK VINA RESULT:      -5.6      0.000      0.000
REMARK  Name = 
REMARK  12 active torsions:
REMARK  status: ('A' for Active; 'I' for Inactive)
REMARK    1  A    between atoms: C_1  and  C_2
REMARK    2  A    between atoms: C_2  and  N_3
REMARK    3  A    between atoms: N_3  and  C_4
REMARK    4  A    between atoms: N_3  and  C_6
REMARK    5  A    between atoms: N_3  and  C_8
REMARK    6  A    between atoms: C_4  and  C_5
REMARK    7  A    between atoms: C_6  and  C_7
REMARK    8  A    between atoms: C_8  and  C_9
REMARK    9  A    between atoms: C_9  and  C_10
REMARK   10  A    between atoms: C_10  and  O_11
REMARK   11  A    between atoms: C_10  and  C_12
REMARK   12  A    between atoms: C_10  and  C_18
REMARK                            x       y       z     vdW  Elec       q    Type
REMARK                         _______ _______ _______ _____ _____    ______ ____
ROOT
ATOM      1  C   UNL     1       9.050  -1.518  23.515  0.00  0.00    +0.099 C 
ENDROOT
BRANCH   1   2
ATOM      2  C   UNL     1       8.335  -0.864  24.716  0.00  0.00    -0.016 A 
ATOM      3  C   UNL     1       7.097  -0.210  24.557  0.00  0.00    +0.006 A 
ATOM      4  C   UNL     1       6.327   0.168  25.663  0.00  0.00    +0.000 A 
ATOM      5  C   UNL     1       6.788  -0.081  26.951  0.00  0.00    +0.000 A 
ATOM      6  C   UNL     1       8.036  -0.666  27.134  0.00  0.00    +0.000 A 
ATOM      7  C   UNL     1       8.807  -1.042  26.030  0.00  0.00    +0.006 A 
ENDBRANCH   1   2
BRANCH   1   8
ATOM      8  C   UNL     1      10.053  -0.540  22.778  0.00  0.00    +0.025 C 
ATOM      9  C   UNL     1      10.755   0.559  23.602  0.00  0.00    +0.007 C 
ATOM     10  C   UNL     1       9.913   1.803  23.862  0.00  0.00    +0.000 C 
ATOM     11  C   UNL     1       9.324   2.397  22.587  0.00  0.00    +0.000 C 
ATOM     12  C   UNL     1       8.665   1.364  21.687  0.00  0.00    +0.000 C 
ATOM     13  C   UNL     1       9.526   0.121  21.477  0.00  0.00    +0.007 C 
ENDBRANCH   1   8
BRANCH   1  14
ATOM     14  O   UNL     1       9.819  -2.623  24.051  0.00  0.00    -0.383 OA
ATOM     15  H   UNL     1      10.035  -2.465  24.984  0.00  0.00    +0.211 HD
ENDBRANCH   1  14
BRANCH   1  16
ATOM     16  C   UNL     1       7.986  -2.245  22.642  0.00  0.00    +0.091 C 
BRANCH  16  17
ATOM     17  C   UNL     1       7.920  -3.752  22.985  0.00  0.00    +0.136 C 
BRANCH  17  18
ATOM     18  N   UNL     1       6.608  -4.220  23.693  0.00  0.00    +0.243 N 
BRANCH  18  20
ATOM     19  C   UNL     1       8.050  -5.175  25.629  0.00  0.00    +0.060 C 
ATOM     20  C   UNL     1       6.891  -4.276  25.226  0.00  0.00    +0.129 C 
ENDBRANCH  18  20
BRANCH  18  21
ATOM     21  C   UNL     1       5.441  -3.229  23.452  0.00  0.00    +0.129 C 
ATOM     22  C   UNL     1       4.558  -2.976  24.665  0.00  0.00    +0.060 C 
ENDBRANCH  18  21
BRANCH  18  23
ATOM     23  C   UNL     1       6.217  -5.611  23.135  0.00  0.00    +0.129 C 
ATOM     24  C   UNL     1       6.989  -6.027  21.892  0.00  0.00    +0.060 C 
ENDBRANCH  18  23
ENDBRANCH  17  18
ENDBRANCH  16  17
ENDBRANCH   1  16
TORSDOF 9
ENDMDL
MODEL 2
REMARK VINA RESULT:      -5.5      0.231      1.857
REMARK  Name = 
REMARK  12 active torsions:
REMARK  status: ('A' for Active; 'I' for Inactive)
REMARK    1  A    between atoms: C_1  and  C_2
REMARK    2  A    between atoms: C_2  and  N_3
REMARK    3  A    between atoms: N_3  and  C_4
REMARK    4  A    between atoms: N_3  and  C_6
REMARK    5  A    between atoms: N_3  and  C_8
REMARK    6  A    between atoms: C_4  and  C_5
REMARK    7  A    between atoms: C_6  and  C_7
REMARK    8  A    between atoms: C_8  and  C_9
REMARK    9  A    between atoms: C_9  and  C_10
REMARK   10  A    between atoms: C_10  and  O_11
REMARK   11  A    between atoms: C_10  and  C_12
REMARK   12  A    between atoms: C_10  and  C_18
REMARK                            x       y       z     vdW  Elec       q    Type
REMARK                         _______ _______ _______ _____ _____    ______ ____
ROOT
ATOM      1  C   UNL     1       8.991  -1.415  23.458  0.00  0.00    +0.099 C 
ENDROOT
BRANCH   1   2
ATOM      2  C   UNL     1       8.257  -0.832  24.684  0.00  0.00    -0.016 A 
ATOM      3  C   UNL     1       7.017  -0.178  24.546  0.00  0.00    +0.006 A 
ATOM      4  C   UNL     1       6.232   0.134  25.662  0.00  0.00    +0.000 A 
ATOM      5  C   UNL     1       6.679  -0.181  26.940  0.00  0.00    +0.000 A 
ATOM      6  C   UNL     1       7.929  -0.767  27.106  0.00  0.00    +0.000 A 
ATOM      7  C   UNL     1       8.715  -1.078  25.993  0.00  0.00    +0.006 A 
ENDBRANCH   1   2
BRANCH   1   8
ATOM      8  C   UNL     1       9.979  -0.384  22.774  0.00  0.00    +0.025 C 
ATOM      9  C   UNL     1      10.664   0.681  23.655  0.00  0.00    +0.007 C 
ATOM     10  C   UNL     1       9.803   1.896  23.980  0.00  0.00    +0.000 C 
ATOM     11  C   UNL     1       9.205   2.548  22.738  0.00  0.00    +0.000 C 
ATOM     12  C   UNL     1       8.561   1.554  21.784  0.00  0.00    +0.000 C 
ATOM     13  C   UNL     1       9.441   0.336  21.509  0.00  0.00    +0.007 C 
ENDBRANCH   1   8
BRANCH   1  14
ATOM     14  O   UNL     1       9.779  -2.528  23.947  0.00  0.00    -0.383 OA
ATOM     15  H   UNL     1       9.820  -2.516  24.916  0.00  0.00    +0.211 HD
ENDBRANCH   1  14
BRANCH   1  16
ATOM     16  C   UNL     1       7.946  -2.120  22.546  0.00  0.00    +0.091 C 
BRANCH  16  17
ATOM     17  C   UNL     1       7.943  -3.649  22.781  0.00  0.00    +0.136 C 
BRANCH  17  18
ATOM     18  N   UNL     1       6.697  -4.208  23.540  0.00  0.00    +0.243 N 
BRANCH  18  20
ATOM     19  C   UNL     1       6.434  -5.772  21.485  0.00  0.00    +0.060 C 
ATOM     20  C   UNL     1       6.419  -5.645  23.001  0.00  0.00    +0.129 C 
ENDBRANCH  18  20
BRANCH  18  21
ATOM     21  C   UNL     1       6.951  -4.304  25.066  0.00  0.00    +0.129 C 
ATOM     22  C   UNL     1       8.097  -5.221  25.465  0.00  0.00    +0.060 C 
ENDBRANCH  18  21
BRANCH  18  23
ATOM     23  C   UNL     1       5.499  -3.261  23.283  0.00  0.00    +0.129 C 
ATOM     24  C   UNL     1       4.596  -3.050  24.489  0.00  0.00    +0.060 C 
ENDBRANCH  18  23
ENDBRANCH  17  18
ENDBRANCH  16  17
ENDBRANCH   1  16
TORSDOF 9
ENDMDL
MODEL 3
REMARK VINA RESULT:      -5.5      0.508      1.822
REMARK  Name = 
REMARK  12 active torsions:
REMARK  status: ('A' for Active; 'I' for Inactive)
REMARK    1  A    between atoms: C_1  and  C_2
REMARK    2  A    between atoms: C_2  and  N_3
REMARK    3  A    between atoms: N_3  and  C_4
REMARK    4  A    between atoms: N_3  and  C_6
REMARK    5  A    between atoms: N_3  and  C_8
REMARK    6  A    between atoms: C_4  and  C_5
REMARK    7  A    between atoms: C_6  and  C_7
REMARK    8  A    between atoms: C_8  and  C_9
REMARK    9  A    between atoms: C_9  and  C_10
REMARK   10  A    between atoms: C_10  and  O_11
REMARK   11  A    between atoms: C_10  and  C_12
REMARK   12  A    between atoms: C_10  and  C_18
REMARK                            x       y       z     vdW  Elec       q    Type
REMARK                         _______ _______ _______ _____ _____    ______ ____
ROOT
ATOM      1  C   UNL     1       8.985  -1.830  23.717  0.00  0.00    +0.099 C 
ENDROOT
BRANCH   1   2
ATOM      2  C   UNL     1       8.277  -0.993  24.802  0.00  0.00    -0.016 A 
ATOM      3  C   UNL     1       7.131  -0.230  24.499  0.00  0.00    +0.006 A 
ATOM      4  C   UNL     1       6.343   0.331  25.511  0.00  0.00    +0.000 A 
ATOM      5  C   UNL     1       6.695   0.159  26.845  0.00  0.00    +0.000 A 
ATOM      6  C   UNL     1       7.857  -0.534  27.166  0.00  0.00    +0.000 A 
ATOM      7  C   UNL     1       8.646  -1.093  26.157  0.00  0.00    +0.006 A 
ENDBRANCH   1   2
BRANCH   1   8
ATOM      8  C   UNL     1      10.104  -1.025  22.938  0.00  0.00    +0.025 C 
ATOM      9  C   UNL     1      10.818   0.136  23.660  0.00  0.00    +0.007 C 
ATOM     10  C   UNL     1      10.047   1.451  23.682  0.00  0.00    +0.000 C 
ATOM     11  C   UNL     1       9.594   1.895  22.296  0.00  0.00    +0.000 C 
ATOM     12  C   UNL     1       8.931   0.787  21.493  0.00  0.00    +0.000 C 
ATOM     13  C   UNL     1       9.718  -0.522  21.522  0.00  0.00    +0.007 C 
ENDBRANCH   1   8
BRANCH   1  14
ATOM     14  O   UNL     1       9.629  -2.930  24.406  0.00  0.00    -0.383 OA
ATOM     15  H   UNL     1       9.025  -3.322  25.058  0.00  0.00    +0.211 HD
ENDBRANCH   1  14
BRANCH   1  16
ATOM     16  C   UNL     1       7.902  -2.557  22.867  0.00  0.00    +0.091 C 
BRANCH  16  17
ATOM     17  C   UNL     1       7.730  -4.025  23.322  0.00  0.00    +0.136 C 
BRANCH  17  18
ATOM     18  N   UNL     1       6.255  -4.487  23.551  0.00  0.00    +0.243 N 
BRANCH  18  20
ATOM     19  C   UNL     1       4.592  -2.931  24.798  0.00  0.00    +0.060 C 
ATOM     20  C   UNL     1       5.349  -3.217  23.510  0.00  0.00    +0.129 C 
ENDBRANCH  18  20
BRANCH  18  21
ATOM     21  C   UNL     1       5.779  -5.457  22.440  0.00  0.00    +0.129 C 
ATOM     22  C   UNL     1       6.865  -5.903  21.474  0.00  0.00    +0.060 C 
ENDBRANCH  18  21
BRANCH  18  23
ATOM     23  C   UNL     1       6.171  -5.202  24.922  0.00  0.00    +0.129 C 
ATOM     24  C   UNL     1       7.470  -5.195  25.714  0.00  0.00    +0.060 C 
ENDBRANCH  18  23
ENDBRANCH  17  18
ENDBRANCH  16  17
ENDBRANCH   1  16
TORSDOF 9
ENDMDL
MODEL 4
REMARK VINA RESULT:      -5.5      1.839      6.069
REMARK  Name = 
REMARK  12 active torsions:
REMARK  status: ('A' for Active; 'I' for Inactive)
REMARK    1  A    between atoms: C_1  and  C_2
REMARK    2  A    between atoms: C_2  and  N_3
REMARK    3  A    between atoms: N_3  and  C_4
REMARK    4  A    between atoms: N_3  and  C_6
REMARK    5  A    between atoms: N_3  and  C_8
REMARK    6  A    between atoms: C_4  and  C_5
REMARK    7  A    between atoms: C_6  and  C_7
REMARK    8  A    between atoms: C_8  and  C_9
REMARK    9  A    between atoms: C_9  and  C_10
REMARK   10  A    between atoms: C_10  and  O_11
REMARK   11  A    between atoms: C_10  and  C_12
REMARK   12  A    between atoms: C_10  and  C_18
REMARK                            x       y       z     vdW  Elec       q    Type
REMARK                         _______ _______ _______ _____ _____    ______ ____
ROOT
ATOM      1  C   UNL     1       8.817  -3.522  24.326  0.00  0.00    +0.099 C 
ENDROOT
BRANCH   1   2
ATOM      2  C   UNL     1       7.943  -4.090  23.188  0.00  0.00    -0.016 A 
ATOM      3  C   UNL     1       7.769  -5.479  23.029  0.00  0.00    +0.006 A 
ATOM      4  C   UNL     1       6.794  -5.996  22.167  0.00  0.00    +0.000 A 
ATOM      5  C   UNL     1       5.989  -5.135  21.430  0.00  0.00    +0.000 A 
ATOM      6  C   UNL     1       6.186  -3.762  21.520  0.00  0.00    +0.000 A 
ATOM      7  C   UNL     1       7.159  -3.245  22.380  0.00  0.00    +0.006 A 
ENDBRANCH   1   2
BRANCH   1   8
ATOM      8  C   UNL     1       8.017  -3.291  25.672  0.00  0.00    +0.025 C 
ATOM      9  C   UNL     1       8.252  -4.259  26.849  0.00  0.00    +0.007 C 
ATOM     10  C   UNL     1       7.493  -5.578  26.759  0.00  0.00    +0.000 C 
ATOM     11  C   UNL     1       5.998  -5.385  26.528  0.00  0.00    +0.000 C 
ATOM     12  C   UNL     1       5.680  -4.395  25.419  0.00  0.00    +0.000 C 
ATOM     13  C   UNL     1       6.484  -3.101  25.528  0.00  0.00    +0.007 C 
ENDBRANCH   1   8
BRANCH   1  14
ATOM     14  O   UNL     1       9.843  -4.512  24.584  0.00  0.00    -0.383 OA
ATOM     15  H   UNL     1      10.690  -4.080  24.780  0.00  0.00    +0.211 HD
ENDBRANCH   1  14
BRANCH   1  16
ATOM     16  C   UNL     1       9.641  -2.325  23.767  0.00  0.00    +0.091 C 
BRANCH  16  17
ATOM     17  C   UNL     1       9.303  -1.018  24.520  0.00  0.00    +0.136 C 
BRANCH  17  18
ATOM     18  N   UNL     1       9.479   0.296  23.692  0.00  0.00    +0.243 N 
BRANCH  18  20
ATOM     19  C   UNL     1       6.945   0.219  24.256  0.00  0.00    +0.060 C 
ATOM     20  C   UNL     1       8.082   0.983  23.593  0.00  0.00    +0.129 C 
ENDBRANCH  18  20
BRANCH  18  21
ATOM     21  C   UNL     1      10.455   1.282  24.382  0.00  0.00    +0.129 C 
ATOM     22  C   UNL     1      10.645   2.605  23.655  0.00  0.00    +0.060 C 
ENDBRANCH  18  21
BRANCH  18  23
ATOM     23  C   UNL     1      10.032  -0.074  22.293  0.00  0.00    +0.129 C 
ATOM     24  C   UNL     1       9.105   0.278  21.139  0.00  0.00    +0.060 C 
ENDBRANCH  18  23
ENDBRANCH  17  18
ENDBRANCH  16  17
ENDBRANCH   1  16
TORSDOF 9
ENDMDL
MODEL 5
REMARK VINA RESULT:      -5.4      1.782      6.065
REMARK  Name = 
REMARK  12 active torsions:
REMARK  status: ('A' for Active; 'I' for Inactive)
REMARK    1  A    between atoms: C_1  and  C_2
REMARK    2  A    between atoms: C_2  and  N_3
REMARK    3  A    between atoms: N_3  and  C_4
REMARK    4  A    between atoms: N_3  and  C_6
REMARK    5  A    between atoms: N_3  and  C_8
REMARK    6  A    between atoms: C_4  and  C_5
REMARK    7  A    between atoms: C_6  and  C_7
REMARK    8  A    between atoms: C_8  and  C_9
REMARK    9  A    between atoms: C_9  and  C_10
REMARK   10  A    between atoms: C_10  and  O_11
REMARK   11  A    between atoms: C_10  and  C_12
REMARK   12  A    between atoms: C_10  and  C_18
REMARK                            x       y       z     vdW  Elec       q    Type
REMARK                         _______ _______ _______ _____ _____    ______ ____
ROOT
ATOM      1  C   UNL     1       8.606  -3.418  24.219  0.00  0.00    +0.099 C 
ENDROOT
BRANCH   1   2
ATOM      2  C   UNL     1       7.808  -4.110  23.093  0.00  0.00    -0.016 A 
ATOM      3  C   UNL     1       7.785  -5.514  22.976  0.00  0.00    +0.006 A 
ATOM      4  C   UNL     1       6.880  -6.157  22.124  0.00  0.00    +0.000 A 
ATOM      5  C   UNL     1       5.994  -5.410  21.355  0.00  0.00    +0.000 A 
ATOM      6  C   UNL     1       6.043  -4.022  21.404  0.00  0.00    +0.000 A 
ATOM      7  C   UNL     1       6.947  -3.378  22.254  0.00  0.00    +0.006 A 
ENDBRANCH   1   2
BRANCH   1   8
ATOM      8  C   UNL     1       7.783  -3.263  25.562  0.00  0.00    +0.025 C 
ATOM      9  C   UNL     1       8.132  -4.177  26.754  0.00  0.00    +0.007 C 
ATOM     10  C   UNL     1       7.535  -5.579  26.685  0.00  0.00    +0.000 C 
ATOM     11  C   UNL     1       6.028  -5.570  26.453  0.00  0.00    +0.000 C 
ATOM     12  C   UNL     1       5.595  -4.642  25.330  0.00  0.00    +0.000 C 
ATOM     13  C   UNL     1       6.238  -3.260  25.417  0.00  0.00    +0.007 C 
ENDBRANCH   1   8
BRANCH   1  14
ATOM     14  O   UNL     1       9.746  -4.269  24.492  0.00  0.00    -0.383 OA
ATOM     15  H   UNL     1      10.149  -4.033  25.343  0.00  0.00    +0.211 HD
ENDBRANCH   1  14
BRANCH   1  16
ATOM     16  C   UNL     1       9.276  -2.139  23.636  0.00  0.00    +0.091 C 
BRANCH  16  17
ATOM     17  C   UNL     1       9.164  -0.954  24.623  0.00  0.00    +0.136 C 
BRANCH  17  18
ATOM     18  N   UNL     1       8.687   0.396  23.997  0.00  0.00    +0.243 N 
BRANCH  18  20
ATOM     19  C   UNL     1       9.050   0.993  21.496  0.00  0.00    +0.060 C 
ATOM     20  C   UNL     1       8.318   0.122  22.506  0.00  0.00    +0.129 C 
ENDBRANCH  18  20
BRANCH  18  21
ATOM     21  C   UNL     1       7.429   0.947  24.714  0.00  0.00    +0.129 C 
ATOM     22  C   UNL     1       6.135   0.220  24.382  0.00  0.00    +0.060 C 
ENDBRANCH  18  21
BRANCH  18  23
ATOM     23  C   UNL     1       9.836   1.428  24.119  0.00  0.00    +0.129 C 
ATOM     24  C   UNL     1      11.167   0.835  24.556  0.00  0.00    +0.060 C 
ENDBRANCH  18  23
ENDBRANCH  17  18
ENDBRANCH  16  17
ENDBRANCH   1  16
TORSDOF 9
ENDMDL
MODEL 6
REMARK VINA RESULT:      -5.3      1.969      5.822
REMARK  Name = 
REMARK  12 active torsions:
REMARK  status: ('A' for Active; 'I' for Inactive)
REMARK    1  A    between atoms: C_1  and  C_2
REMARK    2  A    between atoms: C_2  and  N_3
REMARK    3  A    between atoms: N_3  and  C_4
REMARK    4  A    between atoms: N_3  and  C_6
REMARK    5  A    between atoms: N_3  and  C_8
REMARK    6  A    between atoms: C_4  and  C_5
REMARK    7  A    between atoms: C_6  and  C_7
REMARK    8  A    between atoms: C_8  and  C_9
REMARK    9  A    between atoms: C_9  and  C_10
REMARK   10  A    between atoms: C_10  and  O_11
REMARK   11  A    between atoms: C_10  and  C_12
REMARK   12  A    between atoms: C_10  and  C_18
REMARK                            x       y       z     vdW  Elec       q    Type
REMARK                         _______ _______ _______ _____ _____    ______ ____
ROOT
ATOM      1  C   UNL     1       6.372  -2.523  23.563  0.00  0.00    +0.099 C 
ENDROOT
BRANCH   1   2
ATOM      2  C   UNL     1       7.217  -3.375  24.533  0.00  0.00    -0.016 A 
ATOM      3  C   UNL     1       8.483  -3.866  24.157  0.00  0.00    +0.006 A 
ATOM      4  C   UNL     1       9.356  -4.424  25.098  0.00  0.00    +0.000 A 
ATOM      5  C   UNL     1       8.974  -4.521  26.431  0.00  0.00    +0.000 A 
ATOM      6  C   UNL     1       7.704  -4.104  26.816  0.00  0.00    +0.000 A 
ATOM      7  C   UNL     1       6.831  -3.548  25.876  0.00  0.00    +0.006 A 
ENDBRANCH   1   2
BRANCH   1   8
ATOM      8  C   UNL     1       5.395  -3.386  22.665  0.00  0.00    +0.025 C 
ATOM      9  C   UNL     1       4.609  -4.538  23.323  0.00  0.00    +0.007 C 
ATOM     10  C   UNL     1       5.396  -5.831  23.506  0.00  0.00    +0.000 C 
ATOM     11  C   UNL     1       6.053  -6.312  22.218  0.00  0.00    +0.000 C 
ATOM     12  C   UNL     1       6.801  -5.216  21.474  0.00  0.00    +0.000 C 
ATOM     13  C   UNL     1       5.990  -3.929  21.339  0.00  0.00    +0.007 C 
ENDBRANCH   1   8
BRANCH   1  14
ATOM     14  O   UNL     1       5.563  -1.648  24.387  0.00  0.00    -0.383 OA
ATOM     15  H   UNL     1       5.619  -0.734  24.067  0.00  0.00    +0.211 HD
ENDBRANCH   1  14
BRANCH   1  16
ATOM     16  C   UNL     1       7.315  -1.520  22.836  0.00  0.00    +0.091 C 
BRANCH  16  17
ATOM     17  C   UNL     1       6.992  -0.062  23.238  0.00  0.00    +0.136 C 
BRANCH  17  18
ATOM     18  N   UNL     1       8.173   0.733  23.882  0.00  0.00    +0.243 N 
BRANCH  18  20
ATOM     19  C   UNL     1       9.855   1.050  21.930  0.00  0.00    +0.060 C 
ATOM     20  C   UNL     1       9.490   0.272  23.185  0.00  0.00    +0.129 C 
ENDBRANCH  18  20
BRANCH  18  21
ATOM     21  C   UNL     1       8.021   2.260  23.667  0.00  0.00    +0.129 C 
ATOM     22  C   UNL     1       8.618   3.122  24.769  0.00  0.00    +0.060 C 
ENDBRANCH  18  21
BRANCH  18  23
ATOM     23  C   UNL     1       8.197   0.433  25.402  0.00  0.00    +0.129 C 
ATOM     24  C   UNL     1       9.283  -0.543  25.831  0.00  0.00    +0.060 C 
ENDBRANCH  18  23
ENDBRANCH  17  18
ENDBRANCH  16  17
ENDBRANCH   1  16
TORSDOF 9
ENDMDL
MODEL 7
REMARK VINA RESULT:      -5.3      1.379      2.012
REMARK  Name = 
REMARK  12 active torsions:
REMARK  status: ('A' for Active; 'I' for Inactive)
REMARK    1  A    between atoms: C_1  and  C_2
REMARK    2  A    between atoms: C_2  and  N_3
REMARK    3  A    between atoms: N_3  and  C_4
REMARK    4  A    between atoms: N_3  and  C_6
REMARK    5  A    between atoms: N_3  and  C_8
REMARK    6  A    between atoms: C_4  and  C_5
REMARK    7  A    between atoms: C_6  and  C_7
REMARK    8  A    between atoms: C_8  and  C_9
REMARK    9  A    between atoms: C_9  and  C_10
REMARK   10  A    between atoms: C_10  and  O_11
REMARK   11  A    between atoms: C_10  and  C_12
REMARK   12  A    between atoms: C_10  and  C_18
REMARK                            x       y       z     vdW  Elec       q    Type
REMARK                         _______ _______ _______ _____ _____    ______ ____
ROOT
ATOM      1  C   UNL     1       8.560  -1.218  24.381  0.00  0.00    +0.099 C 
ENDROOT
BRANCH   1   2
ATOM      2  C   UNL     1       7.683   0.010  24.701  0.00  0.00    -0.016 A 
ATOM      3  C   UNL     1       7.827   0.710  25.916  0.00  0.00    +0.006 A 
ATOM      4  C   UNL     1       7.220   1.956  26.113  0.00  0.00    +0.000 A 
ATOM      5  C   UNL     1       6.440   2.518  25.109  0.00  0.00    +0.000 A 
ATOM      6  C   UNL     1       6.229   1.818  23.927  0.00  0.00    +0.000 A 
ATOM      7  C   UNL     1       6.833   0.573  23.729  0.00  0.00    +0.006 A 
ENDBRANCH   1   2
BRANCH   1   8
ATOM      8  C   UNL     1       9.936  -0.841  23.696  0.00  0.00    +0.025 C 
ATOM      9  C   UNL     1      10.669   0.433  24.162  0.00  0.00    +0.007 C 
ATOM     10  C   UNL     1      10.145   1.732  23.560  0.00  0.00    +0.000 C 
ATOM     11  C   UNL     1      10.074   1.693  22.038  0.00  0.00    +0.000 C 
ATOM     12  C   UNL     1       9.417   0.435  21.494  0.00  0.00    +0.000 C 
ATOM     13  C   UNL     1       9.947  -0.842  22.145  0.00  0.00    +0.007 C 
ENDBRANCH   1   8
BRANCH   1  14
ATOM     14  O   UNL     1       8.853  -1.851  25.651  0.00  0.00    -0.383 OA
ATOM     15  H   UNL     1       8.246  -2.592  25.809  0.00  0.00    +0.211 HD
ENDBRANCH   1  14
BRANCH   1  16
ATOM     16  C   UNL     1       7.675  -2.286  23.673  0.00  0.00    +0.091 C 
BRANCH  16  17
ATOM     17  C   UNL     1       6.899  -3.138  24.704  0.00  0.00    +0.136 C 
BRANCH  17  18
ATOM     18  N   UNL     1       7.019  -4.686  24.520  0.00  0.00    +0.243 N 
BRANCH  18  20
ATOM     19  C   UNL     1       9.395  -5.325  25.350  0.00  0.00    +0.060 C 
ATOM     20  C   UNL     1       7.912  -5.232  25.677  0.00  0.00    +0.129 C 
ENDBRANCH  18  20
BRANCH  18  21
ATOM     21  C   UNL     1       5.637  -5.382  24.605  0.00  0.00    +0.129 C 
ATOM     22  C   UNL     1       5.402  -6.180  25.878  0.00  0.00    +0.060 C 
ENDBRANCH  18  21
BRANCH  18  23
ATOM     23  C   UNL     1       7.647  -4.969  23.133  0.00  0.00    +0.129 C 
ATOM     24  C   UNL     1       6.853  -5.940  22.272  0.00  0.00    +0.060 C 
ENDBRANCH  18  23
ENDBRANCH  17  18
ENDBRANCH  16  17
ENDBRANCH   1  16
TORSDOF 9
ENDMDL
MODEL 8
REMARK VINA RESULT:      -5.3      1.883      5.850
REMARK  Name = 
REMARK  12 active torsions:
REMARK  status: ('A' for Active; 'I' for Inactive)
REMARK    1  A    between atoms: C_1  and  C_2
REMARK    2  A    between atoms: C_2  and  N_3
REMARK    3  A    between atoms: N_3  and  C_4
REMARK    4  A    between atoms: N_3  and  C_6
REMARK    5  A    between atoms: N_3  and  C_8
REMARK    6  A    between atoms: C_4  and  C_5
REMARK    7  A    between atoms: C_6  and  C_7
REMARK    8  A    between atoms: C_8  and  C_9
REMARK    9  A    between atoms: C_9  and  C_10
REMARK   10  A    between atoms: C_10  and  O_11
REMARK   11  A    between atoms: C_10  and  C_12
REMARK   12  A    between atoms: C_10  and  C_18
REMARK                            x       y       z     vdW  Elec       q    Type
REMARK                         _______ _______ _______ _____ _____    ______ ____
ROOT
ATOM      1  C   UNL     1       6.495  -2.661  23.588  0.00  0.00    +0.099 C 
ENDROOT
BRANCH   1   2
ATOM      2  C   UNL     1       7.065  -3.628  24.647  0.00  0.00    -0.016 A 
ATOM      3  C   UNL     1       8.252  -4.349  24.410  0.00  0.00    +0.006 A 
ATOM      4  C   UNL     1       8.905  -5.032  25.443  0.00  0.00    +0.000 A 
ATOM      5  C   UNL     1       8.376  -5.025  26.728  0.00  0.00    +0.000 A 
ATOM      6  C   UNL     1       7.171  -4.375  26.973  0.00  0.00    +0.000 A 
ATOM      7  C   UNL     1       6.516  -3.695  25.942  0.00  0.00    +0.006 A 
ENDBRANCH   1   2
BRANCH   1   8
ATOM      8  C   UNL     1       5.477  -3.356  22.593  0.00  0.00    +0.025 C 
ATOM      9  C   UNL     1       4.502  -4.412  23.151  0.00  0.00    +0.007 C 
ATOM     10  C   UNL     1       5.097  -5.804  23.333  0.00  0.00    +0.000 C 
ATOM     11  C   UNL     1       5.773  -6.328  22.071  0.00  0.00    +0.000 C 
ATOM     12  C   UNL     1       6.709  -5.320  21.423  0.00  0.00    +0.000 C 
ATOM     13  C   UNL     1       6.088  -3.931  21.288  0.00  0.00    +0.007 C 
ENDBRANCH   1   8
BRANCH   1  14
ATOM     14  O   UNL     1       5.776  -1.636  24.316  0.00  0.00    -0.383 OA
ATOM     15  H   UNL     1       5.494  -0.928  23.715  0.00  0.00    +0.211 HD
ENDBRANCH   1  14
BRANCH   1  16
ATOM     16  C   UNL     1       7.675  -1.861  22.962  0.00  0.00    +0.091 C 
BRANCH  16  17
ATOM     17  C   UNL     1       7.542  -0.350  23.259  0.00  0.00    +0.136 C 
BRANCH  17  18
ATOM     18  N   UNL     1       8.758   0.298  23.996  0.00  0.00    +0.243 N 
BRANCH  18  20
ATOM     19  C   UNL     1       8.820  -0.783  26.356  0.00  0.00    +0.060 C 
ATOM     20  C   UNL     1       9.372  -0.783  24.938  0.00  0.00    +0.129 C 
ENDBRANCH  18  20
BRANCH  18  21
ATOM     21  C   UNL     1       9.856   0.752  23.001  0.00  0.00    +0.129 C 
ATOM     22  C   UNL     1       9.407   0.834  21.550  0.00  0.00    +0.060 C 
ENDBRANCH  18  21
BRANCH  18  23
ATOM     23  C   UNL     1       8.253   1.527  24.792  0.00  0.00    +0.129 C 
ATOM     24  C   UNL     1       9.047   2.802  24.548  0.00  0.00    +0.060 C 
ENDBRANCH  18  23
ENDBRANCH  17  18
ENDBRANCH  16  17
ENDBRANCH   1  16
TORSDOF 9
ENDMDL
MODEL 9
REMARK VINA RESULT:      -5.3      1.903      5.955
REMARK  Name = 
REMARK  12 active torsions:
REMARK  status: ('A' for Active; 'I' for Inactive)
REMARK    1  A    between atoms: C_1  and  C_2
REMARK    2  A    between atoms: C_2  and  N_3
REMARK    3  A    between atoms: N_3  and  C_4
REMARK    4  A    between atoms: N_3  and  C_6
REMARK    5  A    between atoms: N_3  and  C_8
REMARK    6  A    between atoms: C_4  and  C_5
REMARK    7  A    between atoms: C_6  and  C_7
REMARK    8  A    between atoms: C_8  and  C_9
REMARK    9  A    between atoms: C_9  and  C_10
REMARK   10  A    between atoms: C_10  and  O_11
REMARK   11  A    between atoms: C_10  and  C_12
REMARK   12  A    between atoms: C_10  and  C_18
REMARK                            x       y       z     vdW  Elec       q    Type
REMARK                         _______ _______ _______ _____ _____    ______ ____
ROOT
ATOM      1  C   UNL     1       7.997  -2.354  23.447  0.00  0.00    +0.099 C 
ENDROOT
BRANCH   1   2
ATOM      2  C   UNL     1       6.982  -3.439  23.033  0.00  0.00    -0.016 A 
ATOM      3  C   UNL     1       7.361  -4.507  22.194  0.00  0.00    +0.006 A 
ATOM      4  C   UNL     1       6.529  -5.618  22.012  0.00  0.00    +0.000 A 
ATOM      5  C   UNL     1       5.293  -5.676  22.647  0.00  0.00    +0.000 A 
ATOM      6  C   UNL     1       4.870  -4.605  23.426  0.00  0.00    +0.000 A 
ATOM      7  C   UNL     1       5.698  -3.494  23.608  0.00  0.00    +0.006 A 
ENDBRANCH   1   2
BRANCH   1   8
ATOM      8  C   UNL     1       8.858  -2.755  24.714  0.00  0.00    +0.025 C 
ATOM      9  C   UNL     1       9.326  -4.218  24.857  0.00  0.00    +0.007 C 
ATOM     10  C   UNL     1       8.278  -5.178  25.407  0.00  0.00    +0.000 C 
ATOM     11  C   UNL     1       7.660  -4.694  26.714  0.00  0.00    +0.000 C 
ATOM     12  C   UNL     1       7.226  -3.237  26.675  0.00  0.00    +0.000 C 
ATOM     13  C   UNL     1       8.291  -2.313  26.089  0.00  0.00    +0.007 C 
ENDBRANCH   1   8
BRANCH   1  14
ATOM     14  O   UNL     1       8.903  -2.194  22.327  0.00  0.00    -0.383 OA
ATOM     15  H   UNL     1       9.063  -3.048  21.896  0.00  0.00    +0.211 HD
ENDBRANCH   1  14
BRANCH   1  16
ATOM     16  C   UNL     1       7.266  -0.980  23.483  0.00  0.00    +0.091 C 
BRANCH  16  17
ATOM     17  C   UNL     1       8.026   0.077  22.649  0.00  0.00    +0.136 C 
BRANCH  17  18
ATOM     18  N   UNL     1       8.754   1.185  23.476  0.00  0.00    +0.243 N 
BRANCH  18  20
ATOM     19  C   UNL     1       7.251   2.548  21.856  0.00  0.00    +0.060 C 
ATOM     20  C   UNL     1       8.437   2.560  22.810  0.00  0.00    +0.129 C 
ENDBRANCH  18  20
BRANCH  18  21
ATOM     21  C   UNL     1       8.251   1.231  24.942  0.00  0.00    +0.129 C 
ATOM     22  C   UNL     1       7.891   2.618  25.450  0.00  0.00    +0.060 C 
ENDBRANCH  18  21
BRANCH  18  23
ATOM     23  C   UNL     1      10.274   0.886  23.469  0.00  0.00    +0.129 C 
ATOM     24  C   UNL     1      10.827   0.419  24.807  0.00  0.00    +0.060 C 
ENDBRANCH  18  23
ENDBRANCH  17  18
ENDBRANCH  16  17
ENDBRANCH   1  16
TORSDOF 9
ENDMDL
