MODEL 1
REMARK VINA RESULT:      -6.7      0.000      0.000
REMARK  Name = 
REMARK  13 active torsions:
REMARK  status: ('A' for Active; 'I' for Inactive)
REMARK    1  A    between atoms: C_1  and  C_2
REMARK    2  A    between atoms: C_3  and  C_4
REMARK    3  A    between atoms: C_4  and  C_5
REMARK    4  A    between atoms: C_5  and  O_6
REMARK    5  A    between atoms: O_6  and  P_7
REMARK    6  A    between atoms: P_7  and  O_8
REMARK    7  A    between atoms: P_7  and  O_10
REMARK    8  A    between atoms: O_10  and  P_11
REMARK    9  A    between atoms: P_11  and  O_12
REMARK   10  A    between atoms: N_17  and  C_18
REMARK   11  A    between atoms: C_18  and  C_19
REMARK   12  A    between atoms: C_20  and  C_21
REMARK   13  A    between atoms: C_23  and  C_24
REMARK                            x       y       z     vdW  Elec       q    Type
REMARK                         _______ _______ _______ _____ _____    ______ ____
ROOT
ATOM      1  C   UNL     1       9.925  -1.278  21.883  0.00  0.00    +0.122 C 
ATOM      2  C   UNL     1       8.638  -1.110  22.628  0.00  0.00    +0.191 A 
ATOM      3  N   UNL     1       7.838   0.021  22.460  0.00  0.00    -0.190 N 
ATOM      4  C   UNL     1       6.696  -0.029  23.124  0.00  0.00    +0.357 A 
ATOM      5  S   UNL     1       6.619  -1.396  24.144  0.00  0.00    -0.027 S 
ATOM      6  C   UNL     1       8.140  -1.970  23.598  0.00  0.00    +0.064 A 
ENDROOT
BRANCH   3   7
ATOM      7  C   UNL     1       8.305   1.300  21.906  0.00  0.00    +0.399 C 
BRANCH   7   8
ATOM      8  C   UNL     1       8.377   2.497  22.815  0.00  0.00    +0.078 A 
ATOM      9  C   UNL     1       7.545   3.587  22.591  0.00  0.00    +0.129 A 
ATOM     10  N   UNL     1       6.387   3.482  21.840  0.00  0.00    -0.343 N 
ATOM     11  H   UNL     1       5.670   2.828  22.180  0.00  0.00    +0.144 HD
ATOM     12  H   UNL     1       5.951   4.403  21.789  0.00  0.00    +0.144 HD
ATOM     13  N   UNL     1       7.885   4.842  22.935  0.00  0.00    -0.218 NA
ATOM     14  C   UNL     1       9.040   5.004  23.594  0.00  0.00    +0.128 A 
ATOM     15  C   UNL     1       9.655   6.375  23.688  0.00  0.00    +0.088 C 
ATOM     16  N   UNL     1       9.787   3.998  24.052  0.00  0.00    -0.237 NA
ATOM     17  C   UNL     1       9.471   2.754  23.645  0.00  0.00    +0.053 A 
ATOM     18  C   UNL     1      10.502   1.759  24.098  0.00  0.00    +0.066 C 
ENDBRANCH   7   8
ENDBRANCH   3   7
BRANCH   6  19
ATOM     19  C   UNL     1       8.806  -3.201  24.177  0.00  0.00    +0.077 C 
BRANCH  19  20
ATOM     20  C   UNL     1       7.992  -4.497  24.142  0.00  0.00    +0.178 C 
BRANCH  20  21
ATOM     21  O   UNL     1       7.728  -4.909  22.814  0.00  0.00    -0.286 OA
BRANCH  21  22
ATOM     22  P   UNL     1       6.196  -5.180  22.397  0.00  0.00    +0.480 P 
ATOM     23  O   UNL     1       5.703  -4.417  21.210  0.00  0.00    -0.227 OA
BRANCH  22  24
ATOM     24  O   UNL     1       6.245  -6.759  22.055  0.00  0.00    -0.302 OA
ATOM     25  H   UNL     1       6.789  -7.204  22.733  0.00  0.00    +0.222 HD
ENDBRANCH  22  24
BRANCH  22  26
ATOM     26  O   UNL     1       5.385  -5.170  23.751  0.00  0.00    -0.229 OA
BRANCH  26  27
ATOM     27  P   UNL     1       4.110  -6.084  24.023  0.00  0.00    +0.220 P 
ATOM     28  O   UNL     1       4.474  -7.489  24.415  0.00  0.00    -0.517 OA
ATOM     29  O   UNL     1       3.073  -5.271  24.742  0.00  0.00    -0.437 OA
BRANCH  27  30
ATOM     30  O   UNL     1       3.530  -6.132  22.523  0.00  0.00    -0.343 OA
ATOM     31  H   UNL     1       2.810  -5.471  22.536  0.00  0.00    +0.218 HD
ENDBRANCH  27  30
ENDBRANCH  26  27
ENDBRANCH  22  26
ENDBRANCH  21  22
ENDBRANCH  20  21
ENDBRANCH  19  20
ENDBRANCH   6  19
TORSDOF 10
ENDMDL
MODEL 2
REMARK VINA RESULT:      -6.7      1.943      3.678
REMARK  Name = 
REMARK  13 active torsions:
REMARK  status: ('A' for Active; 'I' for Inactive)
REMARK    1  A    between atoms: C_1  and  C_2
REMARK    2  A    between atoms: C_3  and  C_4
REMARK    3  A    between atoms: C_4  and  C_5
REMARK    4  A    between atoms: C_5  and  O_6
REMARK    5  A    between atoms: O_6  and  P_7
REMARK    6  A    between atoms: P_7  and  O_8
REMARK    7  A    between atoms: P_7  and  O_10
REMARK    8  A    between atoms: O_10  and  P_11
REMARK    9  A    between atoms: P_11  and  O_12
REMARK   10  A    between atoms: N_17  and  C_18
REMARK   11  A    between atoms: C_18  and  C_19
REMARK   12  A    between atoms: C_20  and  C_21
REMARK   13  A    between atoms: C_23  and  C_24
REMARK                            x       y       z     vdW  Elec       q    Type
REMARK                         _______ _______ _______ _____ _____    ______ ____
ROOT
ATOM      1  C   UNL     1       5.817  -1.923  25.488  0.00  0.00    +0.122 C 
ATOM      2  C   UNL     1       7.123  -2.589  25.190  0.00  0.00    +0.191 A 
ATOM      3  N   UNL     1       7.905  -2.209  24.097  0.00  0.00    -0.190 N 
ATOM      4  C   UNL     1       9.067  -2.836  24.028  0.00  0.00    +0.357 A 
ATOM      5  S   UNL     1       9.191  -4.067  25.205  0.00  0.00    -0.027 S 
ATOM      6  C   UNL     1       7.660  -3.673  25.872  0.00  0.00    +0.064 A 
ENDROOT
BRANCH   3   7
ATOM      7  C   UNL     1       7.408  -1.464  22.932  0.00  0.00    +0.399 C 
BRANCH   7   8
ATOM      8  C   UNL     1       7.993  -0.109  22.638  0.00  0.00    +0.078 A 
ATOM      9  C   UNL     1       9.169  -0.009  21.905  0.00  0.00    +0.129 A 
ATOM     10  N   UNL     1       9.616  -1.037  21.093  0.00  0.00    -0.343 N 
ATOM     11  H   UNL     1       8.997  -1.324  20.324  0.00  0.00    +0.144 HD
ATOM     12  H   UNL     1      10.502  -0.755  20.673  0.00  0.00    +0.144 HD
ATOM     13  N   UNL     1      10.035   1.009  22.060  0.00  0.00    -0.218 NA
ATOM     14  C   UNL     1       9.683   1.991  22.900  0.00  0.00    +0.128 A 
ATOM     15  C   UNL     1      10.727   2.954  23.396  0.00  0.00    +0.088 C 
ATOM     16  N   UNL     1       8.479   2.093  23.468  0.00  0.00    -0.237 NA
ATOM     17  C   UNL     1       7.649   1.038  23.357  0.00  0.00    +0.053 A 
ATOM     18  C   UNL     1       6.415   1.233  24.192  0.00  0.00    +0.066 C 
ENDBRANCH   7   8
ENDBRANCH   3   7
BRANCH   6  19
ATOM     19  C   UNL     1       7.027  -4.470  26.993  0.00  0.00    +0.077 C 
BRANCH  19  20
ATOM     20  C   UNL     1       6.266  -5.735  26.585  0.00  0.00    +0.178 C 
BRANCH  20  21
ATOM     21  O   UNL     1       5.067  -5.422  25.900  0.00  0.00    -0.286 OA
BRANCH  21  22
ATOM     22  P   UNL     1       4.853  -6.044  24.431  0.00  0.00    +0.480 P 
ATOM     23  O   UNL     1       4.398  -7.468  24.390  0.00  0.00    -0.227 OA
BRANCH  22  24
ATOM     24  O   UNL     1       3.693  -5.079  23.853  0.00  0.00    -0.302 OA
ATOM     25  H   UNL     1       3.378  -4.508  24.581  0.00  0.00    +0.222 HD
ENDBRANCH  22  24
BRANCH  22  26
ATOM     26  O   UNL     1       6.106  -5.579  23.591  0.00  0.00    -0.229 OA
BRANCH  26  27
ATOM     27  P   UNL     1       6.039  -5.191  22.048  0.00  0.00    +0.220 P 
ATOM     28  O   UNL     1       5.327  -3.890  21.805  0.00  0.00    -0.517 OA
ATOM     29  O   UNL     1       7.345  -5.549  21.401  0.00  0.00    -0.437 OA
BRANCH  27  30
ATOM     30  O   UNL     1       5.073  -6.376  21.548  0.00  0.00    -0.343 OA
ATOM     31  H   UNL     1       5.639  -6.892  20.942  0.00  0.00    +0.218 HD
ENDBRANCH  27  30
ENDBRANCH  26  27
ENDBRANCH  22  26
ENDBRANCH  21  22
ENDBRANCH  20  21
ENDBRANCH  19  20
ENDBRANCH   6  19
TORSDOF 10
ENDMDL
MODEL 3
REMARK VINA RESULT:      -6.5      6.158      8.546
REMARK  Name = 
REMARK  13 active torsions:
REMARK  status: ('A' for Active; 'I' for Inactive)
REMARK    1  A    between atoms: C_1  and  C_2
REMARK    2  A    between atoms: C_3  and  C_4
REMARK    3  A    between atoms: C_4  and  C_5
REMARK    4  A    between atoms: C_5  and  O_6
REMARK    5  A    between atoms: O_6  and  P_7
REMARK    6  A    between atoms: P_7  and  O_8
REMARK    7  A    between atoms: P_7  and  O_10
REMARK    8  A    between atoms: O_10  and  P_11
REMARK    9  A    between atoms: P_11  and  O_12
REMARK   10  A    between atoms: N_17  and  C_18
REMARK   11  A    between atoms: C_18  and  C_19
REMARK   12  A    between atoms: C_20  and  C_21
REMARK   13  A    between atoms: C_23  and  C_24
REMARK                            x       y       z     vdW  Elec       q    Type
REMARK                         _______ _______ _______ _____ _____    ______ ____
ROOT
ATOM      1  C   UNL     1       8.791  -3.475  25.795  0.00  0.00    +0.122 C 
ATOM      2  C   UNL     1       8.464  -2.948  24.433  0.00  0.00    +0.191 A 
ATOM      3  N   UNL     1       7.693  -3.683  23.531  0.00  0.00    -0.190 N 
ATOM      4  C   UNL     1       7.423  -3.036  22.409  0.00  0.00    +0.357 A 
ATOM      5  S   UNL     1       8.260  -1.551  22.320  0.00  0.00    -0.027 S 
ATOM      6  C   UNL     1       8.932  -1.761  23.884  0.00  0.00    +0.064 A 
ENDROOT
BRANCH   3   7
ATOM      7  C   UNL     1       7.469  -5.133  23.610  0.00  0.00    +0.399 C 
BRANCH   7   8
ATOM      8  C   UNL     1       6.058  -5.639  23.751  0.00  0.00    +0.078 A 
ATOM      9  C   UNL     1       5.304  -5.909  22.617  0.00  0.00    +0.129 A 
ATOM     10  N   UNL     1       5.891  -6.126  21.381  0.00  0.00    -0.343 N 
ATOM     11  H   UNL     1       6.540  -6.919  21.308  0.00  0.00    +0.144 HD
ATOM     12  H   UNL     1       5.151  -6.281  20.696  0.00  0.00    +0.144 HD
ATOM     13  N   UNL     1       3.962  -5.812  22.597  0.00  0.00    -0.218 NA
ATOM     14  C   UNL     1       3.353  -5.523  23.754  0.00  0.00    +0.128 A 
ATOM     15  C   UNL     1       1.926  -5.046  23.743  0.00  0.00    +0.088 C 
ATOM     16  N   UNL     1       3.974  -5.474  24.935  0.00  0.00    -0.237 NA
ATOM     17  C   UNL     1       5.321  -5.508  24.930  0.00  0.00    +0.053 A 
ATOM     18  C   UNL     1       5.871  -5.267  26.307  0.00  0.00    +0.066 C 
ENDBRANCH   7   8
ENDBRANCH   3   7
BRANCH   6  19
ATOM     19  C   UNL     1       9.926  -0.790  24.485  0.00  0.00    +0.077 C 
BRANCH  19  20
ATOM     20  C   UNL     1      10.659   0.130  23.505  0.00  0.00    +0.178 C 
BRANCH  20  21
ATOM     21  O   UNL     1      10.891   1.409  24.066  0.00  0.00    -0.286 OA
BRANCH  21  22
ATOM     22  P   UNL     1      10.226   2.684  23.342  0.00  0.00    +0.480 P 
ATOM     23  O   UNL     1      10.960   3.976  23.504  0.00  0.00    -0.227 OA
BRANCH  22  24
ATOM     24  O   UNL     1      10.269   2.217  21.795  0.00  0.00    -0.302 OA
ATOM     25  H   UNL     1       9.408   2.428  21.386  0.00  0.00    +0.222 HD
ENDBRANCH  22  24
BRANCH  22  26
ATOM     26  O   UNL     1       8.683   2.592  23.663  0.00  0.00    -0.229 OA
BRANCH  26  27
ATOM     27  P   UNL     1       7.541   2.916  22.602  0.00  0.00    +0.220 P 
ATOM     28  O   UNL     1       7.562   1.985  21.421  0.00  0.00    -0.517 OA
ATOM     29  O   UNL     1       6.286   3.285  23.337  0.00  0.00    -0.437 OA
BRANCH  27  30
ATOM     30  O   UNL     1       8.081   4.346  22.103  0.00  0.00    -0.343 OA
ATOM     31  H   UNL     1       8.905   4.125  21.626  0.00  0.00    +0.218 HD
ENDBRANCH  27  30
ENDBRANCH  26  27
ENDBRANCH  22  26
ENDBRANCH  21  22
ENDBRANCH  20  21
ENDBRANCH  19  20
ENDBRANCH   6  19
TORSDOF 10
ENDMDL
MODEL 4
REMARK VINA RESULT:      -6.4      5.145      7.786
REMARK  Name = 
REMARK  13 active torsions:
REMARK  status: ('A' for Active; 'I' for Inactive)
REMARK    1  A    between atoms: C_1  and  C_2
REMARK    2  A    between atoms: C_3  and  C_4
REMARK    3  A    between atoms: C_4  and  C_5
REMARK    4  A    between atoms: C_5  and  O_6
REMARK    5  A    between atoms: O_6  and  P_7
REMARK    6  A    between atoms: P_7  and  O_8
REMARK    7  A    between atoms: P_7  and  O_10
REMARK    8  A    between atoms: O_10  and  P_11
REMARK    9  A    between atoms: P_11  and  O_12
REMARK   10  A    between atoms: N_17  and  C_18
REMARK   11  A    between atoms: C_18  and  C_19
REMARK   12  A    between atoms: C_20  and  C_21
REMARK   13  A    between atoms: C_23  and  C_24
REMARK                            x       y       z     vdW  Elec       q    Type
REMARK                         _______ _______ _______ _____ _____    ______ ____
ROOT
ATOM      1  C   UNL     1       8.464  -1.481  25.909  0.00  0.00    +0.122 C 
ATOM      2  C   UNL     1       8.787  -1.481  24.448  0.00  0.00    +0.191 A 
ATOM      3  N   UNL     1       8.192  -2.386  23.568  0.00  0.00    -0.190 N 
ATOM      4  C   UNL     1       8.520  -2.193  22.302  0.00  0.00    +0.357 A 
ATOM      5  S   UNL     1       9.728  -0.998  22.137  0.00  0.00    -0.027 S 
ATOM      6  C   UNL     1       9.736  -0.682  23.823  0.00  0.00    +0.064 A 
ENDROOT
BRANCH   3   7
ATOM      7  C   UNL     1       7.545  -3.643  23.972  0.00  0.00    +0.399 C 
BRANCH   7   8
ATOM      8  C   UNL     1       6.196  -3.978  23.394  0.00  0.00    +0.078 A 
ATOM      9  C   UNL     1       5.044  -3.529  24.026  0.00  0.00    +0.129 A 
ATOM     10  N   UNL     1       5.061  -2.468  24.915  0.00  0.00    -0.343 N 
ATOM     11  H   UNL     1       5.381  -1.562  24.551  0.00  0.00    +0.144 HD
ATOM     12  H   UNL     1       4.114  -2.329  25.271  0.00  0.00    +0.144 HD
ATOM     13  N   UNL     1       3.873  -4.189  23.955  0.00  0.00    -0.218 NA
ATOM     14  C   UNL     1       3.829  -5.272  23.169  0.00  0.00    +0.128 A 
ATOM     15  C   UNL     1       2.696  -6.252  23.317  0.00  0.00    +0.088 C 
ATOM     16  N   UNL     1       4.816  -5.643  22.350  0.00  0.00    -0.237 NA
ATOM     17  C   UNL     1       6.000  -5.015  22.479  0.00  0.00    +0.053 A 
ATOM     18  C   UNL     1       7.050  -5.659  21.619  0.00  0.00    +0.066 C 
ENDBRANCH   7   8
ENDBRANCH   3   7
BRANCH   6  19
ATOM     19  C   UNL     1      10.701   0.290  24.469  0.00  0.00    +0.077 C 
BRANCH  19  20
ATOM     20  C   UNL     1      10.714   1.714  23.908  0.00  0.00    +0.178 C 
BRANCH  20  21
ATOM     21  O   UNL     1       9.562   2.437  24.300  0.00  0.00    -0.286 OA
BRANCH  21  22
ATOM     22  P   UNL     1       8.524   2.885  23.152  0.00  0.00    +0.480 P 
ATOM     23  O   UNL     1       8.125   4.325  23.166  0.00  0.00    -0.227 OA
BRANCH  22  24
ATOM     24  O   UNL     1       9.381   2.563  21.820  0.00  0.00    -0.302 OA
ATOM     25  H   UNL     1       9.757   3.401  21.487  0.00  0.00    +0.222 HD
ENDBRANCH  22  24
BRANCH  22  26
ATOM     26  O   UNL     1       7.428   1.749  23.111  0.00  0.00    -0.229 OA
BRANCH  26  27
ATOM     27  P   UNL     1       6.243   1.629  24.168  0.00  0.00    +0.220 P 
ATOM     28  O   UNL     1       6.730   1.622  25.591  0.00  0.00    -0.517 OA
ATOM     29  O   UNL     1       5.087   2.462  23.697  0.00  0.00    -0.437 OA
BRANCH  27  30
ATOM     30  O   UNL     1       5.759   0.137  23.812  0.00  0.00    -0.343 OA
ATOM     31  H   UNL     1       6.157  -0.407  24.521  0.00  0.00    +0.218 HD
ENDBRANCH  27  30
ENDBRANCH  26  27
ENDBRANCH  22  26
ENDBRANCH  21  22
ENDBRANCH  20  21
ENDBRANCH  19  20
ENDBRANCH   6  19
TORSDOF 10
ENDMDL
MODEL 5
REMARK VINA RESULT:      -6.3      2.717      3.885
REMARK  Name = 
REMARK  13 active torsions:
REMARK  status: ('A' for Active; 'I' for Inactive)
REMARK    1  A    between atoms: C_1  and  C_2
REMARK    2  A    between atoms: C_3  and  C_4
REMARK    3  A    between atoms: C_4  and  C_5
REMARK    4  A    between atoms: C_5  and  O_6
REMARK    5  A    between atoms: O_6  and  P_7
REMARK    6  A    between atoms: P_7  and  O_8
REMARK    7  A    between atoms: P_7  and  O_10
REMARK    8  A    between atoms: O_10  and  P_11
REMARK    9  A    between atoms: P_11  and  O_12
REMARK   10  A    between atoms: N_17  and  C_18
REMARK   11  A    between atoms: C_18  and  C_19
REMARK   12  A    between atoms: C_20  and  C_21
REMARK   13  A    between atoms: C_23  and  C_24
REMARK                            x       y       z     vdW  Elec       q    Type
REMARK                         _______ _______ _______ _____ _____    ______ ____
ROOT
ATOM      1  C   UNL     1       6.201  -3.103  22.076  0.00  0.00    +0.122 C 
ATOM      2  C   UNL     1       5.895  -2.382  23.351  0.00  0.00    +0.191 A 
ATOM      3  N   UNL     1       6.503  -1.166  23.667  0.00  0.00    -0.190 N 
ATOM      4  C   UNL     1       6.056  -0.621  24.785  0.00  0.00    +0.357 A 
ATOM      5  S   UNL     1       4.989  -1.664  25.614  0.00  0.00    -0.027 S 
ATOM      6  C   UNL     1       5.076  -2.845  24.373  0.00  0.00    +0.064 A 
ENDROOT
BRANCH   3   7
ATOM      7  C   UNL     1       7.744  -0.669  23.057  0.00  0.00    +0.399 C 
BRANCH   7   8
ATOM      8  C   UNL     1       8.295   0.654  23.518  0.00  0.00    +0.078 A 
ATOM      9  C   UNL     1       8.074   1.796  22.760  0.00  0.00    +0.129 A 
ATOM     10  N   UNL     1       7.051   1.872  21.829  0.00  0.00    -0.343 N 
ATOM     11  H   UNL     1       6.093   1.752  22.181  0.00  0.00    +0.144 HD
ATOM     12  H   UNL     1       7.091   2.787  21.379  0.00  0.00    +0.144 HD
ATOM     13  N   UNL     1       8.927   2.836  22.749  0.00  0.00    -0.218 NA
ATOM     14  C   UNL     1       9.979   2.773  23.575  0.00  0.00    +0.128 A 
ATOM     15  C   UNL     1      11.147   3.699  23.364  0.00  0.00    +0.088 C 
ATOM     16  N   UNL     1      10.148   1.825  24.500  0.00  0.00    -0.237 NA
ATOM     17  C   UNL     1       9.324   0.760  24.456  0.00  0.00    +0.053 A 
ATOM     18  C   UNL     1       9.750  -0.292  25.440  0.00  0.00    +0.066 C 
ENDBRANCH   7   8
ENDBRANCH   3   7
BRANCH   6  19
ATOM     19  C   UNL     1       4.388  -4.190  24.473  0.00  0.00    +0.077 C 
BRANCH  19  20
ATOM     20  C   UNL     1       4.917  -5.149  25.543  0.00  0.00    +0.178 C 
BRANCH  20  21
ATOM     21  O   UNL     1       6.302  -5.391  25.385  0.00  0.00    -0.286 OA
BRANCH  21  22
ATOM     22  P   UNL     1       7.299  -4.852  26.529  0.00  0.00    +0.480 P 
ATOM     23  O   UNL     1       6.657  -4.482  27.826  0.00  0.00    -0.227 OA
BRANCH  22  24
ATOM     24  O   UNL     1       8.256  -6.138  26.734  0.00  0.00    -0.302 OA
ATOM     25  H   UNL     1       8.780  -6.005  27.548  0.00  0.00    +0.222 HD
ENDBRANCH  22  24
BRANCH  22  26
ATOM     26  O   UNL     1       8.269  -3.843  25.798  0.00  0.00    -0.229 OA
BRANCH  26  27
ATOM     27  P   UNL     1       9.372  -4.290  24.739  0.00  0.00    +0.220 P 
ATOM     28  O   UNL     1       9.754  -3.183  23.795  0.00  0.00    -0.517 OA
ATOM     29  O   UNL     1      10.374  -5.171  25.425  0.00  0.00    -0.437 OA
BRANCH  27  30
ATOM     30  O   UNL     1       8.489  -5.350  23.913  0.00  0.00    -0.343 OA
ATOM     31  H   UNL     1       7.742  -5.543  24.513  0.00  0.00    +0.218 HD
ENDBRANCH  27  30
ENDBRANCH  26  27
ENDBRANCH  22  26
ENDBRANCH  21  22
ENDBRANCH  20  21
ENDBRANCH  19  20
ENDBRANCH   6  19
TORSDOF 10
ENDMDL
MODEL 6
REMARK VINA RESULT:      -6.3      1.836      3.094
REMARK  Name = 
REMARK  13 active torsions:
REMARK  status: ('A' for Active; 'I' for Inactive)
REMARK    1  A    between atoms: C_1  and  C_2
REMARK    2  A    between atoms: C_3  and  C_4
REMARK    3  A    between atoms: C_4  and  C_5
REMARK    4  A    between atoms: C_5  and  O_6
REMARK    5  A    between atoms: O_6  and  P_7
REMARK    6  A    between atoms: P_7  and  O_8
REMARK    7  A    between atoms: P_7  and  O_10
REMARK    8  A    between atoms: O_10  and  P_11
REMARK    9  A    between atoms: P_11  and  O_12
REMARK   10  A    between atoms: N_17  and  C_18
REMARK   11  A    between atoms: C_18  and  C_19
REMARK   12  A    between atoms: C_20  and  C_21
REMARK   13  A    between atoms: C_23  and  C_24
REMARK                            x       y       z     vdW  Elec       q    Type
REMARK                         _______ _______ _______ _____ _____    ______ ____
ROOT
ATOM      1  C   UNL     1       7.697  -3.349  22.544  0.00  0.00    +0.122 C 
ATOM      2  C   UNL     1       7.846  -2.549  23.800  0.00  0.00    +0.191 A 
ATOM      3  N   UNL     1       7.344  -1.251  23.903  0.00  0.00    -0.190 N 
ATOM      4  C   UNL     1       7.481  -0.719  25.106  0.00  0.00    +0.357 A 
ATOM      5  S   UNL     1       8.403  -1.720  26.137  0.00  0.00    -0.027 S 
ATOM      6  C   UNL     1       8.541  -2.939  24.938  0.00  0.00    +0.064 A 
ENDROOT
BRANCH   3   7
ATOM      7  C   UNL     1       7.007  -0.392  22.759  0.00  0.00    +0.399 C 
BRANCH   7   8
ATOM      8  C   UNL     1       7.888   0.792  22.461  0.00  0.00    +0.078 A 
ATOM      9  C   UNL     1       9.139   0.595  21.889  0.00  0.00    +0.129 A 
ATOM     10  N   UNL     1       9.460  -0.570  21.213  0.00  0.00    -0.343 N 
ATOM     11  H   UNL     1       8.893  -0.799  20.388  0.00  0.00    +0.144 HD
ATOM     12  H   UNL     1      10.430  -0.505  20.901  0.00  0.00    +0.144 HD
ATOM     13  N   UNL     1      10.170   1.434  22.094  0.00  0.00    -0.218 NA
ATOM     14  C   UNL     1       9.928   2.537  22.813  0.00  0.00    +0.128 A 
ATOM     15  C   UNL     1      11.079   3.320  23.384  0.00  0.00    +0.088 C 
ATOM     16  N   UNL     1       8.711   2.922  23.205  0.00  0.00    -0.237 NA
ATOM     17  C   UNL     1       7.702   2.043  23.051  0.00  0.00    +0.053 A 
ATOM     18  C   UNL     1       6.443   2.549  23.696  0.00  0.00    +0.066 C 
ENDBRANCH   7   8
ENDBRANCH   3   7
BRANCH   6  19
ATOM     19  C   UNL     1       9.363  -4.194  25.138  0.00  0.00    +0.077 C 
BRANCH  19  20
ATOM     20  C   UNL     1       8.585  -5.502  25.298  0.00  0.00    +0.178 C 
BRANCH  20  21
ATOM     21  O   UNL     1       7.680  -5.438  26.385  0.00  0.00    -0.286 OA
BRANCH  21  22
ATOM     22  P   UNL     1       6.117  -5.683  26.082  0.00  0.00    +0.480 P 
ATOM     23  O   UNL     1       5.471  -6.782  26.863  0.00  0.00    -0.227 OA
BRANCH  22  24
ATOM     24  O   UNL     1       5.492  -4.258  26.516  0.00  0.00    -0.302 OA
ATOM     25  H   UNL     1       4.547  -4.388  26.727  0.00  0.00    +0.222 HD
ENDBRANCH  22  24
BRANCH  22  26
ATOM     26  O   UNL     1       5.981  -5.629  24.510  0.00  0.00    -0.229 OA
BRANCH  26  27
ATOM     27  P   UNL     1       4.605  -5.844  23.736  0.00  0.00    +0.220 P 
ATOM     28  O   UNL     1       3.438  -5.203  24.436  0.00  0.00    -0.517 OA
ATOM     29  O   UNL     1       4.854  -5.715  22.262  0.00  0.00    -0.437 OA
BRANCH  27  30
ATOM     30  O   UNL     1       4.473  -7.435  23.926  0.00  0.00    -0.343 OA
ATOM     31  H   UNL     1       3.894  -7.705  23.186  0.00  0.00    +0.218 HD
ENDBRANCH  27  30
ENDBRANCH  26  27
ENDBRANCH  22  26
ENDBRANCH  21  22
ENDBRANCH  20  21
ENDBRANCH  19  20
ENDBRANCH   6  19
TORSDOF 10
ENDMDL
MODEL 7
REMARK VINA RESULT:      -6.3      1.724      3.017
REMARK  Name = 
REMARK  13 active torsions:
REMARK  status: ('A' for Active; 'I' for Inactive)
REMARK    1  A    between atoms: C_1  and  C_2
REMARK    2  A    between atoms: C_3  and  C_4
REMARK    3  A    between atoms: C_4  and  C_5
REMARK    4  A    between atoms: C_5  and  O_6
REMARK    5  A    between atoms: O_6  and  P_7
REMARK    6  A    between atoms: P_7  and  O_8
REMARK    7  A    between atoms: P_7  and  O_10
REMARK    8  A    between atoms: O_10  and  P_11
REMARK    9  A    between atoms: P_11  and  O_12
REMARK   10  A    between atoms: N_17  and  C_18
REMARK   11  A    between atoms: C_18  and  C_19
REMARK   12  A    between atoms: C_20  and  C_21
REMARK   13  A    between atoms: C_23  and  C_24
REMARK                            x       y       z     vdW  Elec       q    Type
REMARK                         _______ _______ _______ _____ _____    ______ ____
ROOT
ATOM      1  C   UNL     1      10.597   0.535  24.788  0.00  0.00    +0.122 C 
ATOM      2  C   UNL     1       9.951  -0.245  23.687  0.00  0.00    +0.191 A 
ATOM      3  N   UNL     1       9.861   0.260  22.388  0.00  0.00    -0.190 N 
ATOM      4  C   UNL     1       9.342  -0.590  21.519  0.00  0.00    +0.357 A 
ATOM      5  S   UNL     1       8.762  -2.001  22.286  0.00  0.00    -0.027 S 
ATOM      6  C   UNL     1       9.312  -1.471  23.822  0.00  0.00    +0.064 A 
ENDROOT
BRANCH   3   7
ATOM      7  C   UNL     1       9.987   1.681  22.034  0.00  0.00    +0.399 C 
BRANCH   7   8
ATOM      8  C   UNL     1       9.164   2.689  22.790  0.00  0.00    +0.078 A 
ATOM      9  C   UNL     1       9.796   3.684  23.526  0.00  0.00    +0.129 A 
ATOM     10  N   UNL     1      11.110   4.048  23.289  0.00  0.00    -0.343 N 
ATOM     11  H   UNL     1      11.329   4.410  22.352  0.00  0.00    +0.144 HD
ATOM     12  H   UNL     1      11.369   4.775  23.957  0.00  0.00    +0.144 HD
ATOM     13  N   UNL     1       9.243   4.238  24.621  0.00  0.00    -0.218 NA
ATOM     14  C   UNL     1       8.000   3.854  24.939  0.00  0.00    +0.128 A 
ATOM     15  C   UNL     1       7.463   4.140  26.315  0.00  0.00    +0.088 C 
ATOM     16  N   UNL     1       7.234   3.082  24.165  0.00  0.00    -0.237 NA
ATOM     17  C   UNL     1       7.820   2.484  23.109  0.00  0.00    +0.053 A 
ATOM     18  C   UNL     1       6.881   1.518  22.447  0.00  0.00    +0.066 C 
ENDBRANCH   7   8
ENDBRANCH   3   7
BRANCH   6  19
ATOM     19  C   UNL     1       9.049  -2.244  25.097  0.00  0.00    +0.077 C 
BRANCH  19  20
ATOM     20  C   UNL     1       8.726  -3.732  24.938  0.00  0.00    +0.178 C 
BRANCH  20  21
ATOM     21  O   UNL     1       7.524  -4.076  25.602  0.00  0.00    -0.286 OA
BRANCH  21  22
ATOM     22  P   UNL     1       6.391  -4.851  24.760  0.00  0.00    +0.480 P 
ATOM     23  O   UNL     1       5.757  -6.018  25.446  0.00  0.00    -0.227 OA
BRANCH  22  24
ATOM     24  O   UNL     1       5.301  -3.675  24.555  0.00  0.00    -0.302 OA
ATOM     25  H   UNL     1       5.654  -2.856  24.953  0.00  0.00    +0.222 HD
ENDBRANCH  22  24
BRANCH  22  26
ATOM     26  O   UNL     1       6.980  -5.001  23.303  0.00  0.00    -0.229 OA
BRANCH  26  27
ATOM     27  P   UNL     1       6.079  -5.110  21.994  0.00  0.00    +0.220 P 
ATOM     28  O   UNL     1       5.405  -3.814  21.641  0.00  0.00    -0.517 OA
ATOM     29  O   UNL     1       6.787  -5.971  20.989  0.00  0.00    -0.437 OA
BRANCH  27  30
ATOM     30  O   UNL     1       4.952  -6.105  22.566  0.00  0.00    -0.343 OA
ATOM     31  H   UNL     1       4.781  -6.710  21.818  0.00  0.00    +0.218 HD
ENDBRANCH  27  30
ENDBRANCH  26  27
ENDBRANCH  22  26
ENDBRANCH  21  22
ENDBRANCH  20  21
ENDBRANCH  19  20
ENDBRANCH   6  19
TORSDOF 10
ENDMDL
MODEL 8
REMARK VINA RESULT:      -6.2      2.878      4.248
REMARK  Name = 
REMARK  13 active torsions:
REMARK  status: ('A' for Active; 'I' for Inactive)
REMARK    1  A    between atoms: C_1  and  C_2
REMARK    2  A    between atoms: C_3  and  C_4
REMARK    3  A    between atoms: C_4  and  C_5
REMARK    4  A    between atoms: C_5  and  O_6
REMARK    5  A    between atoms: O_6  and  P_7
REMARK    6  A    between atoms: P_7  and  O_8
REMARK    7  A    between atoms: P_7  and  O_10
REMARK    8  A    between atoms: O_10  and  P_11
REMARK    9  A    between atoms: P_11  and  O_12
REMARK   10  A    between atoms: N_17  and  C_18
REMARK   11  A    between atoms: C_18  and  C_19
REMARK   12  A    between atoms: C_20  and  C_21
REMARK   13  A    between atoms: C_23  and  C_24
REMARK                            x       y       z     vdW  Elec       q    Type
REMARK                         _______ _______ _______ _____ _____    ______ ____
ROOT
ATOM      1  C   UNL     1       9.522  -4.752  25.839  0.00  0.00    +0.122 C 
ATOM      2  C   UNL     1       8.448  -4.364  24.874  0.00  0.00    +0.191 A 
ATOM      3  N   UNL     1       8.690  -3.468  23.830  0.00  0.00    -0.190 N 
ATOM      4  C   UNL     1       7.660  -3.302  23.018  0.00  0.00    +0.357 A 
ATOM      5  S   UNL     1       6.266  -4.100  23.596  0.00  0.00    -0.027 S 
ATOM      6  C   UNL     1       7.116  -4.754  24.935  0.00  0.00    +0.064 A 
ENDROOT
BRANCH   3   7
ATOM      7  C   UNL     1       9.816  -2.524  23.784  0.00  0.00    +0.399 C 
BRANCH   7   8
ATOM      8  C   UNL     1       9.521  -1.055  23.641  0.00  0.00    +0.078 A 
ATOM      9  C   UNL     1       9.757  -0.418  22.429  0.00  0.00    +0.129 A 
ATOM     10  N   UNL     1       9.865  -1.121  21.241  0.00  0.00    -0.343 N 
ATOM     11  H   UNL     1       9.047  -1.671  20.951  0.00  0.00    +0.144 HD
ATOM     12  H   UNL     1      10.061  -0.457  20.490  0.00  0.00    +0.144 HD
ATOM     13  N   UNL     1      10.066   0.889  22.345  0.00  0.00    -0.218 NA
ATOM     14  C   UNL     1      10.054   1.595  23.483  0.00  0.00    +0.128 A 
ATOM     15  C   UNL     1      10.727   2.940  23.529  0.00  0.00    +0.088 C 
ATOM     16  N   UNL     1       9.617   1.122  24.652  0.00  0.00    -0.237 NA
ATOM     17  C   UNL     1       9.375  -0.201  24.736  0.00  0.00    +0.053 A 
ATOM     18  C   UNL     1       9.064  -0.604  26.149  0.00  0.00    +0.066 C 
ENDBRANCH   7   8
ENDBRANCH   3   7
BRANCH   6  19
ATOM     19  C   UNL     1       6.438  -5.571  26.015  0.00  0.00    +0.077 C 
BRANCH  19  20
ATOM     20  C   UNL     1       5.402  -4.842  26.874  0.00  0.00    +0.178 C 
BRANCH  20  21
ATOM     21  O   UNL     1       4.484  -5.746  27.461  0.00  0.00    -0.286 OA
BRANCH  21  22
ATOM     22  P   UNL     1       2.963  -5.729  26.933  0.00  0.00    +0.480 P 
ATOM     23  O   UNL     1       1.985  -5.002  27.799  0.00  0.00    -0.227 OA
BRANCH  22  24
ATOM     24  O   UNL     1       3.135  -4.954  25.525  0.00  0.00    -0.302 OA
ATOM     25  H   UNL     1       2.953  -4.005  25.672  0.00  0.00    +0.222 HD
ENDBRANCH  22  24
BRANCH  22  26
ATOM     26  O   UNL     1       2.669  -7.204  26.454  0.00  0.00    -0.229 OA
BRANCH  26  27
ATOM     27  P   UNL     1       2.725  -7.664  24.931  0.00  0.00    +0.220 P 
ATOM     28  O   UNL     1       1.558  -7.160  24.127  0.00  0.00    -0.517 OA
ATOM     29  O   UNL     1       4.146  -7.593  24.455  0.00  0.00    -0.437 OA
BRANCH  27  30
ATOM     30  O   UNL     1       2.516  -9.243  25.153  0.00  0.00    -0.343 OA
ATOM     31  H   UNL     1       1.581  -9.313  25.429  0.00  0.00    +0.218 HD
ENDBRANCH  27  30
ENDBRANCH  26  27
ENDBRANCH  22  26
ENDBRANCH  21  22
ENDBRANCH  20  21
ENDBRANCH  19  20
ENDBRANCH   6  19
TORSDOF 10
ENDMDL
MODEL 9
REMARK VINA RESULT:      -6.1      6.104      8.899
REMARK  Name = 
REMARK  13 active torsions:
REMARK  status: ('A' for Active; 'I' for Inactive)
REMARK    1  A    between atoms: C_1  and  C_2
REMARK    2  A    between atoms: C_3  and  C_4
REMARK    3  A    between atoms: C_4  and  C_5
REMARK    4  A    between atoms: C_5  and  O_6
REMARK    5  A    between atoms: O_6  and  P_7
REMARK    6  A    between atoms: P_7  and  O_8
REMARK    7  A    between atoms: P_7  and  O_10
REMARK    8  A    between atoms: O_10  and  P_11
REMARK    9  A    between atoms: P_11  and  O_12
REMARK   10  A    between atoms: N_17  and  C_18
REMARK   11  A    between atoms: C_18  and  C_19
REMARK   12  A    between atoms: C_20  and  C_21
REMARK   13  A    between atoms: C_23  and  C_24
REMARK                            x       y       z     vdW  Elec       q    Type
REMARK                         _______ _______ _______ _____ _____    ______ ____
ROOT
ATOM      1  C   UNL     1       8.686  -2.127  26.220  0.00  0.00    +0.122 C 
ATOM      2  C   UNL     1       8.967  -1.954  24.761  0.00  0.00    +0.191 A 
ATOM      3  N   UNL     1       8.592  -2.919  23.824  0.00  0.00    -0.190 N 
ATOM      4  C   UNL     1       8.834  -2.570  22.572  0.00  0.00    +0.357 A 
ATOM      5  S   UNL     1       9.709  -1.107  22.482  0.00  0.00    -0.027 S 
ATOM      6  C   UNL     1       9.677  -0.907  24.186  0.00  0.00    +0.064 A 
ENDROOT
BRANCH   3   7
ATOM      7  C   UNL     1       8.281  -4.319  24.145  0.00  0.00    +0.399 C 
BRANCH   7   8
ATOM      8  C   UNL     1       7.003  -4.624  24.879  0.00  0.00    +0.078 A 
ATOM      9  C   UNL     1       7.029  -5.440  26.002  0.00  0.00    +0.129 A 
ATOM     10  N   UNL     1       8.192  -5.661  26.720  0.00  0.00    -0.343 N 
ATOM     11  H   UNL     1       8.645  -4.838  27.136  0.00  0.00    +0.144 HD
ATOM     12  H   UNL     1       7.982  -6.305  27.484  0.00  0.00    +0.144 HD
ATOM     13  N   UNL     1       5.982  -6.201  26.371  0.00  0.00    -0.218 NA
ATOM     14  C   UNL     1       4.857  -6.082  25.655  0.00  0.00    +0.128 A 
ATOM     15  C   UNL     1       3.789  -7.136  25.768  0.00  0.00    +0.088 C 
ATOM     16  N   UNL     1       4.667  -5.161  24.707  0.00  0.00    -0.237 NA
ATOM     17  C   UNL     1       5.741  -4.453  24.306  0.00  0.00    +0.053 A 
ATOM     18  C   UNL     1       5.406  -3.591  23.122  0.00  0.00    +0.066 C 
ENDBRANCH   7   8
ENDBRANCH   3   7
BRANCH   6  19
ATOM     19  C   UNL     1      10.390   0.228  24.890  0.00  0.00    +0.077 C 
BRANCH  19  20
ATOM     20  C   UNL     1      10.312   1.602  24.221  0.00  0.00    +0.178 C 
BRANCH  20  21
ATOM     21  O   UNL     1       9.084   2.248  24.503  0.00  0.00    -0.286 OA
BRANCH  21  22
ATOM     22  P   UNL     1       8.249   2.856  23.267  0.00  0.00    +0.480 P 
ATOM     23  O   UNL     1       8.468   2.189  21.947  0.00  0.00    -0.227 OA
BRANCH  22  24
ATOM     24  O   UNL     1       6.733   2.604  23.766  0.00  0.00    -0.302 OA
ATOM     25  H   UNL     1       6.754   1.967  24.507  0.00  0.00    +0.222 HD
ENDBRANCH  22  24
BRANCH  22  26
ATOM     26  O   UNL     1       8.377   4.423  23.405  0.00  0.00    -0.229 OA
BRANCH  26  27
ATOM     27  P   UNL     1       7.234   5.443  22.968  0.00  0.00    +0.220 P 
ATOM     28  O   UNL     1       6.147   5.575  23.999  0.00  0.00    -0.517 OA
ATOM     29  O   UNL     1       7.868   6.618  22.284  0.00  0.00    -0.437 OA
BRANCH  27  30
ATOM     30  O   UNL     1       6.632   4.608  21.732  0.00  0.00    -0.343 OA
ATOM     31  H   UNL     1       5.891   4.111  22.132  0.00  0.00    +0.218 HD
ENDBRANCH  27  30
ENDBRANCH  26  27
ENDBRANCH  22  26
ENDBRANCH  21  22
ENDBRANCH  20  21
ENDBRANCH  19  20
ENDBRANCH   6  19
TORSDOF 10
ENDMDL
