MODEL 1
REMARK VINA RESULT:      -7.5      0.000      0.000
REMARK  Name = 
REMARK  8 active torsions:
REMARK  status: ('A' for Active; 'I' for Inactive)
REMARK    1  A    between atoms: C_1  and  N_2
REMARK    2  A    between atoms: N_2  and  C_3
REMARK    3  A    between atoms: N_2  and  C_4
REMARK    4  A    between atoms: C_4  and  C_5
REMARK    5  A    between atoms: C_5  and  C_6
REMARK    6  A    between atoms: C_19  and  C_20
REMARK    7  A    between atoms: C_20  and  C_21
REMARK    8  A    between atoms: C_21  and  O_22
REMARK                            x       y       z     vdW  Elec       q    Type
REMARK                         _______ _______ _______ _____ _____    ______ ____
ROOT
ATOM      1  C   UNL     1       6.443  -1.875  22.967  0.00  0.00    -0.017 C 
ATOM      2  C   UNL     1       7.434  -1.947  23.890  0.00  0.00    -0.011 C 
ATOM      3  C   UNL     1       7.733  -3.215  24.612  0.00  0.00    +0.024 A 
ATOM      4  C   UNL     1       6.682  -3.838  25.325  0.00  0.00    +0.016 A 
ATOM      5  C   UNL     1       6.853  -5.067  25.979  0.00  0.00    -0.036 A 
ATOM      6  C   UNL     1       8.125  -5.642  25.980  0.00  0.00    +0.008 A 
ATOM      7  C   UNL     1       9.193  -4.994  25.357  0.00  0.00    +0.046 A 
ATOM      8  C   UNL     1       9.014  -3.786  24.669  0.00  0.00    +0.129 A 
ATOM      9  O   UNL     1      10.187  -3.284  24.166  0.00  0.00    -0.487 OA
ATOM     10  C   UNL     1      10.138  -2.261  23.171  0.00  0.00    +0.265 C 
ATOM     11  C   UNL     1       9.675  -0.934  23.717  0.00  0.00    -0.003 A 
ATOM     12  C   UNL     1      10.564   0.131  23.918  0.00  0.00    +0.007 A 
ATOM     13  C   UNL     1      10.103   1.343  24.432  0.00  0.00    +0.000 A 
ATOM     14  C   UNL     1       8.753   1.501  24.748  0.00  0.00    +0.001 A 
ATOM     15  C   UNL     1       7.860   0.445  24.554  0.00  0.00    +0.009 A 
ATOM     16  C   UNL     1       8.317  -0.772  24.042  0.00  0.00    -0.011 A 
ENDROOT
BRANCH   1  17
ATOM     17  C   UNL     1       5.547  -3.016  22.541  0.00  0.00    +0.043 C 
BRANCH  17  18
ATOM     18  C   UNL     1       6.085  -3.866  21.376  0.00  0.00    +0.088 C 
BRANCH  18  20
ATOM     19  C   UNL     1       7.193  -5.912  22.022  0.00  0.00    +0.104 C 
ATOM     20  N   UNL     1       5.921  -5.316  21.609  0.00  0.00    -0.308 NA
ATOM     21  C   UNL     1       4.895  -5.624  22.610  0.00  0.00    +0.104 C 
ENDBRANCH  18  20
ENDBRANCH  17  18
ENDBRANCH   1  17
BRANCH   5  22
ATOM     22  C   UNL     1       5.715  -5.717  26.736  0.00  0.00    +0.155 C 
BRANCH  22  23
ATOM     23  C   UNL     1       5.971  -6.225  28.143  0.00  0.00    +0.309 C 
ATOM     24  O   UNL     1       6.443  -5.500  29.013  0.00  0.00    -0.251 OA
BRANCH  23  25
ATOM     25  O   UNL     1       5.693  -7.516  28.395  0.00  0.00    -0.480 OA
ATOM     26  H   UNL     1       6.259  -8.161  27.930  0.00  0.00    +0.295 HD
ENDBRANCH  23  25
ENDBRANCH  22  23
ENDBRANCH   5  22
TORSDOF 6
ENDMDL
MODEL 2
REMARK VINA RESULT:      -6.6      3.191      6.797
REMARK  Name = 
REMARK  8 active torsions:
REMARK  status: ('A' for Active; 'I' for Inactive)
REMARK    1  A    between atoms: C_1  and  N_2
REMARK    2  A    between atoms: N_2  and  C_3
REMARK    3  A    between atoms: N_2  and  C_4
REMARK    4  A    between atoms: C_4  and  C_5
REMARK    5  A    between atoms: C_5  and  C_6
REMARK    6  A    between atoms: C_19  and  C_20
REMARK    7  A    between atoms: C_20  and  C_21
REMARK    8  A    between atoms: C_21  and  O_22
REMARK                            x       y       z     vdW  Elec       q    Type
REMARK                         _______ _______ _______ _____ _____    ______ ____
ROOT
ATOM      1  C   UNL     1       5.787  -1.812  24.379  0.00  0.00    -0.017 C 
ATOM      2  C   UNL     1       6.751  -2.219  23.518  0.00  0.00    -0.011 C 
ATOM      3  C   UNL     1       7.913  -1.349  23.184  0.00  0.00    +0.024 A 
ATOM      4  C   UNL     1       7.650  -0.056  22.672  0.00  0.00    +0.016 A 
ATOM      5  C   UNL     1       8.677   0.857  22.392  0.00  0.00    -0.036 A 
ATOM      6  C   UNL     1       9.998   0.434  22.558  0.00  0.00    +0.008 A 
ATOM      7  C   UNL     1      10.275  -0.868  22.978  0.00  0.00    +0.046 A 
ATOM      8  C   UNL     1       9.248  -1.768  23.296  0.00  0.00    +0.129 A 
ATOM      9  O   UNL     1       9.719  -3.008  23.642  0.00  0.00    -0.487 OA
ATOM     10  C   UNL     1       8.848  -3.924  24.307  0.00  0.00    +0.265 C 
ATOM     11  C   UNL     1       7.766  -4.464  23.408  0.00  0.00    -0.003 A 
ATOM     12  C   UNL     1       7.801  -5.777  22.918  0.00  0.00    +0.007 A 
ATOM     13  C   UNL     1       6.786  -6.241  22.081  0.00  0.00    +0.000 A 
ATOM     14  C   UNL     1       5.731  -5.400  21.728  0.00  0.00    +0.001 A 
ATOM     15  C   UNL     1       5.688  -4.089  22.208  0.00  0.00    +0.009 A 
ATOM     16  C   UNL     1       6.704  -3.618  23.045  0.00  0.00    -0.011 A 
ENDROOT
BRANCH   1  17
ATOM     17  C   UNL     1       5.752  -0.486  25.106  0.00  0.00    +0.043 C 
BRANCH  17  18
ATOM     18  C   UNL     1       6.128  -0.552  26.597  0.00  0.00    +0.088 C 
BRANCH  18  20
ATOM     19  C   UNL     1       8.520  -0.786  26.825  0.00  0.00    +0.104 C 
ATOM     20  N   UNL     1       7.395   0.149  26.894  0.00  0.00    -0.308 NA
ATOM     21  C   UNL     1       7.650   1.279  25.996  0.00  0.00    +0.104 C 
ENDBRANCH  18  20
ENDBRANCH  17  18
ENDBRANCH   1  17
BRANCH   5  22
ATOM     22  C   UNL     1       8.374   2.234  21.844  0.00  0.00    +0.155 C 
BRANCH  22  23
ATOM     23  C   UNL     1       8.212   3.387  22.818  0.00  0.00    +0.309 C 
ATOM     24  O   UNL     1       7.123   3.667  23.309  0.00  0.00    -0.251 OA
BRANCH  23  25
ATOM     25  O   UNL     1       9.306   4.116  23.102  0.00  0.00    -0.480 OA
ATOM     26  H   UNL     1      10.061   3.981  22.499  0.00  0.00    +0.295 HD
ENDBRANCH  23  25
ENDBRANCH  22  23
ENDBRANCH   5  22
TORSDOF 6
ENDMDL
MODEL 3
REMARK VINA RESULT:      -6.3      2.877      6.839
REMARK  Name = 
REMARK  8 active torsions:
REMARK  status: ('A' for Active; 'I' for Inactive)
REMARK    1  A    between atoms: C_1  and  N_2
REMARK    2  A    between atoms: N_2  and  C_3
REMARK    3  A    between atoms: N_2  and  C_4
REMARK    4  A    between atoms: C_4  and  C_5
REMARK    5  A    between atoms: C_5  and  C_6
REMARK    6  A    between atoms: C_19  and  C_20
REMARK    7  A    between atoms: C_20  and  C_21
REMARK    8  A    between atoms: C_21  and  O_22
REMARK                            x       y       z     vdW  Elec       q    Type
REMARK                         _______ _______ _______ _____ _____    ______ ____
ROOT
ATOM      1  C   UNL     1       5.669  -1.133  24.953  0.00  0.00    -0.017 C 
ATOM      2  C   UNL     1       6.316  -2.168  24.362  0.00  0.00    -0.011 C 
ATOM      3  C   UNL     1       7.721  -2.037  23.886  0.00  0.00    +0.024 A 
ATOM      4  C   UNL     1       8.018  -1.000  22.970  0.00  0.00    +0.016 A 
ATOM      5  C   UNL     1       9.324  -0.758  22.518  0.00  0.00    -0.036 A 
ATOM      6  C   UNL     1      10.337  -1.622  22.937  0.00  0.00    +0.008 A 
ATOM      7  C   UNL     1      10.044  -2.703  23.771  0.00  0.00    +0.046 A 
ATOM      8  C   UNL     1       8.746  -2.922  24.254  0.00  0.00    +0.129 A 
ATOM      9  O   UNL     1       8.650  -4.057  25.018  0.00  0.00    -0.487 OA
ATOM     10  C   UNL     1       7.504  -4.243  25.849  0.00  0.00    +0.265 C 
ATOM     11  C   UNL     1       6.250  -4.531  25.065  0.00  0.00    -0.003 A 
ATOM     12  C   UNL     1       5.687  -5.814  25.020  0.00  0.00    +0.007 A 
ATOM     13  C   UNL     1       4.529  -6.047  24.276  0.00  0.00    +0.000 A 
ATOM     14  C   UNL     1       3.926  -5.003  23.575  0.00  0.00    +0.001 A 
ATOM     15  C   UNL     1       4.481  -3.722  23.611  0.00  0.00    +0.009 A 
ATOM     16  C   UNL     1       5.642  -3.483  24.352  0.00  0.00    -0.011 A 
ENDROOT
BRANCH   1  17
ATOM     17  C   UNL     1       6.249   0.238  25.218  0.00  0.00    +0.043 C 
BRANCH  17  18
ATOM     18  C   UNL     1       5.776   1.342  24.256  0.00  0.00    +0.088 C 
BRANCH  18  20
ATOM     19  C   UNL     1       6.117   3.721  24.035  0.00  0.00    +0.104 C 
ATOM     20  N   UNL     1       6.777   2.416  24.088  0.00  0.00    -0.308 NA
ATOM     21  C   UNL     1       7.789   2.428  25.148  0.00  0.00    +0.104 C 
ENDBRANCH  18  20
ENDBRANCH  17  18
ENDBRANCH   1  17
BRANCH   5  22
ATOM     22  C   UNL     1       9.620   0.355  21.537  0.00  0.00    +0.155 C 
BRANCH  22  23
ATOM     23  C   UNL     1       9.672   1.783  22.049  0.00  0.00    +0.309 C 
ATOM     24  O   UNL     1      10.534   2.151  22.843  0.00  0.00    -0.251 OA
BRANCH  23  25
ATOM     25  O   UNL     1       8.716   2.628  21.626  0.00  0.00    -0.480 OA
ATOM     26  H   UNL     1       8.101   2.937  22.318  0.00  0.00    +0.295 HD
ENDBRANCH  23  25
ENDBRANCH  22  23
ENDBRANCH   5  22
TORSDOF 6
ENDMDL
MODEL 4
REMARK VINA RESULT:      -6.2      1.648      2.009
REMARK  Name = 
REMARK  8 active torsions:
REMARK  status: ('A' for Active; 'I' for Inactive)
REMARK    1  A    between atoms: C_1  and  N_2
REMARK    2  A    between atoms: N_2  and  C_3
REMARK    3  A    between atoms: N_2  and  C_4
REMARK    4  A    between atoms: C_4  and  C_5
REMARK    5  A    between atoms: C_5  and  C_6
REMARK    6  A    between atoms: C_19  and  C_20
REMARK    7  A    between atoms: C_20  and  C_21
REMARK    8  A    between atoms: C_21  and  O_22
REMARK                            x       y       z     vdW  Elec       q    Type
REMARK                         _______ _______ _______ _____ _____    ______ ____
ROOT
ATOM      1  C   UNL     1       6.042  -2.506  22.510  0.00  0.00    -0.017 C 
ATOM      2  C   UNL     1       7.108  -2.035  23.202  0.00  0.00    -0.011 C 
ATOM      3  C   UNL     1       7.819  -2.878  24.203  0.00  0.00    +0.024 A 
ATOM      4  C   UNL     1       7.061  -3.436  25.260  0.00  0.00    +0.016 A 
ATOM      5  C   UNL     1       7.631  -4.296  26.211  0.00  0.00    -0.036 A 
ATOM      6  C   UNL     1       9.004  -4.538  26.142  0.00  0.00    +0.008 A 
ATOM      7  C   UNL     1       9.781  -3.923  25.158  0.00  0.00    +0.046 A 
ATOM      8  C   UNL     1       9.206  -3.096  24.184  0.00  0.00    +0.129 A 
ATOM      9  O   UNL     1      10.135  -2.550  23.336  0.00  0.00    -0.487 OA
ATOM     10  C   UNL     1       9.701  -1.968  22.106  0.00  0.00    +0.265 C 
ATOM     11  C   UNL     1       8.956  -0.672  22.301  0.00  0.00    -0.003 A 
ATOM     12  C   UNL     1       9.537   0.566  21.994  0.00  0.00    +0.007 A 
ATOM     13  C   UNL     1       8.820   1.746  22.195  0.00  0.00    +0.000 A 
ATOM     14  C   UNL     1       7.522   1.699  22.701  0.00  0.00    +0.001 A 
ATOM     15  C   UNL     1       6.935   0.471  23.013  0.00  0.00    +0.009 A 
ATOM     16  C   UNL     1       7.649  -0.715  22.817  0.00  0.00    -0.011 A 
ENDROOT
BRANCH   1  17
ATOM     17  C   UNL     1       5.451  -3.892  22.631  0.00  0.00    +0.043 C 
BRANCH  17  18
ATOM     18  C   UNL     1       4.118  -3.966  23.398  0.00  0.00    +0.088 C 
BRANCH  18  20
ATOM     19  C   UNL     1       2.489  -5.743  23.270  0.00  0.00    +0.104 C 
ATOM     20  N   UNL     1       3.784  -5.341  23.823  0.00  0.00    -0.308 NA
ATOM     21  C   UNL     1       4.800  -6.324  23.437  0.00  0.00    +0.104 C 
ENDBRANCH  18  20
ENDBRANCH  17  18
ENDBRANCH   1  17
BRANCH   5  22
ATOM     22  C   UNL     1       6.803  -4.881  27.333  0.00  0.00    +0.155 C 
BRANCH  22  23
ATOM     23  C   UNL     1       5.539  -5.646  26.985  0.00  0.00    +0.309 C 
ATOM     24  O   UNL     1       5.545  -6.863  26.830  0.00  0.00    -0.251 OA
BRANCH  23  25
ATOM     25  O   UNL     1       4.411  -4.933  26.817  0.00  0.00    -0.480 OA
ATOM     26  H   UNL     1       4.529  -4.067  26.385  0.00  0.00    +0.295 HD
ENDBRANCH  23  25
ENDBRANCH  22  23
ENDBRANCH   5  22
TORSDOF 6
ENDMDL
MODEL 5
REMARK VINA RESULT:      -5.9      2.779      4.526
REMARK  Name = 
REMARK  8 active torsions:
REMARK  status: ('A' for Active; 'I' for Inactive)
REMARK    1  A    between atoms: C_1  and  N_2
REMARK    2  A    between atoms: N_2  and  C_3
REMARK    3  A    between atoms: N_2  and  C_4
REMARK    4  A    between atoms: C_4  and  C_5
REMARK    5  A    between atoms: C_5  and  C_6
REMARK    6  A    between atoms: C_19  and  C_20
REMARK    7  A    between atoms: C_20  and  C_21
REMARK    8  A    between atoms: C_21  and  O_22
REMARK                            x       y       z     vdW  Elec       q    Type
REMARK                         _______ _______ _______ _____ _____    ______ ____
ROOT
ATOM      1  C   UNL     1       9.109  -1.762  23.897  0.00  0.00    -0.017 C 
ATOM      2  C   UNL     1       7.858  -1.313  23.629  0.00  0.00    -0.011 C 
ATOM      3  C   UNL     1       6.657  -2.151  23.898  0.00  0.00    +0.024 A 
ATOM      4  C   UNL     1       6.595  -3.434  23.304  0.00  0.00    +0.016 A 
ATOM      5  C   UNL     1       5.535  -4.319  23.554  0.00  0.00    -0.036 A 
ATOM      6  C   UNL     1       4.481  -3.876  24.354  0.00  0.00    +0.008 A 
ATOM      7  C   UNL     1       4.485  -2.580  24.874  0.00  0.00    +0.046 A 
ATOM      8  C   UNL     1       5.563  -1.709  24.658  0.00  0.00    +0.129 A 
ATOM      9  O   UNL     1       5.361  -0.469  25.208  0.00  0.00    -0.487 OA
ATOM     10  C   UNL     1       6.473   0.410  25.372  0.00  0.00    +0.265 C 
ATOM     11  C   UNL     1       6.989   0.954  24.064  0.00  0.00    -0.003 A 
ATOM     12  C   UNL     1       6.758   2.280  23.673  0.00  0.00    +0.007 A 
ATOM     13  C   UNL     1       7.243   2.746  22.451  0.00  0.00    +0.000 A 
ATOM     14  C   UNL     1       7.962   1.895  21.613  0.00  0.00    +0.001 A 
ATOM     15  C   UNL     1       8.196   0.571  21.991  0.00  0.00    +0.009 A 
ATOM     16  C   UNL     1       7.709   0.097  23.213  0.00  0.00    -0.011 A 
ENDROOT
BRANCH   1  17
ATOM     17  C   UNL     1       9.457  -3.107  24.494  0.00  0.00    +0.043 C 
BRANCH  17  18
ATOM     18  C   UNL     1       9.082  -3.277  25.977  0.00  0.00    +0.088 C 
BRANCH  18  20
ATOM     19  C   UNL     1       7.447  -4.833  26.834  0.00  0.00    +0.104 C 
ATOM     20  N   UNL     1       8.816  -4.686  26.337  0.00  0.00    -0.308 NA
ATOM     21  C   UNL     1       9.028  -5.613  25.222  0.00  0.00    +0.104 C 
ENDBRANCH  18  20
ENDBRANCH  17  18
ENDBRANCH   1  17
BRANCH   5  22
ATOM     22  C   UNL     1       5.489  -5.686  22.908  0.00  0.00    +0.155 C 
BRANCH  22  23
ATOM     23  C   UNL     1       6.399  -5.967  21.727  0.00  0.00    +0.309 C 
ATOM     24  O   UNL     1       7.538  -6.399  21.880  0.00  0.00    -0.251 OA
BRANCH  23  25
ATOM     25  O   UNL     1       5.924  -5.692  20.499  0.00  0.00    -0.480 OA
ATOM     26  H   UNL     1       6.535  -5.887  19.765  0.00  0.00    +0.295 HD
ENDBRANCH  23  25
ENDBRANCH  22  23
ENDBRANCH   5  22
TORSDOF 6
ENDMDL
MODEL 6
REMARK VINA RESULT:      -5.7      3.162      5.062
REMARK  Name = 
REMARK  8 active torsions:
REMARK  status: ('A' for Active; 'I' for Inactive)
REMARK    1  A    between atoms: C_1  and  N_2
REMARK    2  A    between atoms: N_2  and  C_3
REMARK    3  A    between atoms: N_2  and  C_4
REMARK    4  A    between atoms: C_4  and  C_5
REMARK    5  A    between atoms: C_5  and  C_6
REMARK    6  A    between atoms: C_19  and  C_20
REMARK    7  A    between atoms: C_20  and  C_21
REMARK    8  A    between atoms: C_21  and  O_22
REMARK                            x       y       z     vdW  Elec       q    Type
REMARK                         _______ _______ _______ _____ _____    ______ ____
ROOT
ATOM      1  C   UNL     1       7.538   0.503  23.577  0.00  0.00    -0.017 C 
ATOM      2  C   UNL     1       7.169  -0.353  24.561  0.00  0.00    -0.011 C 
ATOM      3  C   UNL     1       7.559  -1.790  24.529  0.00  0.00    +0.024 A 
ATOM      4  C   UNL     1       7.205  -2.550  23.390  0.00  0.00    +0.016 A 
ATOM      5  C   UNL     1       7.588  -3.892  23.242  0.00  0.00    -0.036 A 
ATOM      6  C   UNL     1       8.275  -4.501  24.294  0.00  0.00    +0.008 A 
ATOM      7  C   UNL     1       8.554  -3.788  25.462  0.00  0.00    +0.046 A 
ATOM      8  C   UNL     1       8.206  -2.437  25.594  0.00  0.00    +0.129 A 
ATOM      9  O   UNL     1       8.521  -1.927  26.828  0.00  0.00    -0.487 OA
ATOM     10  C   UNL     1       8.546  -0.511  27.011  0.00  0.00    +0.265 C 
ATOM     11  C   UNL     1       7.172   0.109  26.983  0.00  0.00    -0.003 A 
ATOM     12  C   UNL     1       6.545   0.566  28.151  0.00  0.00    +0.007 A 
ATOM     13  C   UNL     1       5.269   1.126  28.089  0.00  0.00    +0.000 A 
ATOM     14  C   UNL     1       4.612   1.236  26.864  0.00  0.00    +0.001 A 
ATOM     15  C   UNL     1       5.226   0.781  25.695  0.00  0.00    +0.009 A 
ATOM     16  C   UNL     1       6.503   0.216  25.752  0.00  0.00    -0.011 A 
ENDROOT
BRANCH   1  17
ATOM     17  C   UNL     1       8.374   0.152  22.366  0.00  0.00    +0.043 C 
BRANCH  17  18
ATOM     18  C   UNL     1       9.775   0.788  22.336  0.00  0.00    +0.088 C 
BRANCH  18  20
ATOM     19  C   UNL     1      11.045   0.704  24.388  0.00  0.00    +0.104 C 
ATOM     20  N   UNL     1      10.104   1.494  23.592  0.00  0.00    -0.308 NA
ATOM     21  C   UNL     1      10.662   2.831  23.369  0.00  0.00    +0.104 C 
ENDBRANCH  18  20
ENDBRANCH  17  18
ENDBRANCH   1  17
BRANCH   5  22
ATOM     22  C   UNL     1       7.198  -4.687  22.016  0.00  0.00    +0.155 C 
BRANCH  22  23
ATOM     23  C   UNL     1       5.942  -5.537  22.067  0.00  0.00    +0.309 C 
ATOM     24  O   UNL     1       4.832  -5.035  22.218  0.00  0.00    -0.251 OA
BRANCH  23  25
ATOM     25  O   UNL     1       6.091  -6.870  21.973  0.00  0.00    -0.480 OA
ATOM     26  H   UNL     1       5.262  -7.373  21.863  0.00  0.00    +0.295 HD
ENDBRANCH  23  25
ENDBRANCH  22  23
ENDBRANCH   5  22
TORSDOF 6
ENDMDL
MODEL 7
REMARK VINA RESULT:      -5.6      2.249      6.165
REMARK  Name = 
REMARK  8 active torsions:
REMARK  status: ('A' for Active; 'I' for Inactive)
REMARK    1  A    between atoms: C_1  and  N_2
REMARK    2  A    between atoms: N_2  and  C_3
REMARK    3  A    between atoms: N_2  and  C_4
REMARK    4  A    between atoms: C_4  and  C_5
REMARK    5  A    between atoms: C_5  and  C_6
REMARK    6  A    between atoms: C_19  and  C_20
REMARK    7  A    between atoms: C_20  and  C_21
REMARK    8  A    between atoms: C_21  and  O_22
REMARK                            x       y       z     vdW  Elec       q    Type
REMARK                         _______ _______ _______ _____ _____    ______ ____
ROOT
ATOM      1  C   UNL     1       6.710  -5.176  24.922  0.00  0.00    -0.017 C 
ATOM      2  C   UNL     1       6.388  -4.084  25.658  0.00  0.00    -0.011 C 
ATOM      3  C   UNL     1       6.646  -2.706  25.157  0.00  0.00    +0.024 A 
ATOM      4  C   UNL     1       7.968  -2.372  24.779  0.00  0.00    +0.016 A 
ATOM      5  C   UNL     1       8.293  -1.121  24.234  0.00  0.00    -0.036 A 
ATOM      6  C   UNL     1       7.283  -0.161  24.139  0.00  0.00    +0.008 A 
ATOM      7  C   UNL     1       5.993  -0.446  24.590  0.00  0.00    +0.046 A 
ATOM      8  C   UNL     1       5.659  -1.709  25.098  0.00  0.00    +0.129 A 
ATOM      9  O   UNL     1       4.360  -1.779  25.532  0.00  0.00    -0.487 OA
ATOM     10  C   UNL     1       3.768  -3.058  25.759  0.00  0.00    +0.265 C 
ATOM     11  C   UNL     1       4.327  -3.757  26.972  0.00  0.00    -0.003 A 
ATOM     12  C   UNL     1       3.594  -3.868  28.162  0.00  0.00    +0.007 A 
ATOM     13  C   UNL     1       4.147  -4.514  29.268  0.00  0.00    +0.000 A 
ATOM     14  C   UNL     1       5.430  -5.054  29.194  0.00  0.00    +0.001 A 
ATOM     15  C   UNL     1       6.170  -4.946  28.015  0.00  0.00    +0.009 A 
ATOM     16  C   UNL     1       5.623  -4.297  26.904  0.00  0.00    -0.011 A 
ENDROOT
BRANCH   1  17
ATOM     17  C   UNL     1       7.334  -5.163  23.545  0.00  0.00    +0.043 C 
BRANCH  17  18
ATOM     18  C   UNL     1       6.502  -5.851  22.447  0.00  0.00    +0.088 C 
BRANCH  18  20
ATOM     19  C   UNL     1       4.255  -5.022  22.747  0.00  0.00    +0.104 C 
ATOM     20  N   UNL     1       5.448  -4.972  21.900  0.00  0.00    -0.308 NA
ATOM     21  C   UNL     1       5.879  -3.579  21.754  0.00  0.00    +0.104 C 
ENDBRANCH  18  20
ENDBRANCH  17  18
ENDBRANCH   1  17
BRANCH   5  22
ATOM     22  C   UNL     1       9.714  -0.784  23.837  0.00  0.00    +0.155 C 
BRANCH  22  23
ATOM     23  C   UNL     1      10.018  -0.518  22.374  0.00  0.00    +0.309 C 
ATOM     24  O   UNL     1      10.030   0.621  21.916  0.00  0.00    -0.251 OA
BRANCH  23  25
ATOM     25  O   UNL     1      10.242  -1.583  21.584  0.00  0.00    -0.480 OA
ATOM     26  H   UNL     1       9.501  -1.828  21.000  0.00  0.00    +0.295 HD
ENDBRANCH  23  25
ENDBRANCH  22  23
ENDBRANCH   5  22
TORSDOF 6
ENDMDL
MODEL 8
REMARK VINA RESULT:      -5.6      3.397      7.038
REMARK  Name = 
REMARK  8 active torsions:
REMARK  status: ('A' for Active; 'I' for Inactive)
REMARK    1  A    between atoms: C_1  and  N_2
REMARK    2  A    between atoms: N_2  and  C_3
REMARK    3  A    between atoms: N_2  and  C_4
REMARK    4  A    between atoms: C_4  and  C_5
REMARK    5  A    between atoms: C_5  and  C_6
REMARK    6  A    between atoms: C_19  and  C_20
REMARK    7  A    between atoms: C_20  and  C_21
REMARK    8  A    between atoms: C_21  and  O_22
REMARK                            x       y       z     vdW  Elec       q    Type
REMARK                         _______ _______ _______ _____ _____    ______ ____
ROOT
ATOM      1  C   UNL     1       6.180  -1.630  25.927  0.00  0.00    -0.017 C 
ATOM      2  C   UNL     1       6.978  -1.718  24.835  0.00  0.00    -0.011 C 
ATOM      3  C   UNL     1       8.141  -0.808  24.645  0.00  0.00    +0.024 A 
ATOM      4  C   UNL     1       7.905   0.586  24.670  0.00  0.00    +0.016 A 
ATOM      5  C   UNL     1       8.948   1.520  24.567  0.00  0.00    -0.036 A 
ATOM      6  C   UNL     1      10.243   1.041  24.360  0.00  0.00    +0.008 A 
ATOM      7  C   UNL     1      10.479  -0.330  24.244  0.00  0.00    +0.046 A 
ATOM      8  C   UNL     1       9.444  -1.264  24.386  0.00  0.00    +0.129 A 
ATOM      9  O   UNL     1       9.865  -2.555  24.193  0.00  0.00    -0.487 OA
ATOM     10  C   UNL     1       9.033  -3.632  24.625  0.00  0.00    +0.265 C 
ATOM     11  C   UNL     1       7.795  -3.792  23.780  0.00  0.00    -0.003 A 
ATOM     12  C   UNL     1       7.660  -4.843  22.861  0.00  0.00    +0.007 A 
ATOM     13  C   UNL     1       6.503  -4.955  22.089  0.00  0.00    +0.000 A 
ATOM     14  C   UNL     1       5.475  -4.024  22.229  0.00  0.00    +0.001 A 
ATOM     15  C   UNL     1       5.600  -2.973  23.140  0.00  0.00    +0.009 A 
ATOM     16  C   UNL     1       6.758  -2.853  23.914  0.00  0.00    -0.011 A 
ENDROOT
BRANCH   1  17
ATOM     17  C   UNL     1       6.350  -0.653  27.069  0.00  0.00    +0.043 C 
BRANCH  17  18
ATOM     18  C   UNL     1       5.160   0.296  27.295  0.00  0.00    +0.088 C 
BRANCH  18  20
ATOM     19  C   UNL     1       6.946   1.585  28.284  0.00  0.00    +0.104 C 
ATOM     20  N   UNL     1       5.583   1.637  27.752  0.00  0.00    -0.308 NA
ATOM     21  C   UNL     1       5.515   2.651  26.696  0.00  0.00    +0.104 C 
ENDBRANCH  18  20
ENDBRANCH  17  18
ENDBRANCH   1  17
BRANCH   5  22
ATOM     22  C   UNL     1       8.673   3.008  24.596  0.00  0.00    +0.155 C 
BRANCH  22  23
ATOM     23  C   UNL     1       8.547   3.751  23.279  0.00  0.00    +0.309 C 
ATOM     24  O   UNL     1       8.018   3.237  22.298  0.00  0.00    -0.251 OA
BRANCH  23  25
ATOM     25  O   UNL     1       9.070   4.988  23.213  0.00  0.00    -0.480 OA
ATOM     26  H   UNL     1       9.107   5.376  22.319  0.00  0.00    +0.295 HD
ENDBRANCH  23  25
ENDBRANCH  22  23
ENDBRANCH   5  22
TORSDOF 6
ENDMDL
MODEL 9
REMARK VINA RESULT:      -5.6      2.553      3.215
REMARK  Name = 
REMARK  8 active torsions:
REMARK  status: ('A' for Active; 'I' for Inactive)
REMARK    1  A    between atoms: C_1  and  N_2
REMARK    2  A    between atoms: N_2  and  C_3
REMARK    3  A    between atoms: N_2  and  C_4
REMARK    4  A    between atoms: C_4  and  C_5
REMARK    5  A    between atoms: C_5  and  C_6
REMARK    6  A    between atoms: C_19  and  C_20
REMARK    7  A    between atoms: C_20  and  C_21
REMARK    8  A    between atoms: C_21  and  O_22
REMARK                            x       y       z     vdW  Elec       q    Type
REMARK                         _______ _______ _______ _____ _____    ______ ____
ROOT
ATOM      1  C   UNL     1       8.053  -1.637  22.425  0.00  0.00    -0.017 C 
ATOM      2  C   UNL     1       7.611  -0.771  23.371  0.00  0.00    -0.011 C 
ATOM      3  C   UNL     1       6.838  -1.239  24.554  0.00  0.00    +0.024 A 
ATOM      4  C   UNL     1       5.657  -1.983  24.324  0.00  0.00    +0.016 A 
ATOM      5  C   UNL     1       4.900  -2.523  25.375  0.00  0.00    -0.036 A 
ATOM      6  C   UNL     1       5.298  -2.244  26.684  0.00  0.00    +0.008 A 
ATOM      7  C   UNL     1       6.411  -1.436  26.927  0.00  0.00    +0.046 A 
ATOM      8  C   UNL     1       7.190  -0.931  25.877  0.00  0.00    +0.129 A 
ATOM      9  O   UNL     1       8.209  -0.124  26.315  0.00  0.00    -0.487 OA
ATOM     10  C   UNL     1       9.279   0.193  25.424  0.00  0.00    +0.265 C 
ATOM     11  C   UNL     1       8.864   1.130  24.318  0.00  0.00    -0.003 A 
ATOM     12  C   UNL     1       9.249   2.478  24.311  0.00  0.00    +0.007 A 
ATOM     13  C   UNL     1       8.839   3.319  23.275  0.00  0.00    +0.000 A 
ATOM     14  C   UNL     1       8.045   2.821  22.242  0.00  0.00    +0.001 A 
ATOM     15  C   UNL     1       7.654   1.481  22.242  0.00  0.00    +0.009 A 
ATOM     16  C   UNL     1       8.059   0.634  23.278  0.00  0.00    -0.011 A 
ENDROOT
BRANCH   1  17
ATOM     17  C   UNL     1       7.852  -3.135  22.435  0.00  0.00    +0.043 C 
BRANCH  17  18
ATOM     18  C   UNL     1       6.655  -3.636  21.607  0.00  0.00    +0.088 C 
BRANCH  18  20
ATOM     19  C   UNL     1       6.195  -5.858  20.782  0.00  0.00    +0.104 C 
ATOM     20  N   UNL     1       6.247  -5.009  21.973  0.00  0.00    -0.308 NA
ATOM     21  C   UNL     1       7.131  -5.624  22.967  0.00  0.00    +0.104 C 
ENDBRANCH  18  20
ENDBRANCH  17  18
ENDBRANCH   1  17
BRANCH   5  22
ATOM     22  C   UNL     1       3.639  -3.315  25.108  0.00  0.00    +0.155 C 
BRANCH  22  23
ATOM     23  C   UNL     1       3.757  -4.663  24.421  0.00  0.00    +0.309 C 
ATOM     24  O   UNL     1       4.152  -5.659  25.021  0.00  0.00    -0.251 OA
BRANCH  23  25
ATOM     25  O   UNL     1       3.445  -4.723  23.115  0.00  0.00    -0.480 OA
ATOM     26  H   UNL     1       3.798  -3.994  22.571  0.00  0.00    +0.295 HD
ENDBRANCH  23  25
ENDBRANCH  22  23
ENDBRANCH   5  22
TORSDOF 6
ENDMDL
