MODEL 1
REMARK VINA RESULT:      -8.1      0.000      0.000
REMARK  Name = 
REMARK  8 active torsions:
REMARK  status: ('A' for Active; 'I' for Inactive)
REMARK    1  A    between atoms: C_1  and  C_2
REMARK    2  A    between atoms: C_10  and  C_12
REMARK    3  A    between atoms: C_12  and  C_14
REMARK    4  A    between atoms: C_12  and  N_24
REMARK    5  A    between atoms: C_14  and  C_15
REMARK    6  A    between atoms: C_19  and  C_21
REMARK    7  A    between atoms: N_24  and  S_25
REMARK    8  A    between atoms: S_25  and  C_28
REMARK                            x       y       z     vdW  Elec       q    Type
REMARK                         _______ _______ _______ _____ _____    ______ ____
ROOT
ATOM      1  C   UNL     1       8.008  -3.257  23.941  0.00  0.00    +0.166 C 
ENDROOT
BRANCH   1   8
ATOM      2  C   UNL     1      10.102   3.930  23.743  0.00  0.00    +0.109 C 
ATOM      3  C   UNL     1       8.976   3.102  24.305  0.00  0.00    +0.213 C 
ATOM      4  N   UNL     1       8.889   1.783  23.892  0.00  0.00    -0.299 N 
ATOM      5  C   UNL     1       7.768   0.954  24.349  0.00  0.00    +0.126 C 
ATOM      6  C   UNL     1       8.256  -0.393  24.900  0.00  0.00    +0.127 C 
ATOM      7  N   UNL     1       9.201  -1.050  23.982  0.00  0.00    -0.297 N 
ATOM      8  C   UNL     1       9.258  -2.404  23.708  0.00  0.00    +0.235 C 
ATOM      9  O   UNL     1      10.289  -2.922  23.269  0.00  0.00    -0.274 OA
ATOM     10  C   UNL     1      10.320  -0.201  23.554  0.00  0.00    +0.127 C 
ATOM     11  C   UNL     1       9.804   1.116  22.958  0.00  0.00    +0.126 C 
ATOM     12  O   UNL     1       8.182   3.600  25.100  0.00  0.00    -0.276 OA
ENDBRANCH   1   8
BRANCH   1  13
ATOM     13  N   UNL     1       7.643  -4.041  22.723  0.00  0.00    -0.178 NA
ATOM     14  H   UNL     1       7.906  -5.027  22.738  0.00  0.00    +0.149 HD
BRANCH  13  15
ATOM     15  S   UNL     1       6.060  -3.909  22.160  0.00  0.00    +0.059 S 
ATOM     16  O   UNL     1       5.990  -4.610  20.896  0.00  0.00    -0.153 OA
ATOM     17  O   UNL     1       5.730  -2.504  22.261  0.00  0.00    -0.153 OA
BRANCH  15  18
ATOM     18  C   UNL     1       5.071  -4.759  23.353  0.00  0.00    +0.106 A 
ATOM     19  C   UNL     1       4.049  -4.066  24.011  0.00  0.00    +0.037 A 
ATOM     20  C   UNL     1       3.283  -4.704  24.996  0.00  0.00    -0.016 A 
ATOM     21  C   UNL     1       3.554  -6.055  25.319  0.00  0.00    -0.018 A 
ATOM     22  C   UNL     1       2.799  -6.678  26.326  0.00  0.00    +0.008 A 
ATOM     23  C   UNL     1       1.799  -5.978  27.006  0.00  0.00    +0.001 A 
ATOM     24  C   UNL     1       1.529  -4.653  26.679  0.00  0.00    +0.001 A 
ATOM     25  C   UNL     1       4.578  -6.738  24.638  0.00  0.00    +0.010 A 
ATOM     26  C   UNL     1       2.263  -4.020  25.675  0.00  0.00    +0.008 A 
ATOM     27  C   UNL     1       5.341  -6.092  23.660  0.00  0.00    +0.029 A 
ENDBRANCH  15  18
ENDBRANCH  13  15
ENDBRANCH   1  13
BRANCH   1  28
ATOM     28  C   UNL     1       8.302  -4.201  25.123  0.00  0.00    +0.065 C 
BRANCH  28  29
ATOM     29  C   UNL     1       7.183  -4.198  26.139  0.00  0.00    -0.045 A 
ATOM     30  C   UNL     1       7.002  -5.289  27.001  0.00  0.00    +0.019 A 
ATOM     31  C   UNL     1       6.069  -5.218  28.041  0.00  0.00    +0.065 A 
ATOM     32  C   UNL     1       5.292  -4.068  28.207  0.00  0.00    +0.016 A 
ATOM     33  C   UNL     1       5.442  -2.995  27.328  0.00  0.00    +0.001 A 
ATOM     34  C   UNL     1       6.377  -3.060  26.296  0.00  0.00    +0.004 A 
BRANCH  31  35
ATOM     35  C   UNL     1       5.932  -6.365  28.978  0.00  0.00    +0.308 C 
ATOM     36  N   UNL     1       6.250  -6.293  30.231  0.00  0.00    -0.099 NA
ATOM     37  H   UNL     1       6.638  -5.374  30.464  0.00  0.00    +0.363 HD
ATOM     38  N   UNL     1       5.464  -7.567  28.533  0.00  0.00    -0.247 N 
ATOM     39  H   UNL     1       5.253  -8.174  29.320  0.00  0.00    +0.288 HD
ATOM     40  H   UNL     1       4.697  -7.518  27.873  0.00  0.00    +0.288 HD
ENDBRANCH  31  35
ENDBRANCH  28  29
ENDBRANCH   1  28
TORSDOF 7
ENDMDL
MODEL 2
REMARK VINA RESULT:      -7.6      1.925      2.389
REMARK  Name = 
REMARK  8 active torsions:
REMARK  status: ('A' for Active; 'I' for Inactive)
REMARK    1  A    between atoms: C_1  and  C_2
REMARK    2  A    between atoms: C_10  and  C_12
REMARK    3  A    between atoms: C_12  and  C_14
REMARK    4  A    between atoms: C_12  and  N_24
REMARK    5  A    between atoms: C_14  and  C_15
REMARK    6  A    between atoms: C_19  and  C_21
REMARK    7  A    between atoms: N_24  and  S_25
REMARK    8  A    between atoms: S_25  and  C_28
REMARK                            x       y       z     vdW  Elec       q    Type
REMARK                         _______ _______ _______ _____ _____    ______ ____
ROOT
ATOM      1  C   UNL     1       7.589  -4.405  24.345  0.00  0.00    +0.166 C 
ENDROOT
BRANCH   1   8
ATOM      2  C   UNL     1      10.222   2.228  22.074  0.00  0.00    +0.109 C 
ATOM      3  C   UNL     1       8.899   1.612  22.449  0.00  0.00    +0.213 C 
ATOM      4  N   UNL     1       8.859   0.236  22.604  0.00  0.00    -0.299 N 
ATOM      5  C   UNL     1       7.581  -0.423  22.893  0.00  0.00    +0.126 C 
ATOM      6  C   UNL     1       7.705  -1.388  24.082  0.00  0.00    +0.127 C 
ATOM      7  N   UNL     1       8.865  -2.282  23.941  0.00  0.00    -0.297 N 
ATOM      8  C   UNL     1       8.903  -3.622  24.282  0.00  0.00    +0.235 C 
ATOM      9  O   UNL     1       9.974  -4.190  24.517  0.00  0.00    -0.274 OA
ATOM     10  C   UNL     1      10.132  -1.593  23.668  0.00  0.00    +0.127 C 
ATOM     11  C   UNL     1       9.998  -0.677  22.443  0.00  0.00    +0.126 C 
ATOM     12  O   UNL     1       7.910   2.324  22.608  0.00  0.00    -0.276 OA
ENDBRANCH   1   8
BRANCH   1  13
ATOM     13  N   UNL     1       7.411  -5.278  23.147  0.00  0.00    -0.178 NA
ATOM     14  H   UNL     1       7.616  -6.267  23.288  0.00  0.00    +0.149 HD
BRANCH  13  15
ATOM     15  S   UNL     1       5.965  -5.139  22.292  0.00  0.00    +0.059 S 
ATOM     16  O   UNL     1       5.968  -6.160  21.266  0.00  0.00    -0.153 OA
ATOM     17  O   UNL     1       5.846  -3.737  21.959  0.00  0.00    -0.153 OA
BRANCH  15  18
ATOM     18  C   UNL     1       4.695  -5.500  23.468  0.00  0.00    +0.106 A 
ATOM     19  C   UNL     1       3.801  -4.490  23.838  0.00  0.00    +0.037 A 
ATOM     20  C   UNL     1       2.816  -4.737  24.804  0.00  0.00    -0.016 A 
ATOM     21  C   UNL     1       2.736  -6.018  25.402  0.00  0.00    -0.018 A 
ATOM     22  C   UNL     1       1.763  -6.249  26.388  0.00  0.00    +0.008 A 
ATOM     23  C   UNL     1       0.889  -5.232  26.782  0.00  0.00    +0.001 A 
ATOM     24  C   UNL     1       0.965  -3.977  26.185  0.00  0.00    +0.001 A 
ATOM     25  C   UNL     1       3.636  -7.023  25.006  0.00  0.00    +0.010 A 
ATOM     26  C   UNL     1       1.919  -3.732  25.197  0.00  0.00    +0.008 A 
ATOM     27  C   UNL     1       4.620  -6.767  24.046  0.00  0.00    +0.029 A 
ENDBRANCH  15  18
ENDBRANCH  13  15
ENDBRANCH   1  13
BRANCH   1  28
ATOM     28  C   UNL     1       7.612  -5.251  25.632  0.00  0.00    +0.065 C 
BRANCH  28  29
ATOM     29  C   UNL     1       6.541  -4.823  26.609  0.00  0.00    -0.045 A 
ATOM     30  C   UNL     1       6.004  -3.528  26.552  0.00  0.00    +0.019 A 
ATOM     31  C   UNL     1       4.907  -3.184  27.349  0.00  0.00    +0.065 A 
ATOM     32  C   UNL     1       4.358  -4.123  28.227  0.00  0.00    +0.016 A 
ATOM     33  C   UNL     1       4.914  -5.401  28.315  0.00  0.00    +0.001 A 
ATOM     34  C   UNL     1       6.001  -5.747  27.514  0.00  0.00    +0.004 A 
BRANCH  31  35
ATOM     35  C   UNL     1       4.319  -1.822  27.233  0.00  0.00    +0.308 C 
ATOM     36  N   UNL     1       4.330  -1.143  26.131  0.00  0.00    -0.099 NA
ATOM     37  H   UNL     1       4.825  -1.646  25.389  0.00  0.00    +0.363 HD
ATOM     38  N   UNL     1       3.743  -1.226  28.316  0.00  0.00    -0.247 N 
ATOM     39  H   UNL     1       3.229  -0.398  28.027  0.00  0.00    +0.288 HD
ATOM     40  H   UNL     1       3.185  -1.834  28.903  0.00  0.00    +0.288 HD
ENDBRANCH  31  35
ENDBRANCH  28  29
ENDBRANCH   1  28
TORSDOF 7
ENDMDL
MODEL 3
REMARK VINA RESULT:      -7.6      2.968      4.315
REMARK  Name = 
REMARK  8 active torsions:
REMARK  status: ('A' for Active; 'I' for Inactive)
REMARK    1  A    between atoms: C_1  and  C_2
REMARK    2  A    between atoms: C_10  and  C_12
REMARK    3  A    between atoms: C_12  and  C_14
REMARK    4  A    between atoms: C_12  and  N_24
REMARK    5  A    between atoms: C_14  and  C_15
REMARK    6  A    between atoms: C_19  and  C_21
REMARK    7  A    between atoms: N_24  and  S_25
REMARK    8  A    between atoms: S_25  and  C_28
REMARK                            x       y       z     vdW  Elec       q    Type
REMARK                         _______ _______ _______ _____ _____    ______ ____
ROOT
ATOM      1  C   UNL     1       7.842  -0.162  23.345  0.00  0.00    +0.166 C 
ENDROOT
BRANCH   1   8
ATOM      2  C   UNL     1       7.929   7.107  25.143  0.00  0.00    +0.109 C 
ATOM      3  C   UNL     1       8.054   5.776  25.836  0.00  0.00    +0.213 C 
ATOM      4  N   UNL     1       7.748   4.643  25.100  0.00  0.00    -0.299 N 
ATOM      5  C   UNL     1       7.779   3.328  25.749  0.00  0.00    +0.126 C 
ATOM      6  C   UNL     1       8.586   2.316  24.923  0.00  0.00    +0.127 C 
ATOM      7  N   UNL     1       8.183   2.319  23.508  0.00  0.00    -0.297 N 
ATOM      8  C   UNL     1       8.065   1.206  22.694  0.00  0.00    +0.235 C 
ATOM      9  O   UNL     1       8.121   1.306  21.466  0.00  0.00    -0.274 OA
ATOM     10  C   UNL     1       8.176   3.647  22.882  0.00  0.00    +0.127 C 
ATOM     11  C   UNL     1       7.318   4.626  23.697  0.00  0.00    +0.126 C 
ATOM     12  O   UNL     1       8.419   5.723  27.010  0.00  0.00    -0.276 OA
ENDBRANCH   1   8
BRANCH   1  13
ATOM     13  N   UNL     1       6.393  -0.418  23.602  0.00  0.00    -0.178 NA
ATOM     14  H   UNL     1       5.961  -1.133  23.017  0.00  0.00    +0.149 HD
BRANCH  13  15
ATOM     15  S   UNL     1       5.920  -0.666  25.201  0.00  0.00    +0.059 S 
ATOM     16  O   UNL     1       4.713   0.104  25.420  0.00  0.00    -0.153 OA
ATOM     17  O   UNL     1       7.108  -0.445  25.995  0.00  0.00    -0.153 OA
BRANCH  15  18
ATOM     18  C   UNL     1       5.538  -2.388  25.310  0.00  0.00    +0.106 A 
ATOM     19  C   UNL     1       4.725  -2.971  24.332  0.00  0.00    +0.037 A 
ATOM     20  C   UNL     1       4.369  -4.323  24.424  0.00  0.00    -0.016 A 
ATOM     21  C   UNL     1       4.839  -5.093  25.515  0.00  0.00    -0.018 A 
ATOM     22  C   UNL     1       4.454  -6.441  25.612  0.00  0.00    +0.008 A 
ATOM     23  C   UNL     1       3.617  -7.016  24.653  0.00  0.00    +0.001 A 
ATOM     24  C   UNL     1       3.164  -6.259  23.577  0.00  0.00    +0.001 A 
ATOM     25  C   UNL     1       5.665  -4.492  26.480  0.00  0.00    +0.010 A 
ATOM     26  C   UNL     1       3.543  -4.921  23.459  0.00  0.00    +0.008 A 
ATOM     27  C   UNL     1       6.012  -3.140  26.385  0.00  0.00    +0.029 A 
ENDBRANCH  15  18
ENDBRANCH  13  15
ENDBRANCH   1  13
BRANCH   1  28
ATOM     28  C   UNL     1       8.419  -1.229  22.395  0.00  0.00    +0.065 C 
BRANCH  28  29
ATOM     29  C   UNL     1       8.240  -2.627  22.943  0.00  0.00    -0.045 A 
ATOM     30  C   UNL     1       7.467  -3.569  22.248  0.00  0.00    +0.019 A 
ATOM     31  C   UNL     1       7.432  -4.902  22.672  0.00  0.00    +0.065 A 
ATOM     32  C   UNL     1       8.145  -5.293  23.809  0.00  0.00    +0.016 A 
ATOM     33  C   UNL     1       8.884  -4.351  24.526  0.00  0.00    +0.001 A 
ATOM     34  C   UNL     1       8.927  -3.025  24.099  0.00  0.00    +0.004 A 
BRANCH  31  35
ATOM     35  C   UNL     1       6.651  -5.896  21.889  0.00  0.00    +0.308 C 
ATOM     36  N   UNL     1       6.411  -7.096  22.313  0.00  0.00    -0.099 NA
ATOM     37  H   UNL     1       6.862  -7.268  23.217  0.00  0.00    +0.363 HD
ATOM     38  N   UNL     1       6.156  -5.570  20.660  0.00  0.00    -0.247 N 
ATOM     39  H   UNL     1       5.496  -6.278  20.349  0.00  0.00    +0.288 HD
ATOM     40  H   UNL     1       5.776  -4.635  20.578  0.00  0.00    +0.288 HD
ENDBRANCH  31  35
ENDBRANCH  28  29
ENDBRANCH   1  28
TORSDOF 7
ENDMDL
MODEL 4
REMARK VINA RESULT:      -7.5      2.689      4.388
REMARK  Name = 
REMARK  8 active torsions:
REMARK  status: ('A' for Active; 'I' for Inactive)
REMARK    1  A    between atoms: C_1  and  C_2
REMARK    2  A    between atoms: C_10  and  C_12
REMARK    3  A    between atoms: C_12  and  C_14
REMARK    4  A    between atoms: C_12  and  N_24
REMARK    5  A    between atoms: C_14  and  C_15
REMARK    6  A    between atoms: C_19  and  C_21
REMARK    7  A    between atoms: N_24  and  S_25
REMARK    8  A    between atoms: S_25  and  C_28
REMARK                            x       y       z     vdW  Elec       q    Type
REMARK                         _______ _______ _______ _____ _____    ______ ____
ROOT
ATOM      1  C   UNL     1       8.782   0.403  24.449  0.00  0.00    +0.166 C 
ENDROOT
BRANCH   1   8
ATOM      2  C   UNL     1       4.630   6.349  22.584  0.00  0.00    +0.109 C 
ATOM      3  C   UNL     1       4.421   4.906  22.963  0.00  0.00    +0.213 C 
ATOM      4  N   UNL     1       5.541   4.093  23.015  0.00  0.00    -0.299 N 
ATOM      5  C   UNL     1       5.385   2.664  23.304  0.00  0.00    +0.126 C 
ATOM      6  C   UNL     1       6.348   2.208  24.410  0.00  0.00    +0.127 C 
ATOM      7  N   UNL     1       7.726   2.660  24.157  0.00  0.00    -0.297 N 
ATOM      8  C   UNL     1       8.877   1.930  24.393  0.00  0.00    +0.235 C 
ATOM      9  O   UNL     1       9.967   2.489  24.541  0.00  0.00    -0.274 OA
ATOM     10  C   UNL     1       7.852   4.097  23.886  0.00  0.00    +0.127 C 
ATOM     11  C   UNL     1       6.920   4.518  22.741  0.00  0.00    +0.126 C 
ATOM     12  O   UNL     1       3.291   4.492  23.214  0.00  0.00    -0.276 OA
ENDBRANCH   1   8
BRANCH   1  13
ATOM     13  N   UNL     1       9.974  -0.245  23.823  0.00  0.00    -0.178 NA
ATOM     14  H   UNL     1      10.546  -0.813  24.448  0.00  0.00    +0.149 HD
BRANCH  13  15
ATOM     15  S   UNL     1       9.733  -1.091  22.386  0.00  0.00    +0.059 S 
ATOM     16  O   UNL     1      10.834  -2.020  22.240  0.00  0.00    -0.153 OA
ATOM     17  O   UNL     1       9.460  -0.084  21.385  0.00  0.00    -0.153 OA
BRANCH  15  18
ATOM     18  C   UNL     1       8.235  -1.998  22.627  0.00  0.00    +0.106 A 
ATOM     19  C   UNL     1       8.295  -3.388  22.776  0.00  0.00    +0.037 A 
ATOM     20  C   UNL     1       7.118  -4.135  22.920  0.00  0.00    -0.016 A 
ATOM     21  C   UNL     1       5.868  -3.470  22.912  0.00  0.00    -0.018 A 
ATOM     22  C   UNL     1       4.693  -4.229  23.030  0.00  0.00    +0.008 A 
ATOM     23  C   UNL     1       4.750  -5.620  23.147  0.00  0.00    +0.001 A 
ATOM     24  C   UNL     1       5.980  -6.270  23.164  0.00  0.00    +0.001 A 
ATOM     25  C   UNL     1       5.831  -2.070  22.774  0.00  0.00    +0.010 A 
ATOM     26  C   UNL     1       7.159  -5.531  23.057  0.00  0.00    +0.008 A 
ATOM     27  C   UNL     1       7.009  -1.333  22.625  0.00  0.00    +0.029 A 
ENDBRANCH  15  18
ENDBRANCH  13  15
ENDBRANCH   1  13
BRANCH   1  28
ATOM     28  C   UNL     1       8.663  -0.002  25.930  0.00  0.00    +0.065 C 
BRANCH  28  29
ATOM     29  C   UNL     1       7.803  -1.233  26.111  0.00  0.00    -0.045 A 
ATOM     30  C   UNL     1       8.392  -2.500  26.229  0.00  0.00    +0.019 A 
ATOM     31  C   UNL     1       7.609  -3.614  26.552  0.00  0.00    +0.065 A 
ATOM     32  C   UNL     1       6.230  -3.471  26.731  0.00  0.00    +0.016 A 
ATOM     33  C   UNL     1       5.634  -2.219  26.576  0.00  0.00    +0.001 A 
ATOM     34  C   UNL     1       6.415  -1.107  26.263  0.00  0.00    +0.004 A 
BRANCH  31  35
ATOM     35  C   UNL     1       8.262  -4.939  26.727  0.00  0.00    +0.308 C 
ATOM     36  N   UNL     1       7.773  -5.871  27.482  0.00  0.00    -0.099 NA
ATOM     37  H   UNL     1       6.924  -5.555  27.959  0.00  0.00    +0.363 HD
ATOM     38  N   UNL     1       9.434  -5.219  26.087  0.00  0.00    -0.247 N 
ATOM     39  H   UNL     1       9.642  -6.212  26.156  0.00  0.00    +0.288 HD
ATOM     40  H   UNL     1       9.501  -4.882  25.134  0.00  0.00    +0.288 HD
ENDBRANCH  31  35
ENDBRANCH  28  29
ENDBRANCH   1  28
TORSDOF 7
ENDMDL
MODEL 5
REMARK VINA RESULT:      -7.5      2.999      5.018
REMARK  Name = 
REMARK  8 active torsions:
REMARK  status: ('A' for Active; 'I' for Inactive)
REMARK    1  A    between atoms: C_1  and  C_2
REMARK    2  A    between atoms: C_10  and  C_12
REMARK    3  A    between atoms: C_12  and  C_14
REMARK    4  A    between atoms: C_12  and  N_24
REMARK    5  A    between atoms: C_14  and  C_15
REMARK    6  A    between atoms: C_19  and  C_21
REMARK    7  A    between atoms: N_24  and  S_25
REMARK    8  A    between atoms: S_25  and  C_28
REMARK                            x       y       z     vdW  Elec       q    Type
REMARK                         _______ _______ _______ _____ _____    ______ ____
ROOT
ATOM      1  C   UNL     1       7.492   0.642  25.781  0.00  0.00    +0.166 C 
ENDROOT
BRANCH   1   8
ATOM      2  C   UNL     1       3.703   6.539  23.145  0.00  0.00    +0.109 C 
ATOM      3  C   UNL     1       3.964   5.106  22.759  0.00  0.00    +0.213 C 
ATOM      4  N   UNL     1       4.942   4.425  23.465  0.00  0.00    -0.299 N 
ATOM      5  C   UNL     1       5.289   3.053  23.080  0.00  0.00    +0.126 C 
ATOM      6  C   UNL     1       5.300   2.116  24.297  0.00  0.00    +0.127 C 
ATOM      7  N   UNL     1       6.074   2.679  25.415  0.00  0.00    -0.297 N 
ATOM      8  C   UNL     1       6.907   1.972  26.263  0.00  0.00    +0.235 C 
ATOM      9  O   UNL     1       7.193   2.406  27.382  0.00  0.00    -0.274 OA
ATOM     10  C   UNL     1       5.693   4.047  25.787  0.00  0.00    +0.127 C 
ATOM     11  C   UNL     1       5.743   4.976  24.565  0.00  0.00    +0.126 C 
ATOM     12  O   UNL     1       3.319   4.584  21.852  0.00  0.00    -0.276 OA
ENDBRANCH   1   8
BRANCH   1  13
ATOM     13  N   UNL     1       8.946   0.765  25.461  0.00  0.00    -0.178 NA
ATOM     14  H   UNL     1       9.583   0.323  26.124  0.00  0.00    +0.149 HD
BRANCH  13  15
ATOM     15  S   UNL     1       9.433   0.371  23.896  0.00  0.00    +0.059 S 
ATOM     16  O   UNL     1      10.879   0.440  23.861  0.00  0.00    -0.153 OA
ATOM     17  O   UNL     1       8.619   1.186  23.021  0.00  0.00    -0.153 OA
BRANCH  15  18
ATOM     18  C   UNL     1       8.924  -1.305  23.660  0.00  0.00    +0.106 A 
ATOM     19  C   UNL     1       7.783  -1.571  22.895  0.00  0.00    +0.037 A 
ATOM     20  C   UNL     1       7.332  -2.888  22.734  0.00  0.00    -0.016 A 
ATOM     21  C   UNL     1       8.041  -3.946  23.353  0.00  0.00    -0.018 A 
ATOM     22  C   UNL     1       7.566  -5.260  23.208  0.00  0.00    +0.008 A 
ATOM     23  C   UNL     1       6.409  -5.524  22.471  0.00  0.00    +0.001 A 
ATOM     24  C   UNL     1       5.720  -4.483  21.856  0.00  0.00    +0.001 A 
ATOM     25  C   UNL     1       9.193  -3.658  24.108  0.00  0.00    +0.010 A 
ATOM     26  C   UNL     1       6.182  -3.172  21.982  0.00  0.00    +0.008 A 
ATOM     27  C   UNL     1       9.633  -2.341  24.268  0.00  0.00    +0.029 A 
ENDBRANCH  15  18
ENDBRANCH  13  15
ENDBRANCH   1  13
BRANCH   1  28
ATOM     28  C   UNL     1       7.271  -0.396  26.899  0.00  0.00    +0.065 C 
BRANCH  28  29
ATOM     29  C   UNL     1       6.552  -1.625  26.392  0.00  0.00    -0.045 A 
ATOM     30  C   UNL     1       6.998  -2.906  26.746  0.00  0.00    +0.019 A 
ATOM     31  C   UNL     1       6.242  -4.035  26.408  0.00  0.00    +0.065 A 
ATOM     32  C   UNL     1       5.052  -3.890  25.689  0.00  0.00    +0.016 A 
ATOM     33  C   UNL     1       4.625  -2.619  25.301  0.00  0.00    +0.001 A 
ATOM     34  C   UNL     1       5.372  -1.494  25.645  0.00  0.00    +0.004 A 
BRANCH  31  35
ATOM     35  C   UNL     1       6.706  -5.380  26.842  0.00  0.00    +0.308 C 
ATOM     36  N   UNL     1       7.945  -5.645  27.109  0.00  0.00    -0.099 NA
ATOM     37  H   UNL     1       8.544  -4.832  26.940  0.00  0.00    +0.363 HD
ATOM     38  N   UNL     1       5.818  -6.408  26.966  0.00  0.00    -0.247 N 
ATOM     39  H   UNL     1       6.253  -7.190  27.448  0.00  0.00    +0.288 HD
ATOM     40  H   UNL     1       4.922  -6.163  27.371  0.00  0.00    +0.288 HD
ENDBRANCH  31  35
ENDBRANCH  28  29
ENDBRANCH   1  28
TORSDOF 7
ENDMDL
MODEL 6
REMARK VINA RESULT:      -7.5      2.742      4.017
REMARK  Name = 
REMARK  8 active torsions:
REMARK  status: ('A' for Active; 'I' for Inactive)
REMARK    1  A    between atoms: C_1  and  C_2
REMARK    2  A    between atoms: C_10  and  C_12
REMARK    3  A    between atoms: C_12  and  C_14
REMARK    4  A    between atoms: C_12  and  N_24
REMARK    5  A    between atoms: C_14  and  C_15
REMARK    6  A    between atoms: C_19  and  C_21
REMARK    7  A    between atoms: N_24  and  S_25
REMARK    8  A    between atoms: S_25  and  C_28
REMARK                            x       y       z     vdW  Elec       q    Type
REMARK                         _______ _______ _______ _____ _____    ______ ____
ROOT
ATOM      1  C   UNL     1       7.175  -0.225  23.497  0.00  0.00    +0.166 C 
ENDROOT
BRANCH   1   8
ATOM      2  C   UNL     1      11.254   6.054  23.362  0.00  0.00    +0.109 C 
ATOM      3  C   UNL     1      11.475   4.573  23.526  0.00  0.00    +0.213 C 
ATOM      4  N   UNL     1      10.355   3.778  23.705  0.00  0.00    -0.299 N 
ATOM      5  C   UNL     1      10.518   2.341  23.947  0.00  0.00    +0.126 C 
ATOM      6  C   UNL     1       9.613   1.512  23.024  0.00  0.00    +0.127 C 
ATOM      7  N   UNL     1       8.226   2.005  23.030  0.00  0.00    -0.297 N 
ATOM      8  C   UNL     1       7.086   1.223  23.006  0.00  0.00    +0.235 C 
ATOM      9  O   UNL     1       6.009   1.679  22.613  0.00  0.00    -0.274 OA
ATOM     10  C   UNL     1       8.094   3.444  22.770  0.00  0.00    +0.127 C 
ATOM     11  C   UNL     1       8.966   4.253  23.740  0.00  0.00    +0.126 C 
ATOM     12  O   UNL     1      12.615   4.112  23.497  0.00  0.00    -0.276 OA
ENDBRANCH   1   8
BRANCH   1  13
ATOM     13  N   UNL     1       5.832  -0.761  23.870  0.00  0.00    -0.178 NA
ATOM     14  H   UNL     1       5.473  -1.507  23.273  0.00  0.00    +0.149 HD
BRANCH  13  15
ATOM     15  S   UNL     1       5.587  -1.190  25.482  0.00  0.00    +0.059 S 
ATOM     16  O   UNL     1       4.439  -0.449  25.958  0.00  0.00    -0.153 OA
ATOM     17  O   UNL     1       6.881  -1.064  26.116  0.00  0.00    -0.153 OA
BRANCH  15  18
ATOM     18  C   UNL     1       5.195  -2.913  25.449  0.00  0.00    +0.106 A 
ATOM     19  C   UNL     1       4.361  -3.404  24.438  0.00  0.00    +0.037 A 
ATOM     20  C   UNL     1       3.996  -4.757  24.418  0.00  0.00    -0.016 A 
ATOM     21  C   UNL     1       4.477  -5.621  25.431  0.00  0.00    -0.018 A 
ATOM     22  C   UNL     1       4.084  -6.970  25.418  0.00  0.00    +0.008 A 
ATOM     23  C   UNL     1       3.227  -7.455  24.427  0.00  0.00    +0.001 A 
ATOM     24  C   UNL     1       2.763  -6.605  23.428  0.00  0.00    +0.001 A 
ATOM     25  C   UNL     1       5.324  -5.110  26.431  0.00  0.00    +0.010 A 
ATOM     26  C   UNL     1       3.150  -5.264  23.420  0.00  0.00    +0.008 A 
ATOM     27  C   UNL     1       5.679  -3.758  26.447  0.00  0.00    +0.029 A 
ENDBRANCH  15  18
ENDBRANCH  13  15
ENDBRANCH   1  13
BRANCH   1  28
ATOM     28  C   UNL     1       7.795  -1.063  22.363  0.00  0.00    +0.065 C 
BRANCH  28  29
ATOM     29  C   UNL     1       7.868  -2.530  22.722  0.00  0.00    -0.045 A 
ATOM     30  C   UNL     1       8.621  -2.955  23.826  0.00  0.00    +0.019 A 
ATOM     31  C   UNL     1       8.560  -4.288  24.250  0.00  0.00    +0.065 A 
ATOM     32  C   UNL     1       7.769  -5.207  23.555  0.00  0.00    +0.016 A 
ATOM     33  C   UNL     1       7.048  -4.797  22.433  0.00  0.00    +0.001 A 
ATOM     34  C   UNL     1       7.100  -3.468  22.016  0.00  0.00    +0.004 A 
BRANCH  31  35
ATOM     35  C   UNL     1       9.324  -4.705  25.456  0.00  0.00    +0.308 C 
ATOM     36  N   UNL     1      10.257  -5.603  25.423  0.00  0.00    -0.099 NA
ATOM     37  H   UNL     1      10.356  -6.002  24.484  0.00  0.00    +0.363 HD
ATOM     38  N   UNL     1       9.053  -4.147  26.670  0.00  0.00    -0.247 N 
ATOM     39  H   UNL     1       9.778  -4.393  27.339  0.00  0.00    +0.288 HD
ATOM     40  H   UNL     1       8.868  -3.151  26.661  0.00  0.00    +0.288 HD
ENDBRANCH  31  35
ENDBRANCH  28  29
ENDBRANCH   1  28
TORSDOF 7
ENDMDL
MODEL 7
REMARK VINA RESULT:      -7.3      2.710      8.291
REMARK  Name = 
REMARK  8 active torsions:
REMARK  status: ('A' for Active; 'I' for Inactive)
REMARK    1  A    between atoms: C_1  and  C_2
REMARK    2  A    between atoms: C_10  and  C_12
REMARK    3  A    between atoms: C_12  and  C_14
REMARK    4  A    between atoms: C_12  and  N_24
REMARK    5  A    between atoms: C_14  and  C_15
REMARK    6  A    between atoms: C_19  and  C_21
REMARK    7  A    between atoms: N_24  and  S_25
REMARK    8  A    between atoms: S_25  and  C_28
REMARK                            x       y       z     vdW  Elec       q    Type
REMARK                         _______ _______ _______ _____ _____    ______ ____
ROOT
ATOM      1  C   UNL     1       5.989  -4.192  23.874  0.00  0.00    +0.166 C 
ENDROOT
BRANCH   1   8
ATOM      2  C   UNL     1       1.082  -7.923  28.128  0.00  0.00    +0.109 C 
ATOM      3  C   UNL     1       2.264  -7.007  28.314  0.00  0.00    +0.213 C 
ATOM      4  N   UNL     1       3.029  -6.719  27.196  0.00  0.00    -0.299 N 
ATOM      5  C   UNL     1       4.234  -5.896  27.336  0.00  0.00    +0.126 C 
ATOM      6  C   UNL     1       4.262  -4.764  26.298  0.00  0.00    +0.127 C 
ATOM      7  N   UNL     1       3.983  -5.258  24.941  0.00  0.00    -0.297 N 
ATOM      8  C   UNL     1       4.602  -4.835  23.779  0.00  0.00    +0.235 C 
ATOM      9  O   UNL     1       4.062  -4.982  22.679  0.00  0.00    -0.274 OA
ATOM     10  C   UNL     1       2.763  -6.067  24.829  0.00  0.00    +0.127 C 
ATOM     11  C   UNL     1       2.783  -7.223  25.839  0.00  0.00    +0.126 C 
ATOM     12  O   UNL     1       2.516  -6.544  29.425  0.00  0.00    -0.276 OA
ENDBRANCH   1   8
BRANCH   1  13
ATOM     13  N   UNL     1       7.075  -5.210  23.757  0.00  0.00    -0.178 NA
ATOM     14  H   UNL     1       7.493  -5.304  22.831  0.00  0.00    +0.149 HD
BRANCH  13  15
ATOM     15  S   UNL     1       8.306  -5.168  24.907  0.00  0.00    +0.059 S 
ATOM     16  O   UNL     1       9.445  -5.866  24.348  0.00  0.00    -0.153 OA
ATOM     17  O   UNL     1       7.694  -5.597  26.145  0.00  0.00    -0.153 OA
BRANCH  15  18
ATOM     18  C   UNL     1       8.707  -3.457  25.095  0.00  0.00    +0.106 A 
ATOM     19  C   UNL     1       9.392  -2.799  24.067  0.00  0.00    +0.037 A 
ATOM     20  C   UNL     1       9.765  -1.456  24.213  0.00  0.00    -0.016 A 
ATOM     21  C   UNL     1       9.441  -0.772  25.410  0.00  0.00    -0.018 A 
ATOM     22  C   UNL     1       9.842   0.566  25.557  0.00  0.00    +0.008 A 
ATOM     23  C   UNL     1      10.554   1.215  24.545  0.00  0.00    +0.001 A 
ATOM     24  C   UNL     1      10.861   0.542  23.366  0.00  0.00    +0.001 A 
ATOM     25  C   UNL     1       8.741  -1.447  26.425  0.00  0.00    +0.010 A 
ATOM     26  C   UNL     1      10.464  -0.785  23.198  0.00  0.00    +0.008 A 
ATOM     27  C   UNL     1       8.378  -2.789  26.275  0.00  0.00    +0.029 A 
ENDBRANCH  15  18
ENDBRANCH  13  15
ENDBRANCH   1  13
BRANCH   1  28
ATOM     28  C   UNL     1       6.098  -3.152  22.743  0.00  0.00    +0.065 C 
BRANCH  28  29
ATOM     29  C   UNL     1       6.253  -1.748  23.282  0.00  0.00    -0.045 A 
ATOM     30  C   UNL     1       6.876  -0.755  22.512  0.00  0.00    +0.019 A 
ATOM     31  C   UNL     1       6.878   0.576  22.945  0.00  0.00    +0.065 A 
ATOM     32  C   UNL     1       6.282   0.916  24.163  0.00  0.00    +0.016 A 
ATOM     33  C   UNL     1       5.695  -0.075  24.951  0.00  0.00    +0.001 A 
ATOM     34  C   UNL     1       5.684  -1.400  24.516  0.00  0.00    +0.004 A 
BRANCH  31  35
ATOM     35  C   UNL     1       7.496   1.621  22.086  0.00  0.00    +0.308 C 
ATOM     36  N   UNL     1       7.234   2.883  22.215  0.00  0.00    -0.099 NA
ATOM     37  H   UNL     1       6.530   3.045  22.941  0.00  0.00    +0.363 HD
ATOM     38  N   UNL     1       8.374   1.274  21.102  0.00  0.00    -0.247 N 
ATOM     39  H   UNL     1       8.843   2.101  20.743  0.00  0.00    +0.288 HD
ATOM     40  H   UNL     1       9.029   0.540  21.342  0.00  0.00    +0.288 HD
ENDBRANCH  31  35
ENDBRANCH  28  29
ENDBRANCH   1  28
TORSDOF 7
ENDMDL
MODEL 8
REMARK VINA RESULT:      -7.3      2.812      3.995
REMARK  Name = 
REMARK  8 active torsions:
REMARK  status: ('A' for Active; 'I' for Inactive)
REMARK    1  A    between atoms: C_1  and  C_2
REMARK    2  A    between atoms: C_10  and  C_12
REMARK    3  A    between atoms: C_12  and  C_14
REMARK    4  A    between atoms: C_12  and  N_24
REMARK    5  A    between atoms: C_14  and  C_15
REMARK    6  A    between atoms: C_19  and  C_21
REMARK    7  A    between atoms: N_24  and  S_25
REMARK    8  A    between atoms: S_25  and  C_28
REMARK                            x       y       z     vdW  Elec       q    Type
REMARK                         _______ _______ _______ _____ _____    ______ ____
ROOT
ATOM      1  C   UNL     1       6.932  -0.649  24.892  0.00  0.00    +0.166 C 
ENDROOT
BRANCH   1   8
ATOM      2  C   UNL     1       8.373   6.396  22.800  0.00  0.00    +0.109 C 
ATOM      3  C   UNL     1       7.180   5.487  22.942  0.00  0.00    +0.213 C 
ATOM      4  N   UNL     1       7.427   4.143  23.167  0.00  0.00    -0.299 N 
ATOM      5  C   UNL     1       6.305   3.202  23.235  0.00  0.00    +0.126 C 
ATOM      6  C   UNL     1       6.400   2.306  24.479  0.00  0.00    +0.127 C 
ATOM      7  N   UNL     1       7.739   1.712  24.625  0.00  0.00    -0.297 N 
ATOM      8  C   UNL     1       8.014   0.423  25.044  0.00  0.00    +0.235 C 
ATOM      9  O   UNL     1       9.115   0.130  25.519  0.00  0.00    -0.274 OA
ATOM     10  C   UNL     1       8.841   2.680  24.567  0.00  0.00    +0.127 C 
ATOM     11  C   UNL     1       8.754   3.526  23.289  0.00  0.00    +0.126 C 
ATOM     12  O   UNL     1       6.042   5.945  22.859  0.00  0.00    -0.276 OA
ENDBRANCH   1   8
BRANCH   1  13
ATOM     13  N   UNL     1       5.580  -0.118  25.240  0.00  0.00    -0.178 NA
ATOM     14  H   UNL     1       4.930  -0.019  24.460  0.00  0.00    +0.149 HD
BRANCH  13  15
ATOM     15  S   UNL     1       4.771  -0.838  26.532  0.00  0.00    +0.059 S 
ATOM     16  O   UNL     1       3.405  -0.358  26.510  0.00  0.00    -0.153 OA
ATOM     17  O   UNL     1       5.623  -0.634  27.683  0.00  0.00    -0.153 OA
BRANCH  15  18
ATOM     18  C   UNL     1       4.785  -2.570  26.180  0.00  0.00    +0.106 A 
ATOM     19  C   UNL     1       4.123  -3.041  25.041  0.00  0.00    +0.037 A 
ATOM     20  C   UNL     1       4.078  -4.414  24.766  0.00  0.00    -0.016 A 
ATOM     21  C   UNL     1       4.709  -5.320  25.653  0.00  0.00    -0.018 A 
ATOM     22  C   UNL     1       4.636  -6.697  25.383  0.00  0.00    +0.008 A 
ATOM     23  C   UNL     1       3.948  -7.171  24.263  0.00  0.00    +0.001 A 
ATOM     24  C   UNL     1       3.338  -6.276  23.389  0.00  0.00    +0.001 A 
ATOM     25  C   UNL     1       5.380  -4.826  26.785  0.00  0.00    +0.010 A 
ATOM     26  C   UNL     1       3.407  -4.905  23.636  0.00  0.00    +0.008 A 
ATOM     27  C   UNL     1       5.415  -3.454  27.055  0.00  0.00    +0.029 A 
ENDBRANCH  15  18
ENDBRANCH  13  15
ENDBRANCH   1  13
BRANCH   1  28
ATOM     28  C   UNL     1       6.961  -1.135  23.431  0.00  0.00    +0.065 C 
BRANCH  28  29
ATOM     29  C   UNL     1       7.275  -2.611  23.334  0.00  0.00    -0.045 A 
ATOM     30  C   UNL     1       8.071  -3.233  24.307  0.00  0.00    +0.019 A 
ATOM     31  C   UNL     1       8.231  -4.624  24.304  0.00  0.00    +0.065 A 
ATOM     32  C   UNL     1       7.618  -5.395  23.312  0.00  0.00    +0.016 A 
ATOM     33  C   UNL     1       6.857  -4.776  22.320  0.00  0.00    +0.001 A 
ATOM     34  C   UNL     1       6.690  -3.393  22.327  0.00  0.00    +0.004 A 
BRANCH  31  35
ATOM     35  C   UNL     1       9.034  -5.268  25.377  0.00  0.00    +0.308 C 
ATOM     36  N   UNL     1      10.320  -5.407  25.307  0.00  0.00    -0.099 NA
ATOM     37  H   UNL     1      10.683  -5.061  24.414  0.00  0.00    +0.363 HD
ATOM     38  N   UNL     1       8.425  -5.755  26.496  0.00  0.00    -0.247 N 
ATOM     39  H   UNL     1       9.120  -5.983  27.202  0.00  0.00    +0.288 HD
ATOM     40  H   UNL     1       7.678  -5.182  26.870  0.00  0.00    +0.288 HD
ENDBRANCH  31  35
ENDBRANCH  28  29
ENDBRANCH   1  28
TORSDOF 7
ENDMDL
MODEL 9
REMARK VINA RESULT:      -7.1      2.451      6.145
REMARK  Name = 
REMARK  8 active torsions:
REMARK  status: ('A' for Active; 'I' for Inactive)
REMARK    1  A    between atoms: C_1  and  C_2
REMARK    2  A    between atoms: C_10  and  C_12
REMARK    3  A    between atoms: C_12  and  C_14
REMARK    4  A    between atoms: C_12  and  N_24
REMARK    5  A    between atoms: C_14  and  C_15
REMARK    6  A    between atoms: C_19  and  C_21
REMARK    7  A    between atoms: N_24  and  S_25
REMARK    8  A    between atoms: S_25  and  C_28
REMARK                            x       y       z     vdW  Elec       q    Type
REMARK                         _______ _______ _______ _____ _____    ______ ____
ROOT
ATOM      1  C   UNL     1       8.420  -2.371  25.253  0.00  0.00    +0.166 C 
ENDROOT
BRANCH   1   8
ATOM      2  C   UNL     1       4.583   3.973  26.301  0.00  0.00    +0.109 C 
ATOM      3  C   UNL     1       4.455   2.700  25.506  0.00  0.00    +0.213 C 
ATOM      4  N   UNL     1       5.559   1.866  25.459  0.00  0.00    -0.299 N 
ATOM      5  C   UNL     1       5.515   0.652  24.637  0.00  0.00    +0.126 C 
ATOM      6  C   UNL     1       5.984  -0.578  25.428  0.00  0.00    +0.127 C 
ATOM      7  N   UNL     1       7.256  -0.327  26.126  0.00  0.00    -0.297 N 
ATOM      8  C   UNL     1       8.298  -1.226  26.262  0.00  0.00    +0.235 C 
ATOM      9  O   UNL     1       9.128  -1.106  27.168  0.00  0.00    -0.274 OA
ATOM     10  C   UNL     1       7.265   0.886  26.952  0.00  0.00    +0.127 C 
ATOM     11  C   UNL     1       6.845   2.110  26.125  0.00  0.00    +0.126 C 
ATOM     12  O   UNL     1       3.400   2.434  24.933  0.00  0.00    -0.276 OA
ENDBRANCH   1   8
BRANCH   1  13
ATOM     13  N   UNL     1       9.652  -2.238  24.418  0.00  0.00    -0.178 NA
ATOM     14  H   UNL     1      10.225  -3.078  24.340  0.00  0.00    +0.149 HD
BRANCH  13  15
ATOM     15  S   UNL     1       9.481  -1.553  22.888  0.00  0.00    +0.059 S 
ATOM     16  O   UNL     1       8.231  -2.032  22.335  0.00  0.00    -0.153 OA
ATOM     17  O   UNL     1      10.740  -1.788  22.216  0.00  0.00    -0.153 OA
BRANCH  15  18
ATOM     18  C   UNL     1       9.364   0.188  23.169  0.00  0.00    +0.106 A 
ATOM     19  C   UNL     1       8.329   0.909  22.565  0.00  0.00    +0.037 A 
ATOM     20  C   UNL     1       8.243   2.298  22.733  0.00  0.00    -0.016 A 
ATOM     21  C   UNL     1       9.214   2.963  23.520  0.00  0.00    -0.018 A 
ATOM     22  C   UNL     1       9.135   4.358  23.661  0.00  0.00    +0.008 A 
ATOM     23  C   UNL     1       8.120   5.084  23.032  0.00  0.00    +0.001 A 
ATOM     24  C   UNL     1       7.161   4.425  22.269  0.00  0.00    +0.001 A 
ATOM     25  C   UNL     1      10.240   2.218  24.128  0.00  0.00    +0.010 A 
ATOM     26  C   UNL     1       7.219   3.039  22.124  0.00  0.00    +0.008 A 
ATOM     27  C   UNL     1      10.322   0.834  23.951  0.00  0.00    +0.029 A 
ENDBRANCH  15  18
ENDBRANCH  13  15
ENDBRANCH   1  13
BRANCH   1  28
ATOM     28  C   UNL     1       8.447  -3.691  26.048  0.00  0.00    +0.065 C 
BRANCH  28  29
ATOM     29  C   UNL     1       7.321  -4.615  25.644  0.00  0.00    -0.045 A 
ATOM     30  C   UNL     1       6.664  -5.397  26.604  0.00  0.00    +0.019 A 
ATOM     31  C   UNL     1       5.523  -6.130  26.256  0.00  0.00    +0.065 A 
ATOM     32  C   UNL     1       5.051  -6.107  24.941  0.00  0.00    +0.016 A 
ATOM     33  C   UNL     1       5.725  -5.360  23.973  0.00  0.00    +0.001 A 
ATOM     34  C   UNL     1       6.856  -4.623  24.321  0.00  0.00    +0.004 A 
BRANCH  31  35
ATOM     35  C   UNL     1       4.810  -6.909  27.303  0.00  0.00    +0.308 C 
ATOM     36  N   UNL     1       3.536  -7.139  27.265  0.00  0.00    -0.099 NA
ATOM     37  H   UNL     1       3.100  -6.682  26.458  0.00  0.00    +0.363 HD
ATOM     38  N   UNL     1       5.491  -7.413  28.372  0.00  0.00    -0.247 N 
ATOM     39  H   UNL     1       4.907  -8.069  28.883  0.00  0.00    +0.288 HD
ATOM     40  H   UNL     1       6.404  -7.798  28.165  0.00  0.00    +0.288 HD
ENDBRANCH  31  35
ENDBRANCH  28  29
ENDBRANCH   1  28
TORSDOF 7
ENDMDL
