MODEL 1
REMARK VINA RESULT:      -5.3      0.000      0.000
REMARK  Name = 
REMARK  7 active torsions:
REMARK  status: ('A' for Active; 'I' for Inactive)
REMARK    1  A    between atoms: C_1  and  C_2
REMARK    2  A    between atoms: N_4  and  C_5
REMARK    3  A    between atoms: C_7  and  O_9
REMARK    4  A    between atoms: C_11  and  C_13
REMARK    5  A    between atoms: C_13  and  O_14
REMARK    6  A    between atoms: C_15  and  O_17
REMARK    7  A    between atoms: C_18  and  O_20
REMARK                            x       y       z     vdW  Elec       q    Type
REMARK                         _______ _______ _______ _____ _____    ______ ____
ROOT
ATOM      1  C   UNL     1       9.645  -2.128  23.751  0.00  0.00    +0.160 C 
ATOM      2  C   UNL     1       9.933  -0.828  24.519  0.00  0.00    +0.171 C 
ATOM      3  C   UNL     1       8.736   0.130  24.464  0.00  0.00    +0.176 C 
ATOM      4  C   UNL     1       8.249   0.361  23.022  0.00  0.00    +0.178 C 
ATOM      5  O   UNL     1       8.034  -0.882  22.337  0.00  0.00    -0.341 OA
ATOM      6  C   UNL     1       9.137  -1.790  22.327  0.00  0.00    +0.270 C 
ENDROOT
BRANCH   1   9
ATOM      7  C   UNL     1       8.025  -4.987  25.663  0.00  0.00    +0.109 C 
ATOM      8  C   UNL     1       9.102  -4.246  24.920  0.00  0.00    +0.210 C 
ATOM      9  N   UNL     1       8.715  -3.002  24.477  0.00  0.00    -0.305 N 
ATOM     10  H   UNL     1       7.798  -2.648  24.723  0.00  0.00    +0.149 HD
ATOM     11  O   UNL     1      10.221  -4.710  24.738  0.00  0.00    -0.276 OA
ENDBRANCH   1   9
BRANCH   2  12
ATOM     12  O   UNL     1      11.083  -0.178  23.949  0.00  0.00    -0.387 OA
ATOM     13  H   UNL     1      11.764  -0.882  23.899  0.00  0.00    +0.210 HD
ENDBRANCH   2  12
BRANCH   3  14
ATOM     14  O   UNL     1       9.096   1.355  25.111  0.00  0.00    -0.387 OA
ATOM     15  H   UNL     1       9.268   2.018  24.417  0.00  0.00    +0.210 HD
ENDBRANCH   3  14
BRANCH   6  16
ATOM     16  O   UNL     1      10.166  -1.330  21.465  0.00  0.00    -0.365 OA
ATOM     17  H   UNL     1       9.843  -1.440  20.550  0.00  0.00    +0.213 HD
ENDBRANCH   6  16
BRANCH   4  18
ATOM     18  C   UNL     1       9.092   1.366  22.212  0.00  0.00    +0.190 C 
BRANCH  18  19
ATOM     19  O   UNL     1       8.737   1.305  20.830  0.00  0.00    -0.392 OA
ATOM     20  H   UNL     1       9.086   0.452  20.508  0.00  0.00    +0.210 HD
ENDBRANCH  18  19
ENDBRANCH   4  18
TORSDOF 6
ENDMDL
MODEL 2
REMARK VINA RESULT:      -5.1      1.389      2.764
REMARK  Name = 
REMARK  7 active torsions:
REMARK  status: ('A' for Active; 'I' for Inactive)
REMARK    1  A    between atoms: C_1  and  C_2
REMARK    2  A    between atoms: N_4  and  C_5
REMARK    3  A    between atoms: C_7  and  O_9
REMARK    4  A    between atoms: C_11  and  C_13
REMARK    5  A    between atoms: C_13  and  O_14
REMARK    6  A    between atoms: C_15  and  O_17
REMARK    7  A    between atoms: C_18  and  O_20
REMARK                            x       y       z     vdW  Elec       q    Type
REMARK                         _______ _______ _______ _____ _____    ______ ____
ROOT
ATOM      1  C   UNL     1       8.678  -1.404  24.579  0.00  0.00    +0.160 C 
ATOM      2  C   UNL     1       8.440  -1.122  23.087  0.00  0.00    +0.171 C 
ATOM      3  C   UNL     1       9.743  -0.734  22.376  0.00  0.00    +0.176 C 
ATOM      4  C   UNL     1      10.481   0.401  23.107  0.00  0.00    +0.178 C 
ATOM      5  O   UNL     1      10.643   0.106  24.503  0.00  0.00    -0.341 OA
ATOM      6  C   UNL     1       9.449  -0.221  25.216  0.00  0.00    +0.270 C 
ENDROOT
BRANCH   1   9
ATOM      7  C   UNL     1       9.513  -5.055  25.236  0.00  0.00    +0.109 C 
ATOM      8  C   UNL     1       8.651  -3.835  25.069  0.00  0.00    +0.210 C 
ATOM      9  N   UNL     1       9.359  -2.688  24.794  0.00  0.00    -0.305 N 
ATOM     10  H   UNL     1      10.362  -2.740  24.660  0.00  0.00    +0.149 HD
ATOM     11  O   UNL     1       7.430  -3.869  25.162  0.00  0.00    -0.276 OA
ENDBRANCH   1   9
BRANCH   2  12
ATOM     12  O   UNL     1       7.490  -0.051  22.947  0.00  0.00    -0.387 OA
ATOM     13  H   UNL     1       7.812   0.464  22.176  0.00  0.00    +0.210 HD
ENDBRANCH   2  12
BRANCH   3  14
ATOM     14  O   UNL     1       9.443  -0.392  21.019  0.00  0.00    -0.387 OA
ATOM     15  H   UNL     1       9.819   0.491  20.845  0.00  0.00    +0.210 HD
ENDBRANCH   3  14
BRANCH   6  16
ATOM     16  O   UNL     1       8.640   0.929  25.408  0.00  0.00    -0.365 OA
ATOM     17  H   UNL     1       8.963   1.612  24.788  0.00  0.00    +0.213 HD
ENDBRANCH   6  16
BRANCH   4  18
ATOM     18  C   UNL     1       9.916   1.811  22.844  0.00  0.00    +0.190 C 
BRANCH  18  19
ATOM     19  O   UNL     1      10.193   2.209  21.501  0.00  0.00    -0.392 OA
ATOM     20  H   UNL     1       9.693   3.037  21.364  0.00  0.00    +0.210 HD
ENDBRANCH  18  19
ENDBRANCH   4  18
TORSDOF 6
ENDMDL
MODEL 3
REMARK VINA RESULT:      -5.0      2.260      5.414
REMARK  Name = 
REMARK  7 active torsions:
REMARK  status: ('A' for Active; 'I' for Inactive)
REMARK    1  A    between atoms: C_1  and  C_2
REMARK    2  A    between atoms: N_4  and  C_5
REMARK    3  A    between atoms: C_7  and  O_9
REMARK    4  A    between atoms: C_11  and  C_13
REMARK    5  A    between atoms: C_13  and  O_14
REMARK    6  A    between atoms: C_15  and  O_17
REMARK    7  A    between atoms: C_18  and  O_20
REMARK                            x       y       z     vdW  Elec       q    Type
REMARK                         _______ _______ _______ _____ _____    ______ ____
ROOT
ATOM      1  C   UNL     1       8.810  -3.250  23.713  0.00  0.00    +0.160 C 
ATOM      2  C   UNL     1       7.327  -3.654  23.666  0.00  0.00    +0.171 C 
ATOM      3  C   UNL     1       6.625  -3.355  24.997  0.00  0.00    +0.176 C 
ATOM      4  C   UNL     1       7.386  -3.947  26.196  0.00  0.00    +0.178 C 
ATOM      5  O   UNL     1       8.773  -3.574  26.171  0.00  0.00    -0.341 OA
ATOM      6  C   UNL     1       9.479  -3.870  24.965  0.00  0.00    +0.270 C 
ENDROOT
BRANCH   1   9
ATOM      7  C   UNL     1       9.998   0.280  22.948  0.00  0.00    +0.109 C 
ATOM      8  C   UNL     1       9.986  -1.223  22.903  0.00  0.00    +0.210 C 
ATOM      9  N   UNL     1       8.986  -1.793  23.656  0.00  0.00    -0.305 N 
ATOM     10  H   UNL     1       8.309  -1.198  24.120  0.00  0.00    +0.149 HD
ATOM     11  O   UNL     1      10.790  -1.873  22.245  0.00  0.00    -0.276 OA
ENDBRANCH   1   9
BRANCH   2  12
ATOM     12  O   UNL     1       7.221  -5.060  23.383  0.00  0.00    -0.387 OA
ATOM     13  H   UNL     1       7.994  -5.461  23.834  0.00  0.00    +0.210 HD
ENDBRANCH   2  12
BRANCH   3  14
ATOM     14  O   UNL     1       5.279  -3.837  24.925  0.00  0.00    -0.387 OA
ATOM     15  H   UNL     1       5.002  -3.806  23.991  0.00  0.00    +0.210 HD
ENDBRANCH   3  14
BRANCH   6  16
ATOM     16  O   UNL     1       9.706  -5.266  24.839  0.00  0.00    -0.365 OA
ATOM     17  H   UNL     1      10.375  -5.384  24.137  0.00  0.00    +0.213 HD
ENDBRANCH   6  16
BRANCH   4  18
ATOM     18  C   UNL     1       7.165  -5.457  26.417  0.00  0.00    +0.190 C 
BRANCH  18  19
ATOM     19  O   UNL     1       8.045  -5.940  27.432  0.00  0.00    -0.392 OA
ATOM     20  H   UNL     1       8.148  -6.895  27.257  0.00  0.00    +0.210 HD
ENDBRANCH  18  19
ENDBRANCH   4  18
TORSDOF 6
ENDMDL
MODEL 4
REMARK VINA RESULT:      -5.0      2.018      2.690
REMARK  Name = 
REMARK  7 active torsions:
REMARK  status: ('A' for Active; 'I' for Inactive)
REMARK    1  A    between atoms: C_1  and  C_2
REMARK    2  A    between atoms: N_4  and  C_5
REMARK    3  A    between atoms: C_7  and  O_9
REMARK    4  A    between atoms: C_11  and  C_13
REMARK    5  A    between atoms: C_13  and  O_14
REMARK    6  A    between atoms: C_15  and  O_17
REMARK    7  A    between atoms: C_18  and  O_20
REMARK                            x       y       z     vdW  Elec       q    Type
REMARK                         _______ _______ _______ _____ _____    ______ ____
ROOT
ATOM      1  C   UNL     1       9.412   0.153  22.673  0.00  0.00    +0.160 C 
ATOM      2  C   UNL     1       9.467   0.686  24.113  0.00  0.00    +0.171 C 
ATOM      3  C   UNL     1       8.172   1.419  24.487  0.00  0.00    +0.176 C 
ATOM      4  C   UNL     1       7.796   2.490  23.448  0.00  0.00    +0.178 C 
ATOM      5  O   UNL     1       7.799   1.951  22.117  0.00  0.00    -0.341 OA
ATOM      6  C   UNL     1       9.000   1.295  21.710  0.00  0.00    +0.270 C 
ENDROOT
BRANCH   1   9
ATOM      7  C   UNL     1       7.943  -3.354  22.668  0.00  0.00    +0.109 C 
ATOM      8  C   UNL     1       8.990  -2.286  22.823  0.00  0.00    +0.210 C 
ATOM      9  N   UNL     1       8.532  -1.017  22.551  0.00  0.00    -0.305 N 
ATOM     10  H   UNL     1       7.552  -0.874  22.338  0.00  0.00    +0.149 HD
ATOM     11  O   UNL     1      10.139  -2.530  23.170  0.00  0.00    -0.276 OA
ENDBRANCH   1   9
BRANCH   2  12
ATOM     12  O   UNL     1      10.576   1.591  24.249  0.00  0.00    -0.387 OA
ATOM     13  H   UNL     1      11.111   1.216  24.982  0.00  0.00    +0.210 HD
ENDBRANCH   2  12
BRANCH   3  14
ATOM     14  O   UNL     1       8.318   1.972  25.799  0.00  0.00    -0.387 OA
ATOM     15  H   UNL     1       8.090   2.919  25.749  0.00  0.00    +0.210 HD
ENDBRANCH   3  14
BRANCH   6  16
ATOM     16  O   UNL     1      10.041   2.233  21.485  0.00  0.00    -0.365 OA
ATOM     17  H   UNL     1      10.881   1.734  21.489  0.00  0.00    +0.213 HD
ENDBRANCH   6  16
BRANCH   4  18
ATOM     18  C   UNL     1       8.581   3.811  23.573  0.00  0.00    +0.190 C 
BRANCH  18  19
ATOM     19  O   UNL     1       8.318   4.649  22.447  0.00  0.00    -0.392 OA
ATOM     20  H   UNL     1       9.087   5.246  22.379  0.00  0.00    +0.210 HD
ENDBRANCH  18  19
ENDBRANCH   4  18
TORSDOF 6
ENDMDL
MODEL 5
REMARK VINA RESULT:      -4.9      2.413      3.712
REMARK  Name = 
REMARK  7 active torsions:
REMARK  status: ('A' for Active; 'I' for Inactive)
REMARK    1  A    between atoms: C_1  and  C_2
REMARK    2  A    between atoms: N_4  and  C_5
REMARK    3  A    between atoms: C_7  and  O_9
REMARK    4  A    between atoms: C_11  and  C_13
REMARK    5  A    between atoms: C_13  and  O_14
REMARK    6  A    between atoms: C_15  and  O_17
REMARK    7  A    between atoms: C_18  and  O_20
REMARK                            x       y       z     vdW  Elec       q    Type
REMARK                         _______ _______ _______ _____ _____    ______ ____
ROOT
ATOM      1  C   UNL     1       7.269  -2.666  23.227  0.00  0.00    +0.160 C 
ATOM      2  C   UNL     1       7.938  -1.623  22.317  0.00  0.00    +0.171 C 
ATOM      3  C   UNL     1       9.468  -1.701  22.409  0.00  0.00    +0.176 C 
ATOM      4  C   UNL     1       9.960  -1.652  23.866  0.00  0.00    +0.178 C 
ATOM      5  O   UNL     1       9.276  -2.616  24.682  0.00  0.00    -0.341 OA
ATOM      6  C   UNL     1       7.849  -2.555  24.659  0.00  0.00    +0.270 C 
ENDROOT
BRANCH   1   9
ATOM      7  C   UNL     1       6.731  -5.942  21.374  0.00  0.00    +0.109 C 
ATOM      8  C   UNL     1       6.430  -4.546  21.846  0.00  0.00    +0.210 C 
ATOM      9  N   UNL     1       7.387  -4.026  22.686  0.00  0.00    -0.305 N 
ATOM     10  H   UNL     1       8.228  -4.558  22.875  0.00  0.00    +0.149 HD
ATOM     11  O   UNL     1       5.428  -3.932  21.501  0.00  0.00    -0.276 OA
ENDBRANCH   1   9
BRANCH   2  12
ATOM     12  O   UNL     1       7.509  -0.305  22.700  0.00  0.00    -0.387 OA
ATOM     13  H   UNL     1       6.806  -0.459  23.367  0.00  0.00    +0.210 HD
ENDBRANCH   2  12
BRANCH   3  14
ATOM     14  O   UNL     1      10.031  -0.649  21.617  0.00  0.00    -0.387 OA
ATOM     15  H   UNL     1       9.947  -0.906  20.680  0.00  0.00    +0.210 HD
ENDBRANCH   3  14
BRANCH   6  16
ATOM     16  O   UNL     1       7.378  -1.416  25.362  0.00  0.00    -0.365 OA
ATOM     17  H   UNL     1       7.919  -0.657  25.071  0.00  0.00    +0.213 HD
ENDBRANCH   6  16
BRANCH   4  18
ATOM     18  C   UNL     1       9.993  -0.242  24.488  0.00  0.00    +0.190 C 
BRANCH  18  19
ATOM     19  O   UNL     1      11.140   0.472  24.028  0.00  0.00    -0.392 OA
ATOM     20  H   UNL     1      11.319   0.132  23.131  0.00  0.00    +0.210 HD
ENDBRANCH  18  19
ENDBRANCH   4  18
TORSDOF 6
ENDMDL
MODEL 6
REMARK VINA RESULT:      -4.8      2.263      3.059
REMARK  Name = 
REMARK  7 active torsions:
REMARK  status: ('A' for Active; 'I' for Inactive)
REMARK    1  A    between atoms: C_1  and  C_2
REMARK    2  A    between atoms: N_4  and  C_5
REMARK    3  A    between atoms: C_7  and  O_9
REMARK    4  A    between atoms: C_11  and  C_13
REMARK    5  A    between atoms: C_13  and  O_14
REMARK    6  A    between atoms: C_15  and  O_17
REMARK    7  A    between atoms: C_18  and  O_20
REMARK                            x       y       z     vdW  Elec       q    Type
REMARK                         _______ _______ _______ _____ _____    ______ ____
ROOT
ATOM      1  C   UNL     1       7.635  -3.536  25.130  0.00  0.00    +0.160 C 
ATOM      2  C   UNL     1       7.165  -2.077  25.018  0.00  0.00    +0.171 C 
ATOM      3  C   UNL     1       6.620  -1.771  23.617  0.00  0.00    +0.176 C 
ATOM      4  C   UNL     1       7.608  -2.187  22.512  0.00  0.00    +0.178 C 
ATOM      5  O   UNL     1       8.046  -3.543  22.685  0.00  0.00    -0.341 OA
ATOM      6  C   UNL     1       8.599  -3.863  23.963  0.00  0.00    +0.270 C 
ENDROOT
BRANCH   1   9
ATOM      7  C   UNL     1       5.288  -6.406  25.974  0.00  0.00    +0.109 C 
ATOM      8  C   UNL     1       6.539  -5.573  26.023  0.00  0.00    +0.210 C 
ATOM      9  N   UNL     1       6.507  -4.474  25.196  0.00  0.00    -0.305 N 
ATOM     10  H   UNL     1       5.661  -4.262  24.679  0.00  0.00    +0.149 HD
ATOM     11  O   UNL     1       7.491  -5.850  26.742  0.00  0.00    -0.276 OA
ENDBRANCH   1   9
BRANCH   2  12
ATOM     12  O   UNL     1       8.265  -1.194  25.298  0.00  0.00    -0.387 OA
ATOM     13  H   UNL     1       8.669  -1.018  24.422  0.00  0.00    +0.210 HD
ENDBRANCH   2  12
BRANCH   3  14
ATOM     14  O   UNL     1       6.288  -0.381  23.545  0.00  0.00    -0.387 OA
ATOM     15  H   UNL     1       6.759   0.075  24.267  0.00  0.00    +0.210 HD
ENDBRANCH   3  14
BRANCH   6  16
ATOM     16  O   UNL     1       9.883  -3.278  24.123  0.00  0.00    -0.365 OA
ATOM     17  H   UNL     1       9.783  -2.541  24.757  0.00  0.00    +0.213 HD
ENDBRANCH   6  16
BRANCH   4  18
ATOM     18  C   UNL     1       8.766  -1.196  22.279  0.00  0.00    +0.190 C 
BRANCH  18  19
ATOM     19  O   UNL     1       9.797  -1.816  21.510  0.00  0.00    -0.392 OA
ATOM     20  H   UNL     1       9.564  -2.763  21.475  0.00  0.00    +0.210 HD
ENDBRANCH  18  19
ENDBRANCH   4  18
TORSDOF 6
ENDMDL
MODEL 7
REMARK VINA RESULT:      -4.8      2.346      3.013
REMARK  Name = 
REMARK  7 active torsions:
REMARK  status: ('A' for Active; 'I' for Inactive)
REMARK    1  A    between atoms: C_1  and  C_2
REMARK    2  A    between atoms: N_4  and  C_5
REMARK    3  A    between atoms: C_7  and  O_9
REMARK    4  A    between atoms: C_11  and  C_13
REMARK    5  A    between atoms: C_13  and  O_14
REMARK    6  A    between atoms: C_15  and  O_17
REMARK    7  A    between atoms: C_18  and  O_20
REMARK                            x       y       z     vdW  Elec       q    Type
REMARK                         _______ _______ _______ _____ _____    ______ ____
ROOT
ATOM      1  C   UNL     1       8.223  -3.421  22.750  0.00  0.00    +0.160 C 
ATOM      2  C   UNL     1       8.779  -3.382  24.182  0.00  0.00    +0.171 C 
ATOM      3  C   UNL     1       8.216  -2.191  24.968  0.00  0.00    +0.176 C 
ATOM      4  C   UNL     1       8.386  -0.866  24.205  0.00  0.00    +0.178 C 
ATOM      5  O   UNL     1       7.888  -0.967  22.863  0.00  0.00    -0.341 OA
ATOM      6  C   UNL     1       8.415  -2.038  22.078  0.00  0.00    +0.270 C 
ENDROOT
BRANCH   1   9
ATOM      7  C   UNL     1       5.013  -5.443  22.491  0.00  0.00    +0.109 C 
ATOM      8  C   UNL     1       6.493  -5.174  22.464  0.00  0.00    +0.210 C 
ATOM      9  N   UNL     1       6.822  -3.862  22.715  0.00  0.00    -0.305 N 
ATOM     10  H   UNL     1       6.093  -3.201  22.957  0.00  0.00    +0.149 HD
ATOM     11  O   UNL     1       7.322  -6.049  22.247  0.00  0.00    -0.276 OA
ENDBRANCH   1   9
BRANCH   2  12
ATOM     12  O   UNL     1      10.213  -3.282  24.137  0.00  0.00    -0.387 OA
ATOM     13  H   UNL     1      10.420  -3.119  23.192  0.00  0.00    +0.210 HD
ENDBRANCH   2  12
BRANCH   3  14
ATOM     14  O   UNL     1       8.840  -2.153  26.256  0.00  0.00    -0.387 OA
ATOM     15  H   UNL     1       9.219  -3.035  26.429  0.00  0.00    +0.210 HD
ENDBRANCH   3  14
BRANCH   6  16
ATOM     16  O   UNL     1       9.762  -1.783  21.710  0.00  0.00    -0.365 OA
ATOM     17  H   UNL     1      10.039  -0.973  22.182  0.00  0.00    +0.213 HD
ENDBRANCH   6  16
BRANCH   4  18
ATOM     18  C   UNL     1       9.799  -0.253  24.287  0.00  0.00    +0.190 C 
BRANCH  18  19
ATOM     19  O   UNL     1      10.000   0.351  25.565  0.00  0.00    -0.392 OA
ATOM     20  H   UNL     1       9.207   0.898  25.724  0.00  0.00    +0.210 HD
ENDBRANCH  18  19
ENDBRANCH   4  18
TORSDOF 6
ENDMDL
MODEL 8
REMARK VINA RESULT:      -4.8      3.034      5.708
REMARK  Name = 
REMARK  7 active torsions:
REMARK  status: ('A' for Active; 'I' for Inactive)
REMARK    1  A    between atoms: C_1  and  C_2
REMARK    2  A    between atoms: N_4  and  C_5
REMARK    3  A    between atoms: C_7  and  O_9
REMARK    4  A    between atoms: C_11  and  C_13
REMARK    5  A    between atoms: C_13  and  O_14
REMARK    6  A    between atoms: C_15  and  O_17
REMARK    7  A    between atoms: C_18  and  O_20
REMARK                            x       y       z     vdW  Elec       q    Type
REMARK                         _______ _______ _______ _____ _____    ______ ____
ROOT
ATOM      1  C   UNL     1       8.610   2.717  23.205  0.00  0.00    +0.160 C 
ATOM      2  C   UNL     1       8.914   1.874  24.454  0.00  0.00    +0.171 C 
ATOM      3  C   UNL     1      10.311   1.245  24.377  0.00  0.00    +0.176 C 
ATOM      4  C   UNL     1      10.531   0.489  23.055  0.00  0.00    +0.178 C 
ATOM      5  O   UNL     1      10.195   1.306  21.923  0.00  0.00    -0.341 OA
ATOM      6  C   UNL     1       8.887   1.880  21.931  0.00  0.00    +0.270 C 
ENDROOT
BRANCH   1   9
ATOM      7  C   UNL     1       9.687   6.342  23.605  0.00  0.00    +0.109 C 
ATOM      8  C   UNL     1       8.772   5.149  23.659  0.00  0.00    +0.210 C 
ATOM      9  N   UNL     1       9.350   3.986  23.204  0.00  0.00    -0.305 N 
ATOM     10  H   UNL     1      10.327   3.985  22.936  0.00  0.00    +0.149 HD
ATOM     11  O   UNL     1       7.624   5.214  24.080  0.00  0.00    -0.276 OA
ENDBRANCH   1   9
BRANCH   2  12
ATOM     12  O   UNL     1       7.934   0.829  24.577  0.00  0.00    -0.387 OA
ATOM     13  H   UNL     1       7.164   1.261  25.006  0.00  0.00    +0.210 HD
ENDBRANCH   2  12
BRANCH   3  14
ATOM     14  O   UNL     1      10.499   0.399  25.516  0.00  0.00    -0.387 OA
ATOM     15  H   UNL     1      10.837   0.953  26.245  0.00  0.00    +0.210 HD
ENDBRANCH   3  14
BRANCH   6  16
ATOM     16  O   UNL     1       7.897   0.892  21.690  0.00  0.00    -0.365 OA
ATOM     17  H   UNL     1       8.367   0.064  21.470  0.00  0.00    +0.213 HD
ENDBRANCH   6  16
BRANCH   4  18
ATOM     18  C   UNL     1       9.896  -0.915  23.003  0.00  0.00    +0.190 C 
BRANCH  18  19
ATOM     19  O   UNL     1      10.095  -1.499  21.716  0.00  0.00    -0.392 OA
ATOM     20  H   UNL     1       9.246  -1.392  21.246  0.00  0.00    +0.210 HD
ENDBRANCH  18  19
ENDBRANCH   4  18
TORSDOF 6
ENDMDL
MODEL 9
REMARK VINA RESULT:      -4.8      2.131      3.428
REMARK  Name = 
REMARK  7 active torsions:
REMARK  status: ('A' for Active; 'I' for Inactive)
REMARK    1  A    between atoms: C_1  and  C_2
REMARK    2  A    between atoms: N_4  and  C_5
REMARK    3  A    between atoms: C_7  and  O_9
REMARK    4  A    between atoms: C_11  and  C_13
REMARK    5  A    between atoms: C_13  and  O_14
REMARK    6  A    between atoms: C_15  and  O_17
REMARK    7  A    between atoms: C_18  and  O_20
REMARK                            x       y       z     vdW  Elec       q    Type
REMARK                         _______ _______ _______ _____ _____    ______ ____
ROOT
ATOM      1  C   UNL     1       8.707   0.417  22.613  0.00  0.00    +0.160 C 
ATOM      2  C   UNL     1       9.943   1.324  22.502  0.00  0.00    +0.171 C 
ATOM      3  C   UNL     1      10.126   2.175  23.766  0.00  0.00    +0.176 C 
ATOM      4  C   UNL     1       8.840   2.930  24.143  0.00  0.00    +0.178 C 
ATOM      5  O   UNL     1       7.710   2.046  24.193  0.00  0.00    -0.341 OA
ATOM      6  C   UNL     1       7.475   1.263  23.022  0.00  0.00    +0.270 C 
ENDROOT
BRANCH   1   9
ATOM      7  C   UNL     1       9.802  -2.854  24.210  0.00  0.00    +0.109 C 
ATOM      8  C   UNL     1       9.657  -1.812  23.136  0.00  0.00    +0.210 C 
ATOM      9  N   UNL     1       8.931  -0.710  23.526  0.00  0.00    -0.305 N 
ATOM     10  H   UNL     1       8.610  -0.638  24.485  0.00  0.00    +0.149 HD
ATOM     11  O   UNL     1      10.151  -1.936  22.022  0.00  0.00    -0.276 OA
ENDBRANCH   1   9
BRANCH   2  12
ATOM     12  O   UNL     1       9.801   2.194  21.365  0.00  0.00    -0.387 OA
ATOM     13  H   UNL     1       9.627   3.078  21.752  0.00  0.00    +0.210 HD
ENDBRANCH   2  12
BRANCH   3  14
ATOM     14  O   UNL     1      11.231   3.063  23.566  0.00  0.00    -0.387 OA
ATOM     15  H   UNL     1      11.745   2.732  22.806  0.00  0.00    +0.210 HD
ENDBRANCH   3  14
BRANCH   6  16
ATOM     16  O   UNL     1       6.978   2.068  21.963  0.00  0.00    -0.365 OA
ATOM     17  H   UNL     1       6.301   1.540  21.497  0.00  0.00    +0.213 HD
ENDBRANCH   6  16
BRANCH   4  18
ATOM     18  C   UNL     1       8.579   4.208  23.320  0.00  0.00    +0.190 C 
BRANCH  18  19
ATOM     19  O   UNL     1       9.573   5.191  23.609  0.00  0.00    -0.392 OA
ATOM     20  H   UNL     1       9.125   5.861  24.160  0.00  0.00    +0.210 HD
ENDBRANCH  18  19
ENDBRANCH   4  18
TORSDOF 6
ENDMDL
