MODEL 1
REMARK VINA RESULT:      -8.4      0.000      0.000
REMARK  Name = 
REMARK  7 active torsions:
REMARK  status: ('A' for Active; 'I' for Inactive)
REMARK    1  A    between atoms: C_2  and  C_4
REMARK    2  A    between atoms: C_7  and  O_8
REMARK    3  A    between atoms: C_9  and  C_10
REMARK    4  A    between atoms: C_10  and  N_11
REMARK    5  A    between atoms: C_14  and  N_16
REMARK    6  A    between atoms: N_16  and  S_17
REMARK    7  A    between atoms: S_17  and  C_20
REMARK                            x       y       z     vdW  Elec       q    Type
REMARK                         _______ _______ _______ _____ _____    ______ ____
ROOT
ATOM      1  N   UNL     1       9.978  -0.490  23.720  0.00  0.00    -0.296 N 
ATOM      2  C   UNL     1       8.942  -1.303  24.131  0.00  0.00    +0.235 C 
ATOM      3  O   UNL     1       8.479  -1.333  25.261  0.00  0.00    -0.274 OA
ATOM      4  C   UNL     1       8.484  -2.133  22.946  0.00  0.00    +0.164 C 
ATOM      5  C   UNL     1       9.060  -1.324  21.774  0.00  0.00    +0.049 C 
ATOM      6  C   UNL     1      10.327  -0.704  22.343  0.00  0.00    +0.110 C 
ENDROOT
BRANCH   4   7
ATOM      7  N   UNL     1       7.024  -2.285  22.782  0.00  0.00    -0.178 NA
ATOM      8  H   UNL     1       6.637  -1.752  22.002  0.00  0.00    +0.149 HD
BRANCH   7   9
ATOM      9  S   UNL     1       6.434  -3.870  22.655  0.00  0.00    +0.065 S 
ATOM     10  O   UNL     1       7.412  -4.655  21.937  0.00  0.00    -0.153 OA
ATOM     11  O   UNL     1       5.081  -3.732  22.148  0.00  0.00    -0.153 OA
BRANCH   9  12
ATOM     12  C   UNL     1       6.262  -4.613  24.255  0.00  0.00    +0.145 A 
ATOM     13  S   UNL     1       4.882  -5.593  24.492  0.00  0.00    -0.067 S 
ATOM     14  C   UNL     1       5.317  -5.946  26.115  0.00  0.00    +0.039 A 
ATOM     15  C   UNL     1       4.653  -6.760  27.045  0.00  0.00    +0.019 A 
ATOM     16  C   UNL     1       5.208  -6.859  28.317  0.00  0.00    +0.021 A 
ATOM     17  C   UNL     1       6.368  -6.159  28.596  0.00  0.00    +0.111 A 
ATOM     18  N   UNL     1       7.039  -5.385  27.721  0.00  0.00    -0.254 NA
ATOM     19  C   UNL     1       6.496  -5.294  26.477  0.00  0.00    +0.080 A 
ATOM     20  C   UNL     1       7.044  -4.556  25.393  0.00  0.00    +0.064 A 
ENDBRANCH   9  12
ENDBRANCH   7   9
ENDBRANCH   4   7
BRANCH   1  21
ATOM     21  C   UNL     1      10.573   0.535  24.561  0.00  0.00    +0.146 C 
BRANCH  21  24
ATOM     22  C   UNL     1      11.086   4.178  23.497  0.00  0.00    +0.065 A 
ATOM     23  C   UNL     1      11.301   2.798  23.606  0.00  0.00    +0.024 A 
ATOM     24  C   UNL     1      10.324   1.977  24.181  0.00  0.00    +0.012 A 
ATOM     25  C   UNL     1       9.107   2.567  24.563  0.00  0.00    +0.122 A 
ATOM     26  C   UNL     1       8.860   3.930  24.396  0.00  0.00    +0.046 A 
ATOM     27  C   UNL     1       9.863   4.743  23.876  0.00  0.00    +0.019 A 
BRANCH  22  31
ATOM     28  N   UNL     1      12.552   5.204  21.816  0.00  0.00    -0.247 N 
ATOM     29  H   UNL     1      11.790   5.008  21.169  0.00  0.00    +0.288 HD
ATOM     30  H   UNL     1      12.988   6.091  21.586  0.00  0.00    +0.288 HD
ATOM     31  C   UNL     1      12.225   5.055  23.136  0.00  0.00    +0.308 C 
ATOM     32  N   UNL     1      12.849   5.713  24.054  0.00  0.00    -0.099 NA
ATOM     33  H   UNL     1      13.603   6.259  23.626  0.00  0.00    +0.363 HD
ENDBRANCH  22  31
BRANCH  25  34
ATOM     34  O   UNL     1       8.159   1.777  25.156  0.00  0.00    -0.506 OA
ATOM     35  H   UNL     1       7.640   1.334  24.463  0.00  0.00    +0.292 HD
ENDBRANCH  25  34
ENDBRANCH  21  24
ENDBRANCH   1  21
TORSDOF 7
ENDMDL
MODEL 2
REMARK VINA RESULT:      -8.0      2.412      9.672
REMARK  Name = 
REMARK  7 active torsions:
REMARK  status: ('A' for Active; 'I' for Inactive)
REMARK    1  A    between atoms: C_2  and  C_4
REMARK    2  A    between atoms: C_7  and  O_8
REMARK    3  A    between atoms: C_9  and  C_10
REMARK    4  A    between atoms: C_10  and  N_11
REMARK    5  A    between atoms: C_14  and  N_16
REMARK    6  A    between atoms: N_16  and  S_17
REMARK    7  A    between atoms: S_17  and  C_20
REMARK                            x       y       z     vdW  Elec       q    Type
REMARK                         _______ _______ _______ _____ _____    ______ ____
ROOT
ATOM      1  N   UNL     1       8.305  -3.789  23.626  0.00  0.00    -0.296 N 
ATOM      2  C   UNL     1       7.925  -2.660  22.932  0.00  0.00    +0.235 C 
ATOM      3  O   UNL     1       7.011  -2.605  22.122  0.00  0.00    -0.274 OA
ATOM      4  C   UNL     1       8.826  -1.513  23.353  0.00  0.00    +0.164 C 
ATOM      5  C   UNL     1       9.388  -2.045  24.679  0.00  0.00    +0.049 C 
ATOM      6  C   UNL     1       9.436  -3.553  24.479  0.00  0.00    +0.110 C 
ENDROOT
BRANCH   4   7
ATOM      7  N   UNL     1       8.163  -0.211  23.575  0.00  0.00    -0.178 NA
ATOM      8  H   UNL     1       8.434   0.248  24.446  0.00  0.00    +0.149 HD
BRANCH   7   9
ATOM      9  S   UNL     1       8.303   0.934  22.333  0.00  0.00    +0.065 S 
ATOM     10  O   UNL     1       6.979   1.427  22.027  0.00  0.00    -0.153 OA
ATOM     11  O   UNL     1       9.104   0.288  21.309  0.00  0.00    -0.153 OA
BRANCH   9  12
ATOM     12  C   UNL     1       9.255   2.333  22.861  0.00  0.00    +0.145 A 
ATOM     13  S   UNL     1       8.386   3.613  23.587  0.00  0.00    -0.067 S 
ATOM     14  C   UNL     1       9.807   4.547  23.822  0.00  0.00    +0.039 A 
ATOM     15  C   UNL     1       9.938   5.811  24.418  0.00  0.00    +0.019 A 
ATOM     16  C   UNL     1      11.214   6.365  24.459  0.00  0.00    +0.021 A 
ATOM     17  C   UNL     1      12.270   5.655  23.919  0.00  0.00    +0.111 A 
ATOM     18  N   UNL     1      12.180   4.433  23.357  0.00  0.00    -0.254 NA
ATOM     19  C   UNL     1      10.932   3.891  23.322  0.00  0.00    +0.080 A 
ATOM     20  C   UNL     1      10.607   2.610  22.800  0.00  0.00    +0.064 A 
ENDBRANCH   9  12
ENDBRANCH   7   9
ENDBRANCH   4   7
BRANCH   1  21
ATOM     21  C   UNL     1       7.575  -5.045  23.571  0.00  0.00    +0.146 C 
BRANCH  21  24
ATOM     22  C   UNL     1       5.432  -5.905  26.625  0.00  0.00    +0.065 A 
ATOM     23  C   UNL     1       6.549  -5.534  25.866  0.00  0.00    +0.024 A 
ATOM     24  C   UNL     1       6.403  -5.209  24.513  0.00  0.00    +0.012 A 
ATOM     25  C   UNL     1       5.106  -5.189  23.974  0.00  0.00    +0.122 A 
ATOM     26  C   UNL     1       3.981  -5.492  24.742  0.00  0.00    +0.046 A 
ATOM     27  C   UNL     1       4.147  -5.869  26.071  0.00  0.00    +0.019 A 
BRANCH  22  31
ATOM     28  N   UNL     1       4.709  -7.371  28.458  0.00  0.00    -0.247 N 
ATOM     29  H   UNL     1       4.146  -7.829  27.744  0.00  0.00    +0.288 HD
ATOM     30  H   UNL     1       5.074  -8.057  29.111  0.00  0.00    +0.288 HD
ATOM     31  C   UNL     1       5.640  -6.496  27.968  0.00  0.00    +0.308 C 
ATOM     32  N   UNL     1       6.717  -6.234  28.629  0.00  0.00    -0.099 NA
ATOM     33  H   UNL     1       6.689  -6.721  29.530  0.00  0.00    +0.363 HD
ENDBRANCH  22  31
BRANCH  25  34
ATOM     34  O   UNL     1       4.959  -4.904  22.643  0.00  0.00    -0.506 OA
ATOM     35  H   UNL     1       4.889  -3.940  22.533  0.00  0.00    +0.292 HD
ENDBRANCH  25  34
ENDBRANCH  21  24
ENDBRANCH   1  21
TORSDOF 7
ENDMDL
MODEL 3
REMARK VINA RESULT:      -7.9      2.515      2.972
REMARK  Name = 
REMARK  7 active torsions:
REMARK  status: ('A' for Active; 'I' for Inactive)
REMARK    1  A    between atoms: C_2  and  C_4
REMARK    2  A    between atoms: C_7  and  O_8
REMARK    3  A    between atoms: C_9  and  C_10
REMARK    4  A    between atoms: C_10  and  N_11
REMARK    5  A    between atoms: C_14  and  N_16
REMARK    6  A    between atoms: N_16  and  S_17
REMARK    7  A    between atoms: S_17  and  C_20
REMARK                            x       y       z     vdW  Elec       q    Type
REMARK                         _______ _______ _______ _____ _____    ______ ____
ROOT
ATOM      1  N   UNL     1       8.592  -0.444  22.319  0.00  0.00    -0.296 N 
ATOM      2  C   UNL     1       9.294  -1.612  22.531  0.00  0.00    +0.235 C 
ATOM      3  O   UNL     1      10.460  -1.799  22.220  0.00  0.00    -0.274 OA
ATOM      4  C   UNL     1       8.373  -2.606  23.217  0.00  0.00    +0.164 C 
ATOM      5  C   UNL     1       7.285  -1.674  23.769  0.00  0.00    +0.049 C 
ATOM      6  C   UNL     1       7.228  -0.537  22.760  0.00  0.00    +0.110 C 
ENDROOT
BRANCH   4   7
ATOM      7  N   UNL     1       8.967  -3.392  24.318  0.00  0.00    -0.178 NA
ATOM      8  H   UNL     1       8.839  -2.974  25.240  0.00  0.00    +0.149 HD
BRANCH   7   9
ATOM      9  S   UNL     1       8.501  -5.018  24.428  0.00  0.00    +0.065 S 
ATOM     10  O   UNL     1       9.680  -5.803  24.717  0.00  0.00    -0.153 OA
ATOM     11  O   UNL     1       7.721  -5.272  23.231  0.00  0.00    -0.153 OA
BRANCH   9  12
ATOM     12  C   UNL     1       7.382  -5.268  25.780  0.00  0.00    +0.145 A 
ATOM     13  S   UNL     1       5.740  -5.510  25.370  0.00  0.00    -0.067 S 
ATOM     14  C   UNL     1       5.273  -5.662  27.015  0.00  0.00    +0.039 A 
ATOM     15  C   UNL     1       3.998  -5.910  27.546  0.00  0.00    +0.019 A 
ATOM     16  C   UNL     1       3.884  -5.961  28.932  0.00  0.00    +0.021 A 
ATOM     17  C   UNL     1       5.016  -5.768  29.703  0.00  0.00    +0.111 A 
ATOM     18  N   UNL     1       6.256  -5.547  29.224  0.00  0.00    -0.254 NA
ATOM     19  C   UNL     1       6.364  -5.502  27.869  0.00  0.00    +0.080 A 
ATOM     20  C   UNL     1       7.573  -5.305  27.147  0.00  0.00    +0.064 A 
ENDBRANCH   9  12
ENDBRANCH   7   9
ENDBRANCH   4   7
BRANCH   1  21
ATOM     21  C   UNL     1       9.200   0.771  21.802  0.00  0.00    +0.146 C 
BRANCH  21  24
ATOM     22  C   UNL     1       7.828   4.220  22.745  0.00  0.00    +0.065 A 
ATOM     23  C   UNL     1       7.891   2.941  22.177  0.00  0.00    +0.024 A 
ATOM     24  C   UNL     1       8.915   2.059  22.542  0.00  0.00    +0.012 A 
ATOM     25  C   UNL     1       9.814   2.468  23.541  0.00  0.00    +0.122 A 
ATOM     26  C   UNL     1       9.717   3.715  24.159  0.00  0.00    +0.046 A 
ATOM     27  C   UNL     1       8.728   4.603  23.746  0.00  0.00    +0.019 A 
BRANCH  22  31
ATOM     28  N   UNL     1       7.430   6.255  21.430  0.00  0.00    -0.247 N 
ATOM     29  H   UNL     1       8.352   6.070  21.040  0.00  0.00    +0.288 HD
ATOM     30  H   UNL     1       6.813   6.624  20.713  0.00  0.00    +0.288 HD
ATOM     31  C   UNL     1       6.907   5.222  22.157  0.00  0.00    +0.308 C 
ATOM     32  N   UNL     1       5.631   5.076  22.282  0.00  0.00    -0.099 NA
ATOM     33  H   UNL     1       5.154   5.857  21.822  0.00  0.00    +0.363 HD
ENDBRANCH  22  31
BRANCH  25  34
ATOM     34  O   UNL     1      10.838   1.624  23.879  0.00  0.00    -0.506 OA
ATOM     35  H   UNL     1      10.506   0.965  24.512  0.00  0.00    +0.292 HD
ENDBRANCH  25  34
ENDBRANCH  21  24
ENDBRANCH   1  21
TORSDOF 7
ENDMDL
MODEL 4
REMARK VINA RESULT:      -7.7      1.544      1.889
REMARK  Name = 
REMARK  7 active torsions:
REMARK  status: ('A' for Active; 'I' for Inactive)
REMARK    1  A    between atoms: C_2  and  C_4
REMARK    2  A    between atoms: C_7  and  O_8
REMARK    3  A    between atoms: C_9  and  C_10
REMARK    4  A    between atoms: C_10  and  N_11
REMARK    5  A    between atoms: C_14  and  N_16
REMARK    6  A    between atoms: N_16  and  S_17
REMARK    7  A    between atoms: S_17  and  C_20
REMARK                            x       y       z     vdW  Elec       q    Type
REMARK                         _______ _______ _______ _____ _____    ______ ____
ROOT
ATOM      1  N   UNL     1       9.412  -0.432  23.743  0.00  0.00    -0.296 N 
ATOM      2  C   UNL     1       8.442  -1.350  24.087  0.00  0.00    +0.235 C 
ATOM      3  O   UNL     1       7.826  -1.360  25.143  0.00  0.00    -0.274 OA
ATOM      4  C   UNL     1       8.274  -2.325  22.936  0.00  0.00    +0.164 C 
ATOM      5  C   UNL     1       8.905  -1.534  21.780  0.00  0.00    +0.049 C 
ATOM      6  C   UNL     1       9.984  -0.699  22.452  0.00  0.00    +0.110 C 
ENDROOT
BRANCH   4   7
ATOM      7  N   UNL     1       6.886  -2.695  22.592  0.00  0.00    -0.178 NA
ATOM      8  H   UNL     1       6.557  -2.295  21.713  0.00  0.00    +0.149 HD
BRANCH   7   9
ATOM      9  S   UNL     1       6.526  -4.352  22.563  0.00  0.00    +0.065 S 
ATOM     10  O   UNL     1       7.651  -5.044  21.975  0.00  0.00    -0.153 OA
ATOM     11  O   UNL     1       5.208  -4.443  21.963  0.00  0.00    -0.153 OA
BRANCH   9  12
ATOM     12  C   UNL     1       6.339  -4.991  24.206  0.00  0.00    +0.145 A 
ATOM     13  S   UNL     1       4.877  -5.810  24.539  0.00  0.00    -0.067 S 
ATOM     14  C   UNL     1       5.333  -6.122  26.165  0.00  0.00    +0.039 A 
ATOM     15  C   UNL     1       4.625  -6.815  27.158  0.00  0.00    +0.019 A 
ATOM     16  C   UNL     1       5.214  -6.904  28.416  0.00  0.00    +0.021 A 
ATOM     17  C   UNL     1       6.448  -6.314  28.619  0.00  0.00    +0.111 A 
ATOM     18  N   UNL     1       7.162  -5.659  27.682  0.00  0.00    -0.254 NA
ATOM     19  C   UNL     1       6.585  -5.577  26.453  0.00  0.00    +0.080 A 
ATOM     20  C   UNL     1       7.164  -4.956  25.313  0.00  0.00    +0.064 A 
ENDBRANCH   9  12
ENDBRANCH   7   9
ENDBRANCH   4   7
BRANCH   1  21
ATOM     21  C   UNL     1       9.740   0.729  24.555  0.00  0.00    +0.146 C 
BRANCH  21  24
ATOM     22  C   UNL     1       7.976   4.022  23.717  0.00  0.00    +0.065 A 
ATOM     23  C   UNL     1       8.738   2.859  23.546  0.00  0.00    +0.024 A 
ATOM     24  C   UNL     1       8.760   1.881  24.546  0.00  0.00    +0.012 A 
ATOM     25  C   UNL     1       7.939   2.066  25.671  0.00  0.00    +0.122 A 
ATOM     26  C   UNL     1       7.126   3.191  25.816  0.00  0.00    +0.046 A 
ATOM     27  C   UNL     1       7.158   4.183  24.840  0.00  0.00    +0.019 A 
BRANCH  22  31
ATOM     28  N   UNL     1       9.285   5.938  22.913  0.00  0.00    -0.247 N 
ATOM     29  H   UNL     1      10.063   5.487  23.391  0.00  0.00    +0.288 HD
ATOM     30  H   UNL     1       9.606   6.370  22.052  0.00  0.00    +0.288 HD
ATOM     31  C   UNL     1       8.173   5.154  22.779  0.00  0.00    +0.308 C 
ATOM     32  N   UNL     1       7.336   5.347  21.816  0.00  0.00    -0.099 NA
ATOM     33  H   UNL     1       7.624   6.167  21.276  0.00  0.00    +0.363 HD
ENDBRANCH  22  31
BRANCH  25  34
ATOM     34  O   UNL     1       7.980   1.129  26.668  0.00  0.00    -0.506 OA
ATOM     35  H   UNL     1       8.530   0.382  26.375  0.00  0.00    +0.292 HD
ENDBRANCH  25  34
ENDBRANCH  21  24
ENDBRANCH   1  21
TORSDOF 7
ENDMDL
MODEL 5
REMARK VINA RESULT:      -7.6      2.878      3.688
REMARK  Name = 
REMARK  7 active torsions:
REMARK  status: ('A' for Active; 'I' for Inactive)
REMARK    1  A    between atoms: C_2  and  C_4
REMARK    2  A    between atoms: C_7  and  O_8
REMARK    3  A    between atoms: C_9  and  C_10
REMARK    4  A    between atoms: C_10  and  N_11
REMARK    5  A    between atoms: C_14  and  N_16
REMARK    6  A    between atoms: N_16  and  S_17
REMARK    7  A    between atoms: S_17  and  C_20
REMARK                            x       y       z     vdW  Elec       q    Type
REMARK                         _______ _______ _______ _____ _____    ______ ____
ROOT
ATOM      1  N   UNL     1       8.746  -0.351  22.795  0.00  0.00    -0.296 N 
ATOM      2  C   UNL     1       9.308  -1.602  22.644  0.00  0.00    +0.235 C 
ATOM      3  O   UNL     1      10.161  -1.894  21.819  0.00  0.00    -0.274 OA
ATOM      4  C   UNL     1       8.693  -2.532  23.673  0.00  0.00    +0.164 C 
ATOM      5  C   UNL     1       8.116  -1.525  24.679  0.00  0.00    +0.049 C 
ATOM      6  C   UNL     1       7.744  -0.323  23.824  0.00  0.00    +0.110 C 
ENDROOT
BRANCH   4   7
ATOM      7  N   UNL     1       9.623  -3.451  24.360  0.00  0.00    -0.178 NA
ATOM      8  H   UNL     1      10.257  -2.987  25.011  0.00  0.00    +0.149 HD
BRANCH   7   9
ATOM      9  S   UNL     1       8.930  -4.766  25.175  0.00  0.00    +0.065 S 
ATOM     10  O   UNL     1       9.028  -4.515  26.595  0.00  0.00    -0.153 OA
ATOM     11  O   UNL     1       9.545  -5.943  24.590  0.00  0.00    -0.153 OA
BRANCH   9  12
ATOM     12  C   UNL     1       7.202  -4.905  24.803  0.00  0.00    +0.145 A 
ATOM     13  S   UNL     1       6.124  -4.685  26.111  0.00  0.00    -0.067 S 
ATOM     14  C   UNL     1       4.747  -4.943  25.119  0.00  0.00    +0.039 A 
ATOM     15  C   UNL     1       3.390  -4.907  25.474  0.00  0.00    +0.019 A 
ATOM     16  C   UNL     1       2.463  -5.182  24.473  0.00  0.00    +0.021 A 
ATOM     17  C   UNL     1       2.919  -5.472  23.200  0.00  0.00    +0.111 A 
ATOM     18  N   UNL     1       4.212  -5.496  22.823  0.00  0.00    -0.254 NA
ATOM     19  C   UNL     1       5.116  -5.223  23.803  0.00  0.00    +0.080 A 
ATOM     20  C   UNL     1       6.526  -5.170  23.628  0.00  0.00    +0.064 A 
ENDBRANCH   9  12
ENDBRANCH   7   9
ENDBRANCH   4   7
BRANCH   1  21
ATOM     21  C   UNL     1       9.195   0.822  22.063  0.00  0.00    +0.146 C 
BRANCH  21  24
ATOM     22  C   UNL     1       7.867   4.344  22.764  0.00  0.00    +0.065 A 
ATOM     23  C   UNL     1       7.901   3.018  22.313  0.00  0.00    +0.024 A 
ATOM     24  C   UNL     1       8.948   2.172  22.697  0.00  0.00    +0.012 A 
ATOM     25  C   UNL     1       9.902   2.669  23.602  0.00  0.00    +0.122 A 
ATOM     26  C   UNL     1       9.836   3.968  24.107  0.00  0.00    +0.046 A 
ATOM     27  C   UNL     1       8.822   4.816  23.673  0.00  0.00    +0.019 A 
BRANCH  22  31
ATOM     28  N   UNL     1       7.397   6.350  21.428  0.00  0.00    -0.247 N 
ATOM     29  H   UNL     1       8.341   6.217  21.070  0.00  0.00    +0.288 HD
ATOM     30  H   UNL     1       6.784   6.680  20.689  0.00  0.00    +0.288 HD
ATOM     31  C   UNL     1       6.910   5.290  22.142  0.00  0.00    +0.308 C 
ATOM     32  N   UNL     1       5.641   5.071  22.225  0.00  0.00    -0.099 NA
ATOM     33  H   UNL     1       5.136   5.822  21.745  0.00  0.00    +0.363 HD
ENDBRANCH  22  31
BRANCH  25  34
ATOM     34  O   UNL     1      10.946   1.858  23.955  0.00  0.00    -0.506 OA
ATOM     35  H   UNL     1      11.351   1.496  23.148  0.00  0.00    +0.292 HD
ENDBRANCH  25  34
ENDBRANCH  21  24
ENDBRANCH   1  21
TORSDOF 7
ENDMDL
MODEL 6
REMARK VINA RESULT:      -7.6      2.995      9.496
REMARK  Name = 
REMARK  7 active torsions:
REMARK  status: ('A' for Active; 'I' for Inactive)
REMARK    1  A    between atoms: C_2  and  C_4
REMARK    2  A    between atoms: C_7  and  O_8
REMARK    3  A    between atoms: C_9  and  C_10
REMARK    4  A    between atoms: C_10  and  N_11
REMARK    5  A    between atoms: C_14  and  N_16
REMARK    6  A    between atoms: N_16  and  S_17
REMARK    7  A    between atoms: S_17  and  C_20
REMARK                            x       y       z     vdW  Elec       q    Type
REMARK                         _______ _______ _______ _____ _____    ______ ____
ROOT
ATOM      1  N   UNL     1       8.457  -3.241  25.845  0.00  0.00    -0.296 N 
ATOM      2  C   UNL     1       9.115  -2.637  24.794  0.00  0.00    +0.235 C 
ATOM      3  O   UNL     1       9.825  -3.214  23.985  0.00  0.00    -0.274 OA
ATOM      4  C   UNL     1       8.795  -1.153  24.818  0.00  0.00    +0.164 C 
ATOM      5  C   UNL     1       7.531  -1.133  25.690  0.00  0.00    +0.049 C 
ATOM      6  C   UNL     1       7.726  -2.299  26.647  0.00  0.00    +0.110 C 
ENDROOT
BRANCH   4   7
ATOM      7  N   UNL     1       8.515  -0.525  23.511  0.00  0.00    -0.178 NA
ATOM      8  H   UNL     1       7.637  -0.004  23.483  0.00  0.00    +0.149 HD
BRANCH   7   9
ATOM      9  S   UNL     1       9.723   0.479  22.874  0.00  0.00    +0.065 S 
ATOM     10  O   UNL     1       9.848   0.191  21.464  0.00  0.00    -0.153 OA
ATOM     11  O   UNL     1      10.859   0.317  23.764  0.00  0.00    -0.153 OA
BRANCH   9  12
ATOM     12  C   UNL     1       9.265   2.186  23.005  0.00  0.00    +0.145 A 
ATOM     13  S   UNL     1       7.856   2.660  22.162  0.00  0.00    -0.067 S 
ATOM     14  C   UNL     1       8.004   4.291  22.678  0.00  0.00    +0.039 A 
ATOM     15  C   UNL     1       7.161   5.379  22.402  0.00  0.00    +0.019 A 
ATOM     16  C   UNL     1       7.525   6.615  22.927  0.00  0.00    +0.021 A 
ATOM     17  C   UNL     1       8.681   6.708  23.680  0.00  0.00    +0.111 A 
ATOM     18  N   UNL     1       9.500   5.680  23.978  0.00  0.00    -0.254 NA
ATOM     19  C   UNL     1       9.139   4.472  23.468  0.00  0.00    +0.080 A 
ATOM     20  C   UNL     1       9.838   3.251  23.672  0.00  0.00    +0.064 A 
ENDBRANCH   9  12
ENDBRANCH   7   9
ENDBRANCH   4   7
BRANCH   1  21
ATOM     21  C   UNL     1       8.428  -4.680  26.050  0.00  0.00    +0.146 C 
BRANCH  21  24
ATOM     22  C   UNL     1       5.150  -5.861  24.462  0.00  0.00    +0.065 A 
ATOM     23  C   UNL     1       6.467  -5.393  24.565  0.00  0.00    +0.024 A 
ATOM     24  C   UNL     1       7.116  -5.391  25.805  0.00  0.00    +0.012 A 
ATOM     25  C   UNL     1       6.440  -5.942  26.907  0.00  0.00    +0.122 A 
ATOM     26  C   UNL     1       5.153  -6.470  26.797  0.00  0.00    +0.046 A 
ATOM     27  C   UNL     1       4.499  -6.414  25.570  0.00  0.00    +0.019 A 
BRANCH  22  31
ATOM     28  N   UNL     1       3.404  -6.481  22.851  0.00  0.00    -0.247 N 
ATOM     29  H   UNL     1       3.012  -7.014  23.625  0.00  0.00    +0.288 HD
ATOM     30  H   UNL     1       2.660  -6.069  22.296  0.00  0.00    +0.288 HD
ATOM     31  C   UNL     1       4.396  -5.611  23.210  0.00  0.00    +0.308 C 
ATOM     32  N   UNL     1       4.636  -4.552  22.512  0.00  0.00    -0.099 NA
ATOM     33  H   UNL     1       4.030  -4.546  21.687  0.00  0.00    +0.363 HD
ENDBRANCH  22  31
BRANCH  25  34
ATOM     34  O   UNL     1       7.056  -5.913  28.129  0.00  0.00    -0.506 OA
ATOM     35  H   UNL     1       7.982  -6.192  28.021  0.00  0.00    +0.292 HD
ENDBRANCH  25  34
ENDBRANCH  21  24
ENDBRANCH   1  21
TORSDOF 7
ENDMDL
MODEL 7
REMARK VINA RESULT:      -7.6      2.194      3.248
REMARK  Name = 
REMARK  7 active torsions:
REMARK  status: ('A' for Active; 'I' for Inactive)
REMARK    1  A    between atoms: C_2  and  C_4
REMARK    2  A    between atoms: C_7  and  O_8
REMARK    3  A    between atoms: C_9  and  C_10
REMARK    4  A    between atoms: C_10  and  N_11
REMARK    5  A    between atoms: C_14  and  N_16
REMARK    6  A    between atoms: N_16  and  S_17
REMARK    7  A    between atoms: S_17  and  C_20
REMARK                            x       y       z     vdW  Elec       q    Type
REMARK                         _______ _______ _______ _____ _____    ______ ____
ROOT
ATOM      1  N   UNL     1      10.052  -0.044  23.642  0.00  0.00    -0.296 N 
ATOM      2  C   UNL     1       9.581  -1.054  24.455  0.00  0.00    +0.235 C 
ATOM      3  O   UNL     1       9.407  -0.963  25.661  0.00  0.00    -0.274 OA
ATOM      4  C   UNL     1       9.315  -2.277  23.595  0.00  0.00    +0.164 C 
ATOM      5  C   UNL     1       9.237  -1.648  22.197  0.00  0.00    +0.049 C 
ATOM      6  C   UNL     1      10.186  -0.461  22.274  0.00  0.00    +0.110 C 
ENDROOT
BRANCH   4   7
ATOM      7  N   UNL     1       8.069  -3.017  23.883  0.00  0.00    -0.178 NA
ATOM      8  H   UNL     1       7.342  -2.893  23.178  0.00  0.00    +0.149 HD
BRANCH   7   9
ATOM      9  S   UNL     1       8.223  -4.682  24.166  0.00  0.00    +0.065 S 
ATOM     10  O   UNL     1       9.605  -4.956  24.486  0.00  0.00    -0.153 OA
ATOM     11  O   UNL     1       7.589  -5.321  23.027  0.00  0.00    -0.153 OA
BRANCH   9  12
ATOM     12  C   UNL     1       7.268  -5.178  25.574  0.00  0.00    +0.145 A 
ATOM     13  S   UNL     1       5.691  -5.757  25.256  0.00  0.00    -0.067 S 
ATOM     14  C   UNL     1       5.370  -6.022  26.922  0.00  0.00    +0.039 A 
ATOM     15  C   UNL     1       4.211  -6.540  27.521  0.00  0.00    +0.019 A 
ATOM     16  C   UNL     1       4.198  -6.629  28.910  0.00  0.00    +0.021 A 
ATOM     17  C   UNL     1       5.310  -6.209  29.617  0.00  0.00    +0.111 A 
ATOM     18  N   UNL     1       6.443  -5.725  29.071  0.00  0.00    -0.254 NA
ATOM     19  C   UNL     1       6.455  -5.644  27.713  0.00  0.00    +0.080 A 
ATOM     20  C   UNL     1       7.547  -5.188  26.927  0.00  0.00    +0.064 A 
ENDBRANCH   9  12
ENDBRANCH   7   9
ENDBRANCH   4   7
BRANCH   1  21
ATOM     21  C   UNL     1      10.286   1.313  24.107  0.00  0.00    +0.146 C 
BRANCH  21  24
ATOM     22  C   UNL     1       6.793   2.837  23.739  0.00  0.00    +0.065 A 
ATOM     23  C   UNL     1       7.803   1.939  24.108  0.00  0.00    +0.024 A 
ATOM     24  C   UNL     1       9.148   2.299  23.972  0.00  0.00    +0.012 A 
ATOM     25  C   UNL     1       9.443   3.603  23.536  0.00  0.00    +0.122 A 
ATOM     26  C   UNL     1       8.442   4.525  23.230  0.00  0.00    +0.046 A 
ATOM     27  C   UNL     1       7.109   4.134  23.316  0.00  0.00    +0.019 A 
BRANCH  22  31
ATOM     28  N   UNL     1       4.619   2.776  22.600  0.00  0.00    -0.247 N 
ATOM     29  H   UNL     1       5.142   3.096  21.787  0.00  0.00    +0.288 HD
ATOM     30  H   UNL     1       3.894   2.124  22.317  0.00  0.00    +0.288 HD
ATOM     31  C   UNL     1       5.398   2.348  23.640  0.00  0.00    +0.308 C 
ATOM     32  N   UNL     1       4.955   1.483  24.489  0.00  0.00    -0.099 NA
ATOM     33  H   UNL     1       3.979   1.264  24.272  0.00  0.00    +0.363 HD
ENDBRANCH  22  31
BRANCH  25  34
ATOM     34  O   UNL     1      10.756   3.950  23.369  0.00  0.00    -0.506 OA
ATOM     35  H   UNL     1      10.853   4.419  22.522  0.00  0.00    +0.292 HD
ENDBRANCH  25  34
ENDBRANCH  21  24
ENDBRANCH   1  21
TORSDOF 7
ENDMDL
MODEL 8
REMARK VINA RESULT:      -7.4      2.478      9.710
REMARK  Name = 
REMARK  7 active torsions:
REMARK  status: ('A' for Active; 'I' for Inactive)
REMARK    1  A    between atoms: C_2  and  C_4
REMARK    2  A    between atoms: C_7  and  O_8
REMARK    3  A    between atoms: C_9  and  C_10
REMARK    4  A    between atoms: C_10  and  N_11
REMARK    5  A    between atoms: C_14  and  N_16
REMARK    6  A    between atoms: N_16  and  S_17
REMARK    7  A    between atoms: S_17  and  C_20
REMARK                            x       y       z     vdW  Elec       q    Type
REMARK                         _______ _______ _______ _____ _____    ______ ____
ROOT
ATOM      1  N   UNL     1       6.627  -4.907  22.752  0.00  0.00    -0.296 N 
ATOM      2  C   UNL     1       6.593  -3.612  22.280  0.00  0.00    +0.235 C 
ATOM      3  O   UNL     1       5.647  -3.099  21.701  0.00  0.00    -0.274 OA
ATOM      4  C   UNL     1       7.917  -2.946  22.610  0.00  0.00    +0.164 C 
ATOM      5  C   UNL     1       8.447  -3.868  23.717  0.00  0.00    +0.049 C 
ATOM      6  C   UNL     1       7.889  -5.236  23.357  0.00  0.00    +0.110 C 
ENDROOT
BRANCH   4   7
ATOM      7  N   UNL     1       7.842  -1.556  23.105  0.00  0.00    -0.178 NA
ATOM      8  H   UNL     1       7.454  -1.473  24.045  0.00  0.00    +0.149 HD
BRANCH   7   9
ATOM      9  S   UNL     1       9.278  -0.657  23.065  0.00  0.00    +0.065 S 
ATOM     10  O   UNL     1       9.950  -0.939  21.817  0.00  0.00    -0.153 OA
ATOM     11  O   UNL     1       9.932  -0.930  24.332  0.00  0.00    -0.153 OA
BRANCH   9  12
ATOM     12  C   UNL     1       8.940   1.083  23.078  0.00  0.00    +0.145 A 
ATOM     13  S   UNL     1       7.613   1.605  22.134  0.00  0.00    -0.067 S 
ATOM     14  C   UNL     1       7.853   3.249  22.568  0.00  0.00    +0.039 A 
ATOM     15  C   UNL     1       7.107   4.374  22.188  0.00  0.00    +0.019 A 
ATOM     16  C   UNL     1       7.533   5.611  22.663  0.00  0.00    +0.021 A 
ATOM     17  C   UNL     1       8.654   5.666  23.472  0.00  0.00    +0.111 A 
ATOM     18  N   UNL     1       9.380   4.603  23.869  0.00  0.00    -0.254 NA
ATOM     19  C   UNL     1       8.958   3.395  23.407  0.00  0.00    +0.080 A 
ATOM     20  C   UNL     1       9.555   2.143  23.715  0.00  0.00    +0.064 A 
ENDBRANCH   9  12
ENDBRANCH   7   9
ENDBRANCH   4   7
BRANCH   1  21
ATOM     21  C   UNL     1       5.478  -5.798  22.730  0.00  0.00    +0.146 C 
BRANCH  21  24
ATOM     22  C   UNL     1       4.885  -6.486  26.449  0.00  0.00    +0.065 A 
ATOM     23  C   UNL     1       5.459  -5.957  25.286  0.00  0.00    +0.024 A 
ATOM     24  C   UNL     1       4.816  -6.111  24.052  0.00  0.00    +0.012 A 
ATOM     25  C   UNL     1       3.556  -6.732  24.037  0.00  0.00    +0.122 A 
ATOM     26  C   UNL     1       2.947  -7.201  25.201  0.00  0.00    +0.046 A 
ATOM     27  C   UNL     1       3.624  -7.092  26.413  0.00  0.00    +0.019 A 
BRANCH  22  31
ATOM     28  N   UNL     1       5.368  -7.459  28.651  0.00  0.00    -0.247 N 
ATOM     29  H   UNL     1       4.839  -8.259  28.309  0.00  0.00    +0.288 HD
ATOM     30  H   UNL     1       6.147  -7.772  29.222  0.00  0.00    +0.288 HD
ATOM     31  C   UNL     1       5.697  -6.546  27.687  0.00  0.00    +0.308 C 
ATOM     32  N   UNL     1       6.734  -5.789  27.817  0.00  0.00    -0.099 NA
ATOM     33  H   UNL     1       7.168  -5.960  28.728  0.00  0.00    +0.363 HD
ENDBRANCH  22  31
BRANCH  25  34
ATOM     34  O   UNL     1       2.937  -6.915  22.830  0.00  0.00    -0.506 OA
ATOM     35  H   UNL     1       2.125  -6.381  22.808  0.00  0.00    +0.292 HD
ENDBRANCH  25  34
ENDBRANCH  21  24
ENDBRANCH   1  21
TORSDOF 7
ENDMDL
MODEL 9
REMARK VINA RESULT:      -7.3      2.811      3.715
REMARK  Name = 
REMARK  7 active torsions:
REMARK  status: ('A' for Active; 'I' for Inactive)
REMARK    1  A    between atoms: C_2  and  C_4
REMARK    2  A    between atoms: C_7  and  O_8
REMARK    3  A    between atoms: C_9  and  C_10
REMARK    4  A    between atoms: C_10  and  N_11
REMARK    5  A    between atoms: C_14  and  N_16
REMARK    6  A    between atoms: N_16  and  S_17
REMARK    7  A    between atoms: S_17  and  C_20
REMARK                            x       y       z     vdW  Elec       q    Type
REMARK                         _______ _______ _______ _____ _____    ______ ____
ROOT
ATOM      1  N   UNL     1      10.335   1.452  23.175  0.00  0.00    -0.296 N 
ATOM      2  C   UNL     1      10.063   0.435  24.066  0.00  0.00    +0.235 C 
ATOM      3  O   UNL     1      10.387   0.426  25.244  0.00  0.00    -0.274 OA
ATOM      4  C   UNL     1       9.294  -0.651  23.334  0.00  0.00    +0.164 C 
ATOM      5  C   UNL     1       8.781   0.120  22.109  0.00  0.00    +0.049 C 
ATOM      6  C   UNL     1       9.860   1.160  21.851  0.00  0.00    +0.110 C 
ENDROOT
BRANCH   4   7
ATOM      7  N   UNL     1       8.158  -1.250  24.064  0.00  0.00    -0.178 NA
ATOM      8  H   UNL     1       7.290  -1.278  23.527  0.00  0.00    +0.149 HD
BRANCH   7   9
ATOM      9  S   UNL     1       8.402  -2.797  24.714  0.00  0.00    +0.065 S 
ATOM     10  O   UNL     1       8.546  -2.663  26.146  0.00  0.00    -0.153 OA
ATOM     11  O   UNL     1       9.466  -3.380  23.917  0.00  0.00    -0.153 OA
BRANCH   9  12
ATOM     12  C   UNL     1       6.990  -3.832  24.440  0.00  0.00    +0.145 A 
ATOM     13  S   UNL     1       6.829  -5.185  25.472  0.00  0.00    -0.067 S 
ATOM     14  C   UNL     1       5.380  -5.695  24.704  0.00  0.00    +0.039 A 
ATOM     15  C   UNL     1       4.567  -6.798  25.007  0.00  0.00    +0.019 A 
ATOM     16  C   UNL     1       3.450  -7.004  24.204  0.00  0.00    +0.021 A 
ATOM     17  C   UNL     1       3.202  -6.127  23.164  0.00  0.00    +0.111 A 
ATOM     18  N   UNL     1       3.952  -5.050  22.859  0.00  0.00    -0.254 NA
ATOM     19  C   UNL     1       5.041  -4.847  23.649  0.00  0.00    +0.080 A 
ATOM     20  C   UNL     1       5.956  -3.767  23.526  0.00  0.00    +0.064 A 
ENDBRANCH   9  12
ENDBRANCH   7   9
ENDBRANCH   4   7
BRANCH   1  21
ATOM     21  C   UNL     1      10.942   2.714  23.563  0.00  0.00    +0.146 C 
BRANCH  21  24
ATOM     22  C   UNL     1       7.864   4.990  23.494  0.00  0.00    +0.065 A 
ATOM     23  C   UNL     1       8.636   3.828  23.615  0.00  0.00    +0.024 A 
ATOM     24  C   UNL     1      10.031   3.915  23.683  0.00  0.00    +0.012 A 
ATOM     25  C   UNL     1      10.613   5.194  23.709  0.00  0.00    +0.122 A 
ATOM     26  C   UNL     1       9.846   6.358  23.655  0.00  0.00    +0.046 A 
ATOM     27  C   UNL     1       8.463   6.254  23.530  0.00  0.00    +0.019 A 
BRANCH  22  31
ATOM     28  N   UNL     1       6.070   4.244  21.992  0.00  0.00    -0.247 N 
ATOM     29  H   UNL     1       6.772   3.603  21.626  0.00  0.00    +0.288 HD
ATOM     30  H   UNL     1       5.160   3.794  22.012  0.00  0.00    +0.288 HD
ATOM     31  C   UNL     1       6.426   4.864  23.158  0.00  0.00    +0.308 C 
ATOM     32  N   UNL     1       5.530   5.279  23.989  0.00  0.00    -0.099 NA
ATOM     33  H   UNL     1       4.600   5.117  23.594  0.00  0.00    +0.363 HD
ENDBRANCH  22  31
BRANCH  25  34
ATOM     34  O   UNL     1      11.979   5.286  23.742  0.00  0.00    -0.506 OA
ATOM     35  H   UNL     1      12.253   6.079  23.252  0.00  0.00    +0.292 HD
ENDBRANCH  25  34
ENDBRANCH  21  24
ENDBRANCH   1  21
TORSDOF 7
ENDMDL
