MODEL 1
REMARK VINA RESULT:      -5.9      0.000      0.000
REMARK  Name = 
REMARK  10 active torsions:
REMARK  status: ('A' for Active; 'I' for Inactive)
REMARK    1  A    between atoms: O_1  and  C_2
REMARK    2  A    between atoms: C_5  and  C_7
REMARK    3  A    between atoms: C_7  and  O_8
REMARK    4  A    between atoms: O_8  and  S_9
REMARK    5  A    between atoms: S_9  and  O_10
REMARK    6  A    between atoms: C_13  and  O_15
REMARK    7  A    between atoms: C_16  and  O_18
REMARK    8  A    between atoms: C_19  and  N_21
REMARK    9  A    between atoms: N_21  and  S_22
REMARK   10  A    between atoms: S_22  and  O_23
REMARK                            x       y       z     vdW  Elec       q    Type
REMARK                         _______ _______ _______ _____ _____    ______ ____
ROOT
ATOM      1  C   UNL     1       6.373  -4.741  25.756  0.00  0.00    +0.269 C 
ATOM      2  C   UNL     1       7.311  -4.672  26.984  0.00  0.00    +0.165 C 
ATOM      3  C   UNL     1       8.668  -4.071  26.533  0.00  0.00    +0.169 C 
ATOM      4  C   UNL     1       9.250  -4.813  25.320  0.00  0.00    +0.176 C 
ATOM      5  C   UNL     1       8.216  -4.968  24.183  0.00  0.00    +0.180 C 
ATOM      6  O   UNL     1       6.944  -5.448  24.656  0.00  0.00    -0.342 OA
ENDROOT
BRANCH   1   7
ATOM      7  O   UNL     1       6.008  -3.420  25.365  0.00  0.00    -0.366 OA
ATOM      8  H   UNL     1       5.592  -3.522  24.488  0.00  0.00    +0.213 HD
ENDBRANCH   1   7
BRANCH   2   9
ATOM      9  N   UNL     1       7.516  -5.999  27.638  0.00  0.00    -0.160 NA
ATOM     10  H   UNL     1       8.465  -6.150  27.984  0.00  0.00    +0.151 HD
BRANCH   9  11
ATOM     11  S   UNL     1       6.405  -6.526  28.761  0.00  0.00    +0.149 S 
ATOM     12  O   UNL     1       5.830  -5.365  29.387  0.00  0.00    -0.130 OA
ATOM     13  O   UNL     1       7.039  -7.584  29.501  0.00  0.00    -0.130 OA
BRANCH  11  14
ATOM     14  O   UNL     1       5.282  -7.228  27.854  0.00  0.00    -0.240 OA
ATOM     15  H   UNL     1       5.045  -8.078  28.274  0.00  0.00    +0.246 HD
ENDBRANCH  11  14
ENDBRANCH   9  11
ENDBRANCH   2   9
BRANCH   3  16
ATOM     16  O   UNL     1       8.560  -2.669  26.233  0.00  0.00    -0.387 OA
ATOM     17  H   UNL     1       7.638  -2.488  25.953  0.00  0.00    +0.210 HD
ENDBRANCH   3  16
BRANCH   4  18
ATOM     18  O   UNL     1       9.697  -6.107  25.764  0.00  0.00    -0.387 OA
ATOM     19  H   UNL     1       9.293  -6.293  26.630  0.00  0.00    +0.210 HD
ENDBRANCH   4  18
BRANCH   5  20
ATOM     20  C   UNL     1       8.035  -3.735  23.284  0.00  0.00    +0.230 C 
BRANCH  20  21
ATOM     21  O   UNL     1       7.407  -4.058  22.054  0.00  0.00    -0.213 OA
BRANCH  21  22
ATOM     22  S   UNL     1       5.907  -3.472  21.823  0.00  0.00    +0.208 S 
ATOM     23  O   UNL     1       5.612  -3.509  20.409  0.00  0.00    -0.118 OA
ATOM     24  O   UNL     1       5.776  -2.269  22.609  0.00  0.00    -0.118 OA
BRANCH  22  25
ATOM     25  O   UNL     1       4.980  -4.571  22.553  0.00  0.00    -0.231 OA
ATOM     26  H   UNL     1       5.032  -5.401  22.033  0.00  0.00    +0.247 HD
ENDBRANCH  22  25
ENDBRANCH  21  22
ENDBRANCH  20  21
ENDBRANCH   5  20
TORSDOF 10
ENDMDL
MODEL 2
REMARK VINA RESULT:      -5.9      1.808      2.215
REMARK  Name = 
REMARK  10 active torsions:
REMARK  status: ('A' for Active; 'I' for Inactive)
REMARK    1  A    between atoms: O_1  and  C_2
REMARK    2  A    between atoms: C_5  and  C_7
REMARK    3  A    between atoms: C_7  and  O_8
REMARK    4  A    between atoms: O_8  and  S_9
REMARK    5  A    between atoms: S_9  and  O_10
REMARK    6  A    between atoms: C_13  and  O_15
REMARK    7  A    between atoms: C_16  and  O_18
REMARK    8  A    between atoms: C_19  and  N_21
REMARK    9  A    between atoms: N_21  and  S_22
REMARK   10  A    between atoms: S_22  and  O_23
REMARK                            x       y       z     vdW  Elec       q    Type
REMARK                         _______ _______ _______ _____ _____    ______ ____
ROOT
ATOM      1  C   UNL     1       6.408  -4.598  25.764  0.00  0.00    +0.269 C 
ATOM      2  C   UNL     1       7.339  -4.643  26.998  0.00  0.00    +0.165 C 
ATOM      3  C   UNL     1       8.721  -4.065  26.593  0.00  0.00    +0.169 C 
ATOM      4  C   UNL     1       9.284  -4.748  25.337  0.00  0.00    +0.176 C 
ATOM      5  C   UNL     1       8.253  -4.791  24.189  0.00  0.00    +0.180 C 
ATOM      6  O   UNL     1       6.961  -5.253  24.623  0.00  0.00    -0.342 OA
ENDROOT
BRANCH   1   7
ATOM      7  O   UNL     1       6.095  -3.242  25.458  0.00  0.00    -0.366 OA
ATOM      8  H   UNL     1       5.764  -3.260  24.540  0.00  0.00    +0.213 HD
ENDBRANCH   1   7
BRANCH   2   9
ATOM      9  N   UNL     1       7.492  -6.016  27.565  0.00  0.00    -0.160 NA
ATOM     10  H   UNL     1       8.445  -6.245  27.852  0.00  0.00    +0.151 HD
BRANCH   9  11
ATOM     11  S   UNL     1       6.405  -6.539  28.715  0.00  0.00    +0.149 S 
ATOM     12  O   UNL     1       5.850  -5.376  29.355  0.00  0.00    -0.130 OA
ATOM     13  O   UNL     1       7.053  -7.600  29.440  0.00  0.00    -0.130 OA
BRANCH  11  14
ATOM     14  O   UNL     1       5.259  -7.236  27.835  0.00  0.00    -0.240 OA
ATOM     15  H   UNL     1       5.645  -8.029  27.412  0.00  0.00    +0.246 HD
ENDBRANCH  11  14
ENDBRANCH   9  11
ENDBRANCH   2   9
BRANCH   3  16
ATOM     16  O   UNL     1       8.666  -2.643  26.384  0.00  0.00    -0.387 OA
ATOM     17  H   UNL     1       7.932  -2.284  26.925  0.00  0.00    +0.210 HD
ENDBRANCH   3  16
BRANCH   4  18
ATOM     18  O   UNL     1       9.680  -6.084  25.699  0.00  0.00    -0.387 OA
ATOM     19  H   UNL     1      10.346  -6.392  25.059  0.00  0.00    +0.210 HD
ENDBRANCH   4  18
BRANCH   5  20
ATOM     20  C   UNL     1       8.123  -3.496  23.370  0.00  0.00    +0.230 C 
BRANCH  20  21
ATOM     21  O   UNL     1       9.315  -2.729  23.390  0.00  0.00    -0.213 OA
BRANCH  21  22
ATOM     22  S   UNL     1       9.145  -1.117  23.525  0.00  0.00    +0.208 S 
ATOM     23  O   UNL     1       9.126  -0.544  22.199  0.00  0.00    -0.118 OA
ATOM     24  O   UNL     1      10.051  -0.662  24.552  0.00  0.00    -0.118 OA
BRANCH  22  25
ATOM     25  O   UNL     1       7.667  -0.967  24.151  0.00  0.00    -0.231 OA
ATOM     26  H   UNL     1       7.070  -0.655  23.439  0.00  0.00    +0.247 HD
ENDBRANCH  22  25
ENDBRANCH  21  22
ENDBRANCH  20  21
ENDBRANCH   5  20
TORSDOF 10
ENDMDL
MODEL 3
REMARK VINA RESULT:      -5.8      4.304      6.306
REMARK  Name = 
REMARK  10 active torsions:
REMARK  status: ('A' for Active; 'I' for Inactive)
REMARK    1  A    between atoms: O_1  and  C_2
REMARK    2  A    between atoms: C_5  and  C_7
REMARK    3  A    between atoms: C_7  and  O_8
REMARK    4  A    between atoms: O_8  and  S_9
REMARK    5  A    between atoms: S_9  and  O_10
REMARK    6  A    between atoms: C_13  and  O_15
REMARK    7  A    between atoms: C_16  and  O_18
REMARK    8  A    between atoms: C_19  and  N_21
REMARK    9  A    between atoms: N_21  and  S_22
REMARK   10  A    between atoms: S_22  and  O_23
REMARK                            x       y       z     vdW  Elec       q    Type
REMARK                         _______ _______ _______ _____ _____    ______ ____
ROOT
ATOM      1  C   UNL     1       9.502  -1.923  22.130  0.00  0.00    +0.269 C 
ATOM      2  C   UNL     1       7.968  -1.888  22.327  0.00  0.00    +0.165 C 
ATOM      3  C   UNL     1       7.614  -0.665  23.213  0.00  0.00    +0.169 C 
ATOM      4  C   UNL     1       8.430  -0.643  24.514  0.00  0.00    +0.176 C 
ATOM      5  C   UNL     1       9.942  -0.821  24.255  0.00  0.00    +0.180 C 
ATOM      6  O   UNL     1      10.223  -1.914  23.362  0.00  0.00    -0.342 OA
ENDROOT
BRANCH   1   7
ATOM      7  O   UNL     1       9.898  -0.826  21.311  0.00  0.00    -0.366 OA
ATOM      8  H   UNL     1       9.174  -0.719  20.665  0.00  0.00    +0.213 HD
ENDBRANCH   1   7
BRANCH   2   9
ATOM      9  N   UNL     1       7.427  -3.144  22.927  0.00  0.00    -0.160 NA
ATOM     10  H   UNL     1       7.785  -3.347  23.861  0.00  0.00    +0.151 HD
BRANCH   9  11
ATOM     11  S   UNL     1       5.786  -3.426  22.867  0.00  0.00    +0.149 S 
ATOM     12  O   UNL     1       5.349  -3.185  21.518  0.00  0.00    -0.130 OA
ATOM     13  O   UNL     1       5.214  -2.763  24.009  0.00  0.00    -0.130 OA
BRANCH  11  14
ATOM     14  O   UNL     1       5.680  -4.999  23.166  0.00  0.00    -0.240 OA
ATOM     15  H   UNL     1       6.086  -5.475  22.415  0.00  0.00    +0.246 HD
ENDBRANCH  11  14
ENDBRANCH   9  11
ENDBRANCH   2   9
BRANCH   3  16
ATOM     16  O   UNL     1       7.795   0.576  22.510  0.00  0.00    -0.387 OA
ATOM     17  H   UNL     1       6.987   0.747  21.981  0.00  0.00    +0.210 HD
ENDBRANCH   3  16
BRANCH   4  18
ATOM     18  O   UNL     1       7.944  -1.700  25.361  0.00  0.00    -0.387 OA
ATOM     19  H   UNL     1       6.993  -1.821  25.190  0.00  0.00    +0.210 HD
ENDBRANCH   4  18
BRANCH   5  20
ATOM     20  C   UNL     1      10.690   0.449  23.818  0.00  0.00    +0.230 C 
BRANCH  20  21
ATOM     21  O   UNL     1      10.014   1.631  24.214  0.00  0.00    -0.213 OA
BRANCH  21  22
ATOM     22  S   UNL     1      10.053   2.879  23.172  0.00  0.00    +0.208 S 
ATOM     23  O   UNL     1      11.261   3.636  23.405  0.00  0.00    -0.118 OA
ATOM     24  O   UNL     1       8.746   3.491  23.166  0.00  0.00    -0.118 OA
BRANCH  22  25
ATOM     25  O   UNL     1      10.195   2.145  21.743  0.00  0.00    -0.231 OA
ATOM     26  H   UNL     1       9.687   1.307  21.785  0.00  0.00    +0.247 HD
ENDBRANCH  22  25
ENDBRANCH  21  22
ENDBRANCH  20  21
ENDBRANCH   5  20
TORSDOF 10
ENDMDL
MODEL 4
REMARK VINA RESULT:      -5.8      4.092      5.720
REMARK  Name = 
REMARK  10 active torsions:
REMARK  status: ('A' for Active; 'I' for Inactive)
REMARK    1  A    between atoms: O_1  and  C_2
REMARK    2  A    between atoms: C_5  and  C_7
REMARK    3  A    between atoms: C_7  and  O_8
REMARK    4  A    between atoms: O_8  and  S_9
REMARK    5  A    between atoms: S_9  and  O_10
REMARK    6  A    between atoms: C_13  and  O_15
REMARK    7  A    between atoms: C_16  and  O_18
REMARK    8  A    between atoms: C_19  and  N_21
REMARK    9  A    between atoms: N_21  and  S_22
REMARK   10  A    between atoms: S_22  and  O_23
REMARK                            x       y       z     vdW  Elec       q    Type
REMARK                         _______ _______ _______ _____ _____    ______ ____
ROOT
ATOM      1  C   UNL     1      10.365  -1.332  22.502  0.00  0.00    +0.269 C 
ATOM      2  C   UNL     1       9.252  -2.233  23.087  0.00  0.00    +0.165 C 
ATOM      3  C   UNL     1       8.167  -1.325  23.723  0.00  0.00    +0.169 C 
ATOM      4  C   UNL     1       8.770  -0.321  24.718  0.00  0.00    +0.176 C 
ATOM      5  C   UNL     1       9.966   0.447  24.114  0.00  0.00    +0.180 C 
ATOM      6  O   UNL     1      10.907  -0.423  23.460  0.00  0.00    -0.342 OA
ENDROOT
BRANCH   1   7
ATOM      7  O   UNL     1       9.857  -0.625  21.375  0.00  0.00    -0.366 OA
ATOM      8  H   UNL     1       9.089  -1.148  21.073  0.00  0.00    +0.213 HD
ENDBRANCH   1   7
BRANCH   2   9
ATOM      9  N   UNL     1       9.762  -3.219  24.085  0.00  0.00    -0.160 NA
ATOM     10  H   UNL     1      10.239  -2.796  24.883  0.00  0.00    +0.151 HD
BRANCH   9  11
ATOM     11  S   UNL     1       8.753  -4.440  24.603  0.00  0.00    +0.149 S 
ATOM     12  O   UNL     1       7.894  -4.793  23.504  0.00  0.00    -0.130 OA
ATOM     13  O   UNL     1       8.256  -4.043  25.893  0.00  0.00    -0.130 OA
BRANCH  11  14
ATOM     14  O   UNL     1       9.767  -5.655  24.870  0.00  0.00    -0.240 OA
ATOM     15  H   UNL     1      10.663  -5.280  24.979  0.00  0.00    +0.246 HD
ENDBRANCH  11  14
ENDBRANCH   9  11
ENDBRANCH   2   9
BRANCH   3  16
ATOM     16  O   UNL     1       7.408  -0.619  22.727  0.00  0.00    -0.387 OA
ATOM     17  H   UNL     1       7.294  -1.211  21.955  0.00  0.00    +0.210 HD
ENDBRANCH   3  16
BRANCH   4  18
ATOM     18  O   UNL     1       9.187  -1.051  25.886  0.00  0.00    -0.387 OA
ATOM     19  H   UNL     1       9.766  -1.781  25.604  0.00  0.00    +0.210 HD
ENDBRANCH   4  18
BRANCH   5  20
ATOM     20  C   UNL     1       9.599   1.634  23.210  0.00  0.00    +0.230 C 
BRANCH  20  21
ATOM     21  O   UNL     1       8.332   2.182  23.535  0.00  0.00    -0.213 OA
BRANCH  21  22
ATOM     22  S   UNL     1       7.383   2.619  22.288  0.00  0.00    +0.208 S 
ATOM     23  O   UNL     1       7.537   4.039  22.069  0.00  0.00    -0.118 OA
ATOM     24  O   UNL     1       6.093   2.000  22.475  0.00  0.00    -0.118 OA
BRANCH  22  25
ATOM     25  O   UNL     1       8.057   1.849  21.041  0.00  0.00    -0.231 OA
ATOM     26  H   UNL     1       8.497   1.045  21.388  0.00  0.00    +0.247 HD
ENDBRANCH  22  25
ENDBRANCH  21  22
ENDBRANCH  20  21
ENDBRANCH   5  20
TORSDOF 10
ENDMDL
MODEL 5
REMARK VINA RESULT:      -5.8      6.037      8.593
REMARK  Name = 
REMARK  10 active torsions:
REMARK  status: ('A' for Active; 'I' for Inactive)
REMARK    1  A    between atoms: O_1  and  C_2
REMARK    2  A    between atoms: C_5  and  C_7
REMARK    3  A    between atoms: C_7  and  O_8
REMARK    4  A    between atoms: O_8  and  S_9
REMARK    5  A    between atoms: S_9  and  O_10
REMARK    6  A    between atoms: C_13  and  O_15
REMARK    7  A    between atoms: C_16  and  O_18
REMARK    8  A    between atoms: C_19  and  N_21
REMARK    9  A    between atoms: N_21  and  S_22
REMARK   10  A    between atoms: S_22  and  O_23
REMARK                            x       y       z     vdW  Elec       q    Type
REMARK                         _______ _______ _______ _____ _____    ______ ____
ROOT
ATOM      1  C   UNL     1       8.562   2.398  24.540  0.00  0.00    +0.269 C 
ATOM      2  C   UNL     1       7.910   2.649  23.159  0.00  0.00    +0.165 C 
ATOM      3  C   UNL     1       8.304   1.486  22.210  0.00  0.00    +0.169 C 
ATOM      4  C   UNL     1       9.824   1.264  22.174  0.00  0.00    +0.176 C 
ATOM      5  C   UNL     1      10.429   1.160  23.590  0.00  0.00    +0.180 C 
ATOM      6  O   UNL     1       9.974   2.209  24.464  0.00  0.00    -0.342 OA
ENDROOT
BRANCH   1   7
ATOM      7  O   UNL     1       7.940   1.274  25.157  0.00  0.00    -0.366 OA
ATOM      8  H   UNL     1       7.892   1.501  26.106  0.00  0.00    +0.213 HD
ENDBRANCH   1   7
BRANCH   2   9
ATOM      9  N   UNL     1       8.292   3.964  22.563  0.00  0.00    -0.160 NA
ATOM     10  H   UNL     1       8.642   3.901  21.606  0.00  0.00    +0.151 HD
BRANCH   9  11
ATOM     11  S   UNL     1       7.244   5.251  22.709  0.00  0.00    +0.149 S 
ATOM     12  O   UNL     1       7.669   6.037  23.836  0.00  0.00    -0.130 OA
ATOM     13  O   UNL     1       5.915   4.715  22.580  0.00  0.00    -0.130 OA
BRANCH  11  14
ATOM     14  O   UNL     1       7.518   6.090  21.368  0.00  0.00    -0.240 OA
ATOM     15  H   UNL     1       7.782   5.460  20.668  0.00  0.00    +0.246 HD
ENDBRANCH  11  14
ENDBRANCH   9  11
ENDBRANCH   2   9
BRANCH   3  16
ATOM     16  O   UNL     1       7.647   0.258  22.567  0.00  0.00    -0.387 OA
ATOM     17  H   UNL     1       8.317  -0.458  22.565  0.00  0.00    +0.210 HD
ENDBRANCH   3  16
BRANCH   4  18
ATOM     18  O   UNL     1      10.416   2.366  21.461  0.00  0.00    -0.387 OA
ATOM     19  H   UNL     1      11.202   2.041  20.988  0.00  0.00    +0.210 HD
ENDBRANCH   4  18
BRANCH   5  20
ATOM     20  C   UNL     1      10.292  -0.213  24.267  0.00  0.00    +0.230 C 
BRANCH  20  21
ATOM     21  O   UNL     1      10.223  -1.270  23.323  0.00  0.00    -0.213 OA
BRANCH  21  22
ATOM     22  S   UNL     1       9.166  -2.465  23.641  0.00  0.00    +0.208 S 
ATOM     23  O   UNL     1       9.877  -3.552  24.273  0.00  0.00    -0.118 OA
ATOM     24  O   UNL     1       8.348  -2.655  22.467  0.00  0.00    -0.118 OA
BRANCH  22  25
ATOM     25  O   UNL     1       8.196  -1.798  24.743  0.00  0.00    -0.231 OA
ATOM     26  H   UNL     1       8.144  -0.837  24.555  0.00  0.00    +0.247 HD
ENDBRANCH  22  25
ENDBRANCH  21  22
ENDBRANCH  20  21
ENDBRANCH   5  20
TORSDOF 10
ENDMDL
MODEL 6
REMARK VINA RESULT:      -5.8      3.517      4.399
REMARK  Name = 
REMARK  10 active torsions:
REMARK  status: ('A' for Active; 'I' for Inactive)
REMARK    1  A    between atoms: O_1  and  C_2
REMARK    2  A    between atoms: C_5  and  C_7
REMARK    3  A    between atoms: C_7  and  O_8
REMARK    4  A    between atoms: O_8  and  S_9
REMARK    5  A    between atoms: S_9  and  O_10
REMARK    6  A    between atoms: C_13  and  O_15
REMARK    7  A    between atoms: C_16  and  O_18
REMARK    8  A    between atoms: C_19  and  N_21
REMARK    9  A    between atoms: N_21  and  S_22
REMARK   10  A    between atoms: S_22  and  O_23
REMARK                            x       y       z     vdW  Elec       q    Type
REMARK                         _______ _______ _______ _____ _____    ______ ____
ROOT
ATOM      1  C   UNL     1       6.833  -2.366  23.153  0.00  0.00    +0.269 C 
ATOM      2  C   UNL     1       7.162  -2.619  24.643  0.00  0.00    +0.165 C 
ATOM      3  C   UNL     1       8.508  -1.921  24.976  0.00  0.00    +0.169 C 
ATOM      4  C   UNL     1       9.620  -2.320  23.994  0.00  0.00    +0.176 C 
ATOM      5  C   UNL     1       9.176  -2.174  22.523  0.00  0.00    +0.180 C 
ATOM      6  O   UNL     1       7.885  -2.761  22.274  0.00  0.00    -0.342 OA
ENDROOT
BRANCH   1   7
ATOM      7  O   UNL     1       6.518  -0.989  22.968  0.00  0.00    -0.366 OA
ATOM      8  H   UNL     1       7.332  -0.589  22.605  0.00  0.00    +0.213 HD
ENDBRANCH   1   7
BRANCH   2   9
ATOM      9  N   UNL     1       7.226  -4.071  24.989  0.00  0.00    -0.160 NA
ATOM     10  H   UNL     1       7.913  -4.598  24.448  0.00  0.00    +0.151 HD
BRANCH   9  11
ATOM     11  S   UNL     1       7.293  -4.517  26.593  0.00  0.00    +0.149 S 
ATOM     12  O   UNL     1       6.381  -3.675  27.320  0.00  0.00    -0.130 OA
ATOM     13  O   UNL     1       8.687  -4.638  26.927  0.00  0.00    -0.130 OA
BRANCH  11  14
ATOM     14  O   UNL     1       6.708  -6.011  26.575  0.00  0.00    -0.240 OA
ATOM     15  H   UNL     1       6.184  -6.138  27.390  0.00  0.00    +0.246 HD
ENDBRANCH  11  14
ENDBRANCH   9  11
ENDBRANCH   2   9
BRANCH   3  16
ATOM     16  O   UNL     1       8.377  -0.490  24.998  0.00  0.00    -0.387 OA
ATOM     17  H   UNL     1       9.276  -0.102  25.029  0.00  0.00    +0.210 HD
ENDBRANCH   3  16
BRANCH   4  18
ATOM     18  O   UNL     1       9.984  -3.686  24.268  0.00  0.00    -0.387 OA
ATOM     19  H   UNL     1      10.559  -4.002  23.549  0.00  0.00    +0.210 HD
ENDBRANCH   4  18
BRANCH   5  20
ATOM     20  C   UNL     1       9.247  -0.749  21.951  0.00  0.00    +0.230 C 
BRANCH  20  21
ATOM     21  O   UNL     1      10.211   0.048  22.619  0.00  0.00    -0.213 OA
BRANCH  21  22
ATOM     22  S   UNL     1       9.807   1.597  22.906  0.00  0.00    +0.208 S 
ATOM     23  O   UNL     1      10.703   2.129  23.907  0.00  0.00    -0.118 OA
ATOM     24  O   UNL     1       8.371   1.663  23.039  0.00  0.00    -0.118 OA
BRANCH  22  25
ATOM     25  O   UNL     1      10.146   2.318  21.503  0.00  0.00    -0.231 OA
ATOM     26  H   UNL     1       9.964   3.276  21.607  0.00  0.00    +0.247 HD
ENDBRANCH  22  25
ENDBRANCH  21  22
ENDBRANCH  20  21
ENDBRANCH   5  20
TORSDOF 10
ENDMDL
MODEL 7
REMARK VINA RESULT:      -5.6      6.581      8.566
REMARK  Name = 
REMARK  10 active torsions:
REMARK  status: ('A' for Active; 'I' for Inactive)
REMARK    1  A    between atoms: O_1  and  C_2
REMARK    2  A    between atoms: C_5  and  C_7
REMARK    3  A    between atoms: C_7  and  O_8
REMARK    4  A    between atoms: O_8  and  S_9
REMARK    5  A    between atoms: S_9  and  O_10
REMARK    6  A    between atoms: C_13  and  O_15
REMARK    7  A    between atoms: C_16  and  O_18
REMARK    8  A    between atoms: C_19  and  N_21
REMARK    9  A    between atoms: N_21  and  S_22
REMARK   10  A    between atoms: S_22  and  O_23
REMARK                            x       y       z     vdW  Elec       q    Type
REMARK                         _______ _______ _______ _____ _____    ______ ____
ROOT
ATOM      1  C   UNL     1      10.235   1.743  24.281  0.00  0.00    +0.269 C 
ATOM      2  C   UNL     1      10.009   0.592  23.272  0.00  0.00    +0.165 C 
ATOM      3  C   UNL     1       8.972   1.060  22.217  0.00  0.00    +0.169 C 
ATOM      4  C   UNL     1       7.693   1.603  22.870  0.00  0.00    +0.176 C 
ATOM      5  C   UNL     1       7.998   2.648  23.964  0.00  0.00    +0.180 C 
ATOM      6  O   UNL     1       9.024   2.211  24.874  0.00  0.00    -0.342 OA
ENDROOT
BRANCH   1   7
ATOM      7  O   UNL     1      10.919   2.812  23.632  0.00  0.00    -0.366 OA
ATOM      8  H   UNL     1      11.433   3.248  24.338  0.00  0.00    +0.213 HD
ENDBRANCH   1   7
BRANCH   2   9
ATOM      9  N   UNL     1       9.560  -0.675  23.922  0.00  0.00    -0.160 NA
ATOM     10  H   UNL     1       8.684  -0.589  24.440  0.00  0.00    +0.151 HD
BRANCH   9  11
ATOM     11  S   UNL     1       9.566  -2.085  23.034  0.00  0.00    +0.149 S 
ATOM     12  O   UNL     1       8.253  -2.253  22.470  0.00  0.00    -0.130 OA
ATOM     13  O   UNL     1      10.205  -3.082  23.851  0.00  0.00    -0.130 OA
BRANCH  11  14
ATOM     14  O   UNL     1      10.595  -1.756  21.847  0.00  0.00    -0.240 OA
ATOM     15  H   UNL     1      11.019  -0.898  22.046  0.00  0.00    +0.246 HD
ENDBRANCH  11  14
ENDBRANCH   9  11
ENDBRANCH   2   9
BRANCH   3  16
ATOM     16  O   UNL     1       9.520   2.052  21.332  0.00  0.00    -0.387 OA
ATOM     17  H   UNL     1       9.248   1.827  20.417  0.00  0.00    +0.210 HD
ENDBRANCH   3  16
BRANCH   4  18
ATOM     18  O   UNL     1       6.975   0.490  23.433  0.00  0.00    -0.387 OA
ATOM     19  H   UNL     1       7.209  -0.313  22.935  0.00  0.00    +0.210 HD
ENDBRANCH   4  18
BRANCH   5  20
ATOM     20  C   UNL     1       8.287   4.070  23.457  0.00  0.00    +0.230 C 
BRANCH  20  21
ATOM     21  O   UNL     1       8.962   4.856  24.425  0.00  0.00    -0.213 OA
BRANCH  21  22
ATOM     22  S   UNL     1       9.617   6.252  23.905  0.00  0.00    +0.208 S 
ATOM     23  O   UNL     1      10.228   6.921  25.031  0.00  0.00    -0.118 OA
ATOM     24  O   UNL     1       8.654   6.900  23.049  0.00  0.00    -0.118 OA
BRANCH  22  25
ATOM     25  O   UNL     1      10.798   5.748  22.928  0.00  0.00    -0.231 OA
ATOM     26  H   UNL     1      11.653   5.957  23.359  0.00  0.00    +0.247 HD
ENDBRANCH  22  25
ENDBRANCH  21  22
ENDBRANCH  20  21
ENDBRANCH   5  20
TORSDOF 10
ENDMDL
MODEL 8
REMARK VINA RESULT:      -5.6      3.927      6.992
REMARK  Name = 
REMARK  10 active torsions:
REMARK  status: ('A' for Active; 'I' for Inactive)
REMARK    1  A    between atoms: O_1  and  C_2
REMARK    2  A    between atoms: C_5  and  C_7
REMARK    3  A    between atoms: C_7  and  O_8
REMARK    4  A    between atoms: O_8  and  S_9
REMARK    5  A    between atoms: S_9  and  O_10
REMARK    6  A    between atoms: C_13  and  O_15
REMARK    7  A    between atoms: C_16  and  O_18
REMARK    8  A    between atoms: C_19  and  N_21
REMARK    9  A    between atoms: N_21  and  S_22
REMARK   10  A    between atoms: S_22  and  O_23
REMARK                            x       y       z     vdW  Elec       q    Type
REMARK                         _______ _______ _______ _____ _____    ______ ____
ROOT
ATOM      1  C   UNL     1       9.448  -1.564  22.290  0.00  0.00    +0.269 C 
ATOM      2  C   UNL     1       9.147  -0.351  23.201  0.00  0.00    +0.165 C 
ATOM      3  C   UNL     1       8.343  -0.847  24.432  0.00  0.00    +0.169 C 
ATOM      4  C   UNL     1       7.109  -1.663  24.020  0.00  0.00    +0.176 C 
ATOM      5  C   UNL     1       7.458  -2.771  23.003  0.00  0.00    +0.180 C 
ATOM      6  O   UNL     1       8.275  -2.288  21.920  0.00  0.00    -0.342 OA
ENDROOT
BRANCH   1   7
ATOM      7  O   UNL     1      10.381  -2.423  22.940  0.00  0.00    -0.366 OA
ATOM      8  H   UNL     1      10.737  -1.895  23.681  0.00  0.00    +0.213 HD
ENDBRANCH   1   7
BRANCH   2   9
ATOM      9  N   UNL     1       8.409   0.739  22.497  0.00  0.00    -0.160 NA
ATOM     10  H   UNL     1       7.398   0.717  22.639  0.00  0.00    +0.151 HD
BRANCH   9  11
ATOM     11  S   UNL     1       8.971   2.304  22.618  0.00  0.00    +0.149 S 
ATOM     12  O   UNL     1       9.519   2.471  23.938  0.00  0.00    -0.130 OA
ATOM     13  O   UNL     1       7.940   3.152  22.082  0.00  0.00    -0.130 OA
BRANCH  11  14
ATOM     14  O   UNL     1      10.173   2.337  21.556  0.00  0.00    -0.240 OA
ATOM     15  H   UNL     1      10.450   1.415  21.386  0.00  0.00    +0.246 HD
ENDBRANCH  11  14
ENDBRANCH   9  11
ENDBRANCH   2   9
BRANCH   3  16
ATOM     16  O   UNL     1       9.158  -1.624  25.326  0.00  0.00    -0.387 OA
ATOM     17  H   UNL     1       8.835  -2.549  25.306  0.00  0.00    +0.210 HD
ENDBRANCH   3  16
BRANCH   4  18
ATOM     18  O   UNL     1       6.145  -0.756  23.454  0.00  0.00    -0.387 OA
ATOM     19  H   UNL     1       6.539  -0.339  22.667  0.00  0.00    +0.210 HD
ENDBRANCH   4  18
BRANCH   5  20
ATOM     20  C   UNL     1       8.050  -4.056  23.604  0.00  0.00    +0.230 C 
BRANCH  20  21
ATOM     21  O   UNL     1       7.636  -4.259  24.945  0.00  0.00    -0.213 OA
BRANCH  21  22
ATOM     22  S   UNL     1       8.761  -4.813  25.981  0.00  0.00    +0.208 S 
ATOM     23  O   UNL     1       8.981  -3.813  26.999  0.00  0.00    -0.118 OA
ATOM     24  O   UNL     1       9.838  -5.378  25.204  0.00  0.00    -0.118 OA
BRANCH  22  25
ATOM     25  O   UNL     1       8.020  -6.069  26.671  0.00  0.00    -0.231 OA
ATOM     26  H   UNL     1       8.385  -6.888  26.274  0.00  0.00    +0.247 HD
ENDBRANCH  22  25
ENDBRANCH  21  22
ENDBRANCH  20  21
ENDBRANCH   5  20
TORSDOF 10
ENDMDL
MODEL 9
REMARK VINA RESULT:      -5.6      3.987      6.774
REMARK  Name = 
REMARK  10 active torsions:
REMARK  status: ('A' for Active; 'I' for Inactive)
REMARK    1  A    between atoms: O_1  and  C_2
REMARK    2  A    between atoms: C_5  and  C_7
REMARK    3  A    between atoms: C_7  and  O_8
REMARK    4  A    between atoms: O_8  and  S_9
REMARK    5  A    between atoms: S_9  and  O_10
REMARK    6  A    between atoms: C_13  and  O_15
REMARK    7  A    between atoms: C_16  and  O_18
REMARK    8  A    between atoms: C_19  and  N_21
REMARK    9  A    between atoms: N_21  and  S_22
REMARK   10  A    between atoms: S_22  and  O_23
REMARK                            x       y       z     vdW  Elec       q    Type
REMARK                         _______ _______ _______ _____ _____    ______ ____
ROOT
ATOM      1  C   UNL     1       8.904  -1.051  25.015  0.00  0.00    +0.269 C 
ATOM      2  C   UNL     1       8.637  -0.024  23.890  0.00  0.00    +0.165 C 
ATOM      3  C   UNL     1       7.925  -0.751  22.719  0.00  0.00    +0.169 C 
ATOM      4  C   UNL     1       8.687  -2.009  22.275  0.00  0.00    +0.176 C 
ATOM      5  C   UNL     1       9.043  -2.923  23.467  0.00  0.00    +0.180 C 
ATOM      6  O   UNL     1       9.625  -2.197  24.565  0.00  0.00    -0.342 OA
ENDROOT
BRANCH   1   7
ATOM      7  O   UNL     1       7.666  -1.439  25.604  0.00  0.00    -0.366 OA
ATOM      8  H   UNL     1       7.776  -2.383  25.825  0.00  0.00    +0.213 HD
ENDBRANCH   1   7
BRANCH   2   9
ATOM      9  N   UNL     1       9.879   0.652  23.409  0.00  0.00    -0.160 NA
ATOM     10  H   UNL     1      10.394   0.123  22.703  0.00  0.00    +0.151 HD
BRANCH   9  11
ATOM     11  S   UNL     1       9.809   2.261  22.982  0.00  0.00    +0.149 S 
ATOM     12  O   UNL     1      10.983   2.905  23.508  0.00  0.00    -0.130 OA
ATOM     13  O   UNL     1       8.472   2.705  23.273  0.00  0.00    -0.130 OA
BRANCH  11  14
ATOM     14  O   UNL     1       9.924   2.214  21.382  0.00  0.00    -0.240 OA
ATOM     15  H   UNL     1      10.210   1.314  21.128  0.00  0.00    +0.246 HD
ENDBRANCH  11  14
ENDBRANCH   9  11
ENDBRANCH   2   9
BRANCH   3  16
ATOM     16  O   UNL     1       6.570  -1.102  23.052  0.00  0.00    -0.387 OA
ATOM     17  H   UNL     1       6.009  -0.927  22.268  0.00  0.00    +0.210 HD
ENDBRANCH   3  16
BRANCH   4  18
ATOM     18  O   UNL     1       9.885  -1.585  21.599  0.00  0.00    -0.387 OA
ATOM     19  H   UNL     1       9.639  -0.959  20.896  0.00  0.00    +0.210 HD
ENDBRANCH   4  18
BRANCH   5  20
ATOM     20  C   UNL     1       7.910  -3.840  23.957  0.00  0.00    +0.230 C 
BRANCH  20  21
ATOM     21  O   UNL     1       8.296  -4.612  25.082  0.00  0.00    -0.213 OA
BRANCH  21  22
ATOM     22  S   UNL     1       7.127  -4.980  26.151  0.00  0.00    +0.208 S 
ATOM     23  O   UNL     1       6.107  -5.747  25.473  0.00  0.00    -0.118 OA
ATOM     24  O   UNL     1       6.824  -3.786  26.904  0.00  0.00    -0.118 OA
BRANCH  22  25
ATOM     25  O   UNL     1       7.884  -5.962  27.182  0.00  0.00    -0.231 OA
ATOM     26  H   UNL     1       8.457  -5.411  27.755  0.00  0.00    +0.247 HD
ENDBRANCH  22  25
ENDBRANCH  21  22
ENDBRANCH  20  21
ENDBRANCH   5  20
TORSDOF 10
ENDMDL
