MODEL 1
REMARK VINA RESULT:      -4.9      0.000      0.000
REMARK  Name = 
REMARK  6 active torsions:
REMARK  status: ('A' for Active; 'I' for Inactive)
REMARK    1  A    between atoms: C_2  and  C_3
REMARK    2  A    between atoms: C_2  and  O_4
REMARK    3  A    between atoms: C_2  and  C_5
REMARK    4  A    between atoms: C_5  and  N_7
REMARK    5  A    between atoms: C_5  and  C_8
REMARK    6  A    between atoms: C_8  and  C_9
REMARK                            x       y       z     vdW  Elec       q    Type
REMARK                         _______ _______ _______ _____ _____    ______ ____
ROOT
ATOM      1  C   UNL     1       9.129  -4.463  25.561  0.00  0.00    +0.084 C 
ENDROOT
BRANCH   1   2
ATOM      2  N   UNL     1      10.033  -5.618  25.354  0.00  0.00    -0.325 NA
ATOM      3  H   UNL     1       9.480  -6.476  25.360  0.00  0.00    +0.119 HD
ATOM      4  H   UNL     1      10.410  -5.553  24.408  0.00  0.00    +0.119 HD
ENDBRANCH   1   2
BRANCH   1   5
ATOM      5  C   UNL     1       7.842  -4.891  26.321  0.00  0.00    +0.128 C 
ATOM      6  C   UNL     1       6.671  -5.284  25.423  0.00  0.00    +0.039 C 
BRANCH   5   7
ATOM      7  O   UNL     1       8.154  -6.005  27.171  0.00  0.00    -0.391 OA
ATOM      8  H   UNL     1       7.695  -5.837  28.011  0.00  0.00    +0.210 HD
ENDBRANCH   5   7
ENDBRANCH   1   5
BRANCH   1   9
ATOM      9  C   UNL     1       8.843  -3.744  24.222  0.00  0.00    +0.056 C 
BRANCH   9  10
ATOM     10  C   UNL     1       9.240  -2.285  24.271  0.00  0.00    -0.046 A 
ATOM     11  C   UNL     1       8.941  -1.503  25.394  0.00  0.00    +0.004 A 
ATOM     12  C   UNL     1       9.433  -0.201  25.497  0.00  0.00    +0.000 A 
ATOM     13  C   UNL     1      10.219   0.331  24.475  0.00  0.00    +0.000 A 
ATOM     14  C   UNL     1      10.490  -0.423  23.337  0.00  0.00    +0.000 A 
ATOM     15  C   UNL     1       9.995  -1.723  23.231  0.00  0.00    +0.004 A 
ENDBRANCH   9  10
ENDBRANCH   1   9
TORSDOF 5
ENDMDL
MODEL 2
REMARK VINA RESULT:      -4.8      2.608      3.432
REMARK  Name = 
REMARK  6 active torsions:
REMARK  status: ('A' for Active; 'I' for Inactive)
REMARK    1  A    between atoms: C_2  and  C_3
REMARK    2  A    between atoms: C_2  and  O_4
REMARK    3  A    between atoms: C_2  and  C_5
REMARK    4  A    between atoms: C_5  and  N_7
REMARK    5  A    between atoms: C_5  and  C_8
REMARK    6  A    between atoms: C_8  and  C_9
REMARK                            x       y       z     vdW  Elec       q    Type
REMARK                         _______ _______ _______ _____ _____    ______ ____
ROOT
ATOM      1  C   UNL     1       9.296  -2.475  23.971  0.00  0.00    +0.084 C 
ENDROOT
BRANCH   1   2
ATOM      2  N   UNL     1       9.803  -3.789  24.431  0.00  0.00    -0.325 NA
ATOM      3  H   UNL     1       9.289  -4.528  23.951  0.00  0.00    +0.119 HD
ATOM      4  H   UNL     1      10.765  -3.883  24.106  0.00  0.00    +0.119 HD
ENDBRANCH   1   2
BRANCH   1   5
ATOM      5  C   UNL     1       7.792  -2.560  23.587  0.00  0.00    +0.128 C 
ATOM      6  C   UNL     1       6.961  -1.343  23.987  0.00  0.00    +0.039 C 
BRANCH   5   7
ATOM      7  O   UNL     1       7.686  -2.732  22.166  0.00  0.00    -0.391 OA
ATOM      8  H   UNL     1       6.842  -3.191  22.014  0.00  0.00    +0.210 HD
ENDBRANCH   5   7
ENDBRANCH   1   5
BRANCH   1   9
ATOM      9  C   UNL     1      10.188  -1.908  22.842  0.00  0.00    +0.056 C 
BRANCH   9  10
ATOM     10  C   UNL     1      10.250  -0.397  22.878  0.00  0.00    -0.046 A 
ATOM     11  C   UNL     1       9.790   0.360  21.794  0.00  0.00    +0.004 A 
ATOM     12  C   UNL     1       9.715   1.751  21.887  0.00  0.00    +0.000 A 
ATOM     13  C   UNL     1      10.108   2.394  23.060  0.00  0.00    +0.000 A 
ATOM     14  C   UNL     1      10.603   1.654  24.130  0.00  0.00    +0.000 A 
ATOM     15  C   UNL     1      10.683   0.264  24.036  0.00  0.00    +0.004 A 
ENDBRANCH   9  10
ENDBRANCH   1   9
TORSDOF 5
ENDMDL
MODEL 3
REMARK VINA RESULT:      -4.8      2.544      3.162
REMARK  Name = 
REMARK  6 active torsions:
REMARK  status: ('A' for Active; 'I' for Inactive)
REMARK    1  A    between atoms: C_2  and  C_3
REMARK    2  A    between atoms: C_2  and  O_4
REMARK    3  A    between atoms: C_2  and  C_5
REMARK    4  A    between atoms: C_5  and  N_7
REMARK    5  A    between atoms: C_5  and  C_8
REMARK    6  A    between atoms: C_8  and  C_9
REMARK                            x       y       z     vdW  Elec       q    Type
REMARK                         _______ _______ _______ _____ _____    ______ ____
ROOT
ATOM      1  C   UNL     1       9.295  -2.585  24.016  0.00  0.00    +0.084 C 
ENDROOT
BRANCH   1   2
ATOM      2  N   UNL     1       9.839  -3.892  24.451  0.00  0.00    -0.325 NA
ATOM      3  H   UNL     1       9.272  -4.246  25.223  0.00  0.00    +0.119 HD
ATOM      4  H   UNL     1       9.697  -4.558  23.691  0.00  0.00    +0.119 HD
ENDBRANCH   1   2
BRANCH   1   5
ATOM      5  C   UNL     1       7.813  -2.720  23.562  0.00  0.00    +0.128 C 
ATOM      6  C   UNL     1       6.921  -1.538  23.934  0.00  0.00    +0.039 C 
BRANCH   5   7
ATOM      7  O   UNL     1       7.779  -2.881  22.136  0.00  0.00    -0.391 OA
ATOM      8  H   UNL     1       6.938  -3.327  21.937  0.00  0.00    +0.210 HD
ENDBRANCH   5   7
ENDBRANCH   1   5
BRANCH   1   9
ATOM      9  C   UNL     1      10.208  -1.940  22.947  0.00  0.00    +0.056 C 
BRANCH   9  10
ATOM     10  C   UNL     1      10.152  -0.429  22.997  0.00  0.00    -0.046 A 
ATOM     11  C   UNL     1      10.574   0.263  24.139  0.00  0.00    +0.004 A 
ATOM     12  C   UNL     1      10.656   1.656  24.129  0.00  0.00    +0.000 A 
ATOM     13  C   UNL     1      10.307   2.367  22.982  0.00  0.00    +0.000 A 
ATOM     14  C   UNL     1       9.848   1.693  21.854  0.00  0.00    +0.000 A 
ATOM     15  C   UNL     1       9.762   0.301  21.864  0.00  0.00    +0.004 A 
ENDBRANCH   9  10
ENDBRANCH   1   9
TORSDOF 5
ENDMDL
MODEL 4
REMARK VINA RESULT:      -4.7      4.760      6.472
REMARK  Name = 
REMARK  6 active torsions:
REMARK  status: ('A' for Active; 'I' for Inactive)
REMARK    1  A    between atoms: C_2  and  C_3
REMARK    2  A    between atoms: C_2  and  O_4
REMARK    3  A    between atoms: C_2  and  C_5
REMARK    4  A    between atoms: C_5  and  N_7
REMARK    5  A    between atoms: C_5  and  C_8
REMARK    6  A    between atoms: C_8  and  C_9
REMARK                            x       y       z     vdW  Elec       q    Type
REMARK                         _______ _______ _______ _____ _____    ______ ____
ROOT
ATOM      1  C   UNL     1       9.835   1.288  22.092  0.00  0.00    +0.084 C 
ENDROOT
BRANCH   1   2
ATOM      2  N   UNL     1       8.798   1.520  21.060  0.00  0.00    -0.325 NA
ATOM      3  H   UNL     1       9.076   1.046  20.200  0.00  0.00    +0.119 HD
ATOM      4  H   UNL     1       7.947   1.044  21.361  0.00  0.00    +0.119 HD
ENDBRANCH   1   2
BRANCH   1   5
ATOM      5  C   UNL     1      10.176  -0.225  22.212  0.00  0.00    +0.128 C 
ATOM      6  C   UNL     1       9.700  -0.887  23.503  0.00  0.00    +0.039 C 
BRANCH   5   7
ATOM      7  O   UNL     1       9.588  -0.921  21.102  0.00  0.00    -0.391 OA
ATOM      8  H   UNL     1      10.134  -1.713  20.964  0.00  0.00    +0.210 HD
ENDBRANCH   5   7
ENDBRANCH   1   5
BRANCH   1   9
ATOM      9  C   UNL     1       9.424   1.933  23.437  0.00  0.00    +0.056 C 
BRANCH   9  10
ATOM     10  C   UNL     1      10.061   3.293  23.626  0.00  0.00    -0.046 A 
ATOM     11  C   UNL     1      11.415   3.492  23.328  0.00  0.00    +0.004 A 
ATOM     12  C   UNL     1      11.963   4.774  23.367  0.00  0.00    +0.000 A 
ATOM     13  C   UNL     1      11.166   5.865  23.713  0.00  0.00    +0.000 A 
ATOM     14  C   UNL     1       9.829   5.673  24.049  0.00  0.00    +0.000 A 
ATOM     15  C   UNL     1       9.280   4.391  24.015  0.00  0.00    +0.004 A 
ENDBRANCH   9  10
ENDBRANCH   1   9
TORSDOF 5
ENDMDL
MODEL 5
REMARK VINA RESULT:      -4.7      4.127      5.921
REMARK  Name = 
REMARK  6 active torsions:
REMARK  status: ('A' for Active; 'I' for Inactive)
REMARK    1  A    between atoms: C_2  and  C_3
REMARK    2  A    between atoms: C_2  and  O_4
REMARK    3  A    between atoms: C_2  and  C_5
REMARK    4  A    between atoms: C_5  and  N_7
REMARK    5  A    between atoms: C_5  and  C_8
REMARK    6  A    between atoms: C_8  and  C_9
REMARK                            x       y       z     vdW  Elec       q    Type
REMARK                         _______ _______ _______ _____ _____    ______ ____
ROOT
ATOM      1  C   UNL     1       9.145   0.750  22.285  0.00  0.00    +0.084 C 
ENDROOT
BRANCH   1   2
ATOM      2  N   UNL     1       8.778   1.319  20.968  0.00  0.00    -0.325 NA
ATOM      3  H   UNL     1       8.177   0.656  20.477  0.00  0.00    +0.119 HD
ATOM      4  H   UNL     1       8.190   2.136  21.134  0.00  0.00    +0.119 HD
ENDBRANCH   1   2
BRANCH   1   5
ATOM      5  C   UNL     1       9.853   1.811  23.174  0.00  0.00    +0.128 C 
ATOM      6  C   UNL     1      10.843   1.239  24.186  0.00  0.00    +0.039 C 
BRANCH   5   7
ATOM      7  O   UNL     1      10.556   2.732  22.325  0.00  0.00    -0.391 OA
ATOM      8  H   UNL     1      11.299   3.069  22.854  0.00  0.00    +0.210 HD
ENDBRANCH   5   7
ENDBRANCH   1   5
BRANCH   1   9
ATOM      9  C   UNL     1       9.964  -0.551  22.111  0.00  0.00    +0.056 C 
BRANCH   9  10
ATOM     10  C   UNL     1       9.291  -1.732  22.776  0.00  0.00    -0.046 A 
ATOM     11  C   UNL     1       8.116  -2.275  22.243  0.00  0.00    +0.004 A 
ATOM     12  C   UNL     1       7.578  -3.449  22.773  0.00  0.00    +0.000 A 
ATOM     13  C   UNL     1       8.206  -4.083  23.844  0.00  0.00    +0.000 A 
ATOM     14  C   UNL     1       9.353  -3.531  24.407  0.00  0.00    +0.000 A 
ATOM     15  C   UNL     1       9.889  -2.355  23.881  0.00  0.00    +0.004 A 
ENDBRANCH   9  10
ENDBRANCH   1   9
TORSDOF 5
ENDMDL
MODEL 6
REMARK VINA RESULT:      -4.7      2.044      2.753
REMARK  Name = 
REMARK  6 active torsions:
REMARK  status: ('A' for Active; 'I' for Inactive)
REMARK    1  A    between atoms: C_2  and  C_3
REMARK    2  A    between atoms: C_2  and  O_4
REMARK    3  A    between atoms: C_2  and  C_5
REMARK    4  A    between atoms: C_5  and  N_7
REMARK    5  A    between atoms: C_5  and  C_8
REMARK    6  A    between atoms: C_8  and  C_9
REMARK                            x       y       z     vdW  Elec       q    Type
REMARK                         _______ _______ _______ _____ _____    ______ ____
ROOT
ATOM      1  C   UNL     1       8.510  -2.896  24.201  0.00  0.00    +0.084 C 
ENDROOT
BRANCH   1   2
ATOM      2  N   UNL     1       8.006  -2.121  25.358  0.00  0.00    -0.325 NA
ATOM      3  H   UNL     1       8.296  -1.148  25.256  0.00  0.00    +0.119 HD
ATOM      4  H   UNL     1       6.988  -2.101  25.300  0.00  0.00    +0.119 HD
ENDBRANCH   1   2
BRANCH   1   5
ATOM      5  C   UNL     1       8.363  -4.425  24.446  0.00  0.00    +0.128 C 
ATOM      6  C   UNL     1       7.663  -5.187  23.324  0.00  0.00    +0.039 C 
BRANCH   5   7
ATOM      7  O   UNL     1       9.670  -4.991  24.632  0.00  0.00    -0.391 OA
ATOM      8  H   UNL     1      10.284  -4.407  24.156  0.00  0.00    +0.210 HD
ENDBRANCH   5   7
ENDBRANCH   1   5
BRANCH   1   9
ATOM      9  C   UNL     1       9.952  -2.467  23.840  0.00  0.00    +0.056 C 
BRANCH   9  10
ATOM     10  C   UNL     1       9.984  -1.113  23.165  0.00  0.00    -0.046 A 
ATOM     11  C   UNL     1       9.452  -0.946  21.881  0.00  0.00    +0.004 A 
ATOM     12  C   UNL     1       9.353   0.328  21.319  0.00  0.00    +0.000 A 
ATOM     13  C   UNL     1       9.793   1.442  22.034  0.00  0.00    +0.000 A 
ATOM     14  C   UNL     1      10.359   1.283  23.296  0.00  0.00    +0.000 A 
ATOM     15  C   UNL     1      10.463   0.009  23.856  0.00  0.00    +0.004 A 
ENDBRANCH   9  10
ENDBRANCH   1   9
TORSDOF 5
ENDMDL
MODEL 7
REMARK VINA RESULT:      -4.7      5.570      7.814
REMARK  Name = 
REMARK  6 active torsions:
REMARK  status: ('A' for Active; 'I' for Inactive)
REMARK    1  A    between atoms: C_2  and  C_3
REMARK    2  A    between atoms: C_2  and  O_4
REMARK    3  A    between atoms: C_2  and  C_5
REMARK    4  A    between atoms: C_5  and  N_7
REMARK    5  A    between atoms: C_5  and  C_8
REMARK    6  A    between atoms: C_8  and  C_9
REMARK                            x       y       z     vdW  Elec       q    Type
REMARK                         _______ _______ _______ _____ _____    ______ ____
ROOT
ATOM      1  C   UNL     1       9.603   4.064  23.743  0.00  0.00    +0.084 C 
ENDROOT
BRANCH   1   2
ATOM      2  N   UNL     1       8.452   3.942  22.819  0.00  0.00    -0.325 NA
ATOM      3  H   UNL     1       8.770   4.128  21.868  0.00  0.00    +0.119 HD
ATOM      4  H   UNL     1       8.158   2.965  22.814  0.00  0.00    +0.119 HD
ENDBRANCH   1   2
BRANCH   1   5
ATOM      5  C   UNL     1      10.023   5.551  23.919  0.00  0.00    +0.128 C 
ATOM      6  C   UNL     1      11.527   5.802  23.850  0.00  0.00    +0.039 C 
BRANCH   5   7
ATOM      7  O   UNL     1       9.386   6.336  22.900  0.00  0.00    -0.391 OA
ATOM      8  H   UNL     1      10.013   6.368  22.157  0.00  0.00    +0.210 HD
ENDBRANCH   5   7
ENDBRANCH   1   5
BRANCH   1   9
ATOM      9  C   UNL     1      10.765   3.146  23.295  0.00  0.00    +0.056 C 
BRANCH   9  10
ATOM     10  C   UNL     1      10.346   1.693  23.245  0.00  0.00    -0.046 A 
ATOM     11  C   UNL     1      10.011   1.091  22.026  0.00  0.00    +0.004 A 
ATOM     12  C   UNL     1       9.765  -0.282  21.962  0.00  0.00    +0.000 A 
ATOM     13  C   UNL     1       9.844  -1.059  23.117  0.00  0.00    +0.000 A 
ATOM     14  C   UNL     1      10.138  -0.465  24.340  0.00  0.00    +0.000 A 
ATOM     15  C   UNL     1      10.379   0.908  24.406  0.00  0.00    +0.004 A 
ENDBRANCH   9  10
ENDBRANCH   1   9
TORSDOF 5
ENDMDL
MODEL 8
REMARK VINA RESULT:      -4.5      5.180      6.856
REMARK  Name = 
REMARK  6 active torsions:
REMARK  status: ('A' for Active; 'I' for Inactive)
REMARK    1  A    between atoms: C_2  and  C_3
REMARK    2  A    between atoms: C_2  and  O_4
REMARK    3  A    between atoms: C_2  and  C_5
REMARK    4  A    between atoms: C_5  and  N_7
REMARK    5  A    between atoms: C_5  and  C_8
REMARK    6  A    between atoms: C_8  and  C_9
REMARK                            x       y       z     vdW  Elec       q    Type
REMARK                         _______ _______ _______ _____ _____    ______ ____
ROOT
ATOM      1  C   UNL     1      10.206   3.184  23.187  0.00  0.00    +0.084 C 
ENDROOT
BRANCH   1   2
ATOM      2  N   UNL     1      11.307   4.173  23.248  0.00  0.00    -0.325 NA
ATOM      3  H   UNL     1      11.317   4.711  22.382  0.00  0.00    +0.119 HD
ATOM      4  H   UNL     1      11.080   4.849  23.978  0.00  0.00    +0.119 HD
ENDBRANCH   1   2
BRANCH   1   5
ATOM      5  C   UNL     1       8.841   3.847  23.529  0.00  0.00    +0.128 C 
ATOM      6  C   UNL     1       8.541   3.956  25.022  0.00  0.00    +0.039 C 
BRANCH   5   7
ATOM      7  O   UNL     1       8.813   5.167  22.965  0.00  0.00    -0.391 OA
ATOM      8  H   UNL     1       9.615   5.242  22.420  0.00  0.00    +0.210 HD
ENDBRANCH   5   7
ENDBRANCH   1   5
BRANCH   1   9
ATOM      9  C   UNL     1      10.527   1.951  24.064  0.00  0.00    +0.056 C 
BRANCH   9  10
ATOM     10  C   UNL     1      10.220   0.655  23.346  0.00  0.00    -0.046 A 
ATOM     11  C   UNL     1      10.222  -0.561  24.041  0.00  0.00    +0.004 A 
ATOM     12  C   UNL     1       9.800  -1.733  23.411  0.00  0.00    +0.000 A 
ATOM     13  C   UNL     1       9.382  -1.699  22.081  0.00  0.00    +0.000 A 
ATOM     14  C   UNL     1       9.413  -0.503  21.370  0.00  0.00    +0.000 A 
ATOM     15  C   UNL     1       9.840   0.668  21.997  0.00  0.00    +0.004 A 
ENDBRANCH   9  10
ENDBRANCH   1   9
TORSDOF 5
ENDMDL
MODEL 9
REMARK VINA RESULT:      -4.4      3.680      5.690
REMARK  Name = 
REMARK  6 active torsions:
REMARK  status: ('A' for Active; 'I' for Inactive)
REMARK    1  A    between atoms: C_2  and  C_3
REMARK    2  A    between atoms: C_2  and  O_4
REMARK    3  A    between atoms: C_2  and  C_5
REMARK    4  A    between atoms: C_5  and  N_7
REMARK    5  A    between atoms: C_5  and  C_8
REMARK    6  A    between atoms: C_8  and  C_9
REMARK                            x       y       z     vdW  Elec       q    Type
REMARK                         _______ _______ _______ _____ _____    ______ ____
ROOT
ATOM      1  C   UNL     1       8.577  -1.246  23.226  0.00  0.00    +0.084 C 
ENDROOT
BRANCH   1   2
ATOM      2  N   UNL     1       8.772  -0.030  24.049  0.00  0.00    -0.325 NA
ATOM      3  H   UNL     1       9.678  -0.087  24.515  0.00  0.00    +0.119 HD
ATOM      4  H   UNL     1       8.850   0.766  23.415  0.00  0.00    +0.119 HD
ENDBRANCH   1   2
BRANCH   1   5
ATOM      5  C   UNL     1       9.144  -1.047  21.792  0.00  0.00    +0.128 C 
ATOM      6  C   UNL     1       9.245   0.409  21.342  0.00  0.00    +0.039 C 
BRANCH   5   7
ATOM      7  O   UNL     1      10.453  -1.633  21.725  0.00  0.00    -0.391 OA
ATOM      8  H   UNL     1      11.022  -1.080  22.287  0.00  0.00    +0.210 HD
ENDBRANCH   5   7
ENDBRANCH   1   5
BRANCH   1   9
ATOM      9  C   UNL     1       7.095  -1.688  23.246  0.00  0.00    +0.056 C 
BRANCH   9  10
ATOM     10  C   UNL     1       6.937  -3.143  22.859  0.00  0.00    -0.046 A 
ATOM     11  C   UNL     1       6.141  -3.506  21.765  0.00  0.00    +0.004 A 
ATOM     12  C   UNL     1       6.111  -4.829  21.324  0.00  0.00    +0.000 A 
ATOM     13  C   UNL     1       6.870  -5.800  21.978  0.00  0.00    +0.000 A 
ATOM     14  C   UNL     1       7.634  -5.458  23.089  0.00  0.00    +0.000 A 
ATOM     15  C   UNL     1       7.660  -4.136  23.535  0.00  0.00    +0.004 A 
ENDBRANCH   9  10
ENDBRANCH   1   9
TORSDOF 5
ENDMDL
