MODEL 1
REMARK VINA RESULT:      -6.9      0.000      0.000
REMARK  Name = 
REMARK  14 active torsions:
REMARK  status: ('A' for Active; 'I' for Inactive)
REMARK    1  A    between atoms: C_1  and  C_2
REMARK    2  A    between atoms: C_2  and  C_3
REMARK    3  A    between atoms: C_3  and  C_4
REMARK    4  A    between atoms: C_4  and  C_5
REMARK    5  A    between atoms: N_7  and  C_8
REMARK    6  A    between atoms: N_7  and  C_26
REMARK    7  A    between atoms: C_8  and  C_9
REMARK    8  A    between atoms: C_12  and  C_15
REMARK    9  A    between atoms: C_20  and  C_21
REMARK   10  A    between atoms: C_26  and  C_28
REMARK   11  A    between atoms: C_26  and  C_31
REMARK   12  A    between atoms: C_28  and  C_29
REMARK   13  A    between atoms: C_28  and  C_30
REMARK   14  A    between atoms: C_31  and  O_32
REMARK                            x       y       z     vdW  Elec       q    Type
REMARK                         _______ _______ _______ _____ _____    ______ ____
ROOT
ATOM      1  C   UNL     1       7.282  -2.414  26.290  0.00  0.00    -0.030 A 
ATOM      2  C   UNL     1       8.498  -1.875  26.713  0.00  0.00    +0.006 A 
ATOM      3  C   UNL     1       8.843  -0.561  26.377  0.00  0.00    +0.009 A 
ATOM      4  C   UNL     1       8.024   0.216  25.541  0.00  0.00    -0.017 A 
ATOM      5  C   UNL     1       6.726  -0.274  25.304  0.00  0.00    +0.009 A 
ATOM      6  C   UNL     1       6.357  -1.569  25.676  0.00  0.00    +0.006 A 
ENDROOT
BRANCH   4   7
ATOM      7  C   UNL     1       8.528   1.437  24.843  0.00  0.00    -0.007 A 
ATOM      8  C   UNL     1       9.262   1.413  23.622  0.00  0.00    +0.030 A 
ATOM      9  C   UNL     1       9.675   2.625  23.023  0.00  0.00    +0.012 A 
ATOM     10  C   UNL     1       9.321   3.859  23.557  0.00  0.00    +0.001 A 
ATOM     11  C   UNL     1       8.566   3.902  24.717  0.00  0.00    +0.001 A 
ATOM     12  C   UNL     1       8.199   2.714  25.360  0.00  0.00    +0.009 A 
BRANCH   8  13
ATOM     13  C   UNL     1       9.570   0.199  22.864  0.00  0.00    +0.205 A 
ATOM     14  N   UNL     1      10.548  -0.702  23.217  0.00  0.00    -0.108 NA
ATOM     15  N   UNL     1      10.512  -1.681  22.328  0.00  0.00    -0.049 NA
ATOM     16  N   UNL     1       9.490  -1.371  21.529  0.00  0.00    -0.176 N 
ATOM     17  H   UNL     1       9.195  -1.990  20.778  0.00  0.00    +0.214 HD
ATOM     18  N   UNL     1       8.876  -0.208  21.781  0.00  0.00    -0.133 NA
ENDBRANCH   8  13
ENDBRANCH   4   7
BRANCH   1  19
ATOM     19  C   UNL     1       6.973  -3.876  26.469  0.00  0.00    +0.143 C 
BRANCH  19  21
ATOM     20  C   UNL     1       5.438  -5.415  25.280  0.00  0.00    +0.217 C 
ATOM     21  N   UNL     1       6.607  -4.644  25.250  0.00  0.00    -0.283 N 
ATOM     22  O   UNL     1       5.177  -6.219  24.391  0.00  0.00    -0.276 OA
BRANCH  20  23
ATOM     23  C   UNL     1       4.467  -5.204  26.431  0.00  0.00    +0.096 C 
BRANCH  23  24
ATOM     24  C   UNL     1       3.061  -4.802  25.986  0.00  0.00    +0.009 C 
BRANCH  24  26
ATOM     25  C   UNL     1       2.951  -2.356  26.642  0.00  0.00    +0.004 C 
ATOM     26  C   UNL     1       3.084  -3.349  25.504  0.00  0.00    -0.003 C 
ENDBRANCH  24  26
ENDBRANCH  23  24
ENDBRANCH  20  23
BRANCH  21  27
ATOM     27  C   UNL     1       7.733  -5.070  24.336  0.00  0.00    +0.187 C 
BRANCH  27  28
ATOM     28  C   UNL     1       7.565  -4.482  22.895  0.00  0.00    +0.014 C 
ATOM     29  C   UNL     1       6.569  -3.322  22.810  0.00  0.00    +0.009 C 
ATOM     30  C   UNL     1       7.218  -5.510  21.817  0.00  0.00    +0.009 C 
ENDBRANCH  27  28
BRANCH  27  31
ATOM     31  C   UNL     1       9.227  -5.087  24.815  0.00  0.00    +0.326 C 
ATOM     32  O   UNL     1      10.010  -4.180  24.553  0.00  0.00    -0.249 OA
BRANCH  31  33
ATOM     33  O   UNL     1       9.621  -6.080  25.632  0.00  0.00    -0.479 OA
ATOM     34  H   UNL     1       9.290  -6.964  25.355  0.00  0.00    +0.295 HD
ENDBRANCH  31  33
ENDBRANCH  27  31
ENDBRANCH  21  27
ENDBRANCH  19  21
ENDBRANCH   1  19
TORSDOF 11
ENDMDL
MODEL 2
REMARK VINA RESULT:      -6.8      3.058      7.654
REMARK  Name = 
REMARK  14 active torsions:
REMARK  status: ('A' for Active; 'I' for Inactive)
REMARK    1  A    between atoms: C_1  and  C_2
REMARK    2  A    between atoms: C_2  and  C_3
REMARK    3  A    between atoms: C_3  and  C_4
REMARK    4  A    between atoms: C_4  and  C_5
REMARK    5  A    between atoms: N_7  and  C_8
REMARK    6  A    between atoms: N_7  and  C_26
REMARK    7  A    between atoms: C_8  and  C_9
REMARK    8  A    between atoms: C_12  and  C_15
REMARK    9  A    between atoms: C_20  and  C_21
REMARK   10  A    between atoms: C_26  and  C_28
REMARK   11  A    between atoms: C_26  and  C_31
REMARK   12  A    between atoms: C_28  and  C_29
REMARK   13  A    between atoms: C_28  and  C_30
REMARK   14  A    between atoms: C_31  and  O_32
REMARK                            x       y       z     vdW  Elec       q    Type
REMARK                         _______ _______ _______ _____ _____    ______ ____
ROOT
ATOM      1  C   UNL     1       6.514  -0.776  23.646  0.00  0.00    -0.030 A 
ATOM      2  C   UNL     1       5.744  -1.065  24.775  0.00  0.00    +0.006 A 
ATOM      3  C   UNL     1       5.331  -2.376  25.032  0.00  0.00    +0.009 A 
ATOM      4  C   UNL     1       5.604  -3.416  24.128  0.00  0.00    -0.017 A 
ATOM      5  C   UNL     1       6.545  -3.139  23.119  0.00  0.00    +0.009 A 
ATOM      6  C   UNL     1       6.998  -1.839  22.882  0.00  0.00    +0.006 A 
ENDROOT
BRANCH   4   7
ATOM      7  C   UNL     1       4.859  -4.712  24.153  0.00  0.00    -0.007 A 
ATOM      8  C   UNL     1       5.177  -5.798  25.018  0.00  0.00    +0.030 A 
ATOM      9  C   UNL     1       4.396  -6.976  24.987  0.00  0.00    +0.012 A 
ATOM     10  C   UNL     1       3.270  -7.083  24.178  0.00  0.00    +0.001 A 
ATOM     11  C   UNL     1       2.918  -6.018  23.366  0.00  0.00    +0.001 A 
ATOM     12  C   UNL     1       3.712  -4.865  23.337  0.00  0.00    +0.009 A 
BRANCH   8  13
ATOM     13  C   UNL     1       6.233  -5.769  26.031  0.00  0.00    +0.205 A 
ATOM     14  N   UNL     1       6.039  -6.088  27.355  0.00  0.00    -0.108 NA
ATOM     15  N   UNL     1       7.215  -5.986  27.955  0.00  0.00    -0.049 NA
ATOM     16  N   UNL     1       8.066  -5.680  26.974  0.00  0.00    -0.176 N 
ATOM     17  H   UNL     1       9.064  -5.596  27.144  0.00  0.00    +0.214 HD
ATOM     18  N   UNL     1       7.528  -5.502  25.761  0.00  0.00    -0.133 NA
ENDBRANCH   8  13
ENDBRANCH   4   7
BRANCH   1  19
ATOM     19  C   UNL     1       6.804   0.644  23.243  0.00  0.00    +0.143 C 
BRANCH  19  21
ATOM     20  C   UNL     1       7.491   2.537  24.686  0.00  0.00    +0.217 C 
ATOM     21  N   UNL     1       7.853   1.364  24.011  0.00  0.00    -0.283 N 
ATOM     22  O   UNL     1       8.334   3.281  25.175  0.00  0.00    -0.276 OA
BRANCH  20  23
ATOM     23  C   UNL     1       6.011   2.852  24.836  0.00  0.00    +0.096 C 
BRANCH  23  24
ATOM     24  C   UNL     1       5.622   4.242  24.332  0.00  0.00    +0.009 C 
BRANCH  24  26
ATOM     25  C   UNL     1       6.475   5.772  22.500  0.00  0.00    +0.004 C 
ATOM     26  C   UNL     1       6.023   4.371  22.859  0.00  0.00    -0.003 C 
ENDBRANCH  24  26
ENDBRANCH  23  24
ENDBRANCH  20  23
BRANCH  21  27
ATOM     27  C   UNL     1       9.283   1.207  23.547  0.00  0.00    +0.187 C 
BRANCH  27  28
ATOM     28  C   UNL     1      10.063   0.161  24.411  0.00  0.00    +0.014 C 
ATOM     29  C   UNL     1       9.323  -0.272  25.680  0.00  0.00    +0.009 C 
ATOM     30  C   UNL     1      11.488   0.570  24.786  0.00  0.00    +0.009 C 
ENDBRANCH  27  28
BRANCH  27  31
ATOM     31  C   UNL     1       9.656   1.137  22.024  0.00  0.00    +0.326 C 
ATOM     32  O   UNL     1       9.587   0.095  21.379  0.00  0.00    -0.249 OA
BRANCH  31  33
ATOM     33  O   UNL     1       9.953   2.284  21.388  0.00  0.00    -0.479 OA
ATOM     34  H   UNL     1       9.264   2.978  21.500  0.00  0.00    +0.295 HD
ENDBRANCH  31  33
ENDBRANCH  27  31
ENDBRANCH  21  27
ENDBRANCH  19  21
ENDBRANCH   1  19
TORSDOF 11
ENDMDL
MODEL 3
REMARK VINA RESULT:      -6.6      2.047      7.459
REMARK  Name = 
REMARK  14 active torsions:
REMARK  status: ('A' for Active; 'I' for Inactive)
REMARK    1  A    between atoms: C_1  and  C_2
REMARK    2  A    between atoms: C_2  and  C_3
REMARK    3  A    between atoms: C_3  and  C_4
REMARK    4  A    between atoms: C_4  and  C_5
REMARK    5  A    between atoms: N_7  and  C_8
REMARK    6  A    between atoms: N_7  and  C_26
REMARK    7  A    between atoms: C_8  and  C_9
REMARK    8  A    between atoms: C_12  and  C_15
REMARK    9  A    between atoms: C_20  and  C_21
REMARK   10  A    between atoms: C_26  and  C_28
REMARK   11  A    between atoms: C_26  and  C_31
REMARK   12  A    between atoms: C_28  and  C_29
REMARK   13  A    between atoms: C_28  and  C_30
REMARK   14  A    between atoms: C_31  and  O_32
REMARK                            x       y       z     vdW  Elec       q    Type
REMARK                         _______ _______ _______ _____ _____    ______ ____
ROOT
ATOM      1  C   UNL     1       7.174  -3.631  22.504  0.00  0.00    -0.030 A 
ATOM      2  C   UNL     1       7.138  -5.020  22.363  0.00  0.00    +0.006 A 
ATOM      3  C   UNL     1       5.961  -5.727  22.627  0.00  0.00    +0.009 A 
ATOM      4  C   UNL     1       4.817  -5.078  23.120  0.00  0.00    -0.017 A 
ATOM      5  C   UNL     1       4.817  -3.672  23.055  0.00  0.00    +0.009 A 
ATOM      6  C   UNL     1       5.977  -2.957  22.748  0.00  0.00    +0.006 A 
ENDROOT
BRANCH   4   7
ATOM      7  C   UNL     1       3.702  -5.820  23.784  0.00  0.00    -0.007 A 
ATOM      8  C   UNL     1       3.686  -6.165  25.166  0.00  0.00    +0.030 A 
ATOM      9  C   UNL     1       2.573  -6.846  25.710  0.00  0.00    +0.012 A 
ATOM     10  C   UNL     1       1.448  -7.132  24.944  0.00  0.00    +0.001 A 
ATOM     11  C   UNL     1       1.427  -6.761  23.610  0.00  0.00    +0.001 A 
ATOM     12  C   UNL     1       2.543  -6.139  23.036  0.00  0.00    +0.009 A 
BRANCH   8  13
ATOM     13  C   UNL     1       4.726  -5.791  26.126  0.00  0.00    +0.205 A 
ATOM     14  N   UNL     1       5.623  -6.678  26.673  0.00  0.00    -0.108 NA
ATOM     15  N   UNL     1       6.427  -5.980  27.460  0.00  0.00    -0.049 NA
ATOM     16  N   UNL     1       6.032  -4.716  27.307  0.00  0.00    -0.176 N 
ATOM     17  H   UNL     1       6.520  -3.948  27.759  0.00  0.00    +0.214 HD
ATOM     18  N   UNL     1       4.967  -4.522  26.518  0.00  0.00    -0.133 NA
ENDBRANCH   8  13
ENDBRANCH   4   7
BRANCH   1  19
ATOM     19  C   UNL     1       8.469  -2.871  22.415  0.00  0.00    +0.143 C 
BRANCH  19  21
ATOM     20  C   UNL     1       9.496  -0.799  23.305  0.00  0.00    +0.217 C 
ATOM     21  N   UNL     1       8.821  -1.998  23.566  0.00  0.00    -0.283 N 
ATOM     22  O   UNL     1       9.985  -0.128  24.207  0.00  0.00    -0.276 OA
BRANCH  20  23
ATOM     23  C   UNL     1       9.577  -0.319  21.864  0.00  0.00    +0.096 C 
BRANCH  23  24
ATOM     24  C   UNL     1       9.599   1.203  21.721  0.00  0.00    +0.009 C 
BRANCH  24  26
ATOM     25  C   UNL     1       7.256   1.718  22.544  0.00  0.00    +0.004 C 
ATOM     26  C   UNL     1       8.194   1.692  21.353  0.00  0.00    -0.003 C 
ENDBRANCH  24  26
ENDBRANCH  23  24
ENDBRANCH  20  23
BRANCH  21  27
ATOM     27  C   UNL     1       9.025  -2.667  24.907  0.00  0.00    +0.187 C 
BRANCH  27  28
ATOM     28  C   UNL     1       8.068  -2.081  25.998  0.00  0.00    +0.014 C 
ATOM     29  C   UNL     1       6.815  -1.409  25.431  0.00  0.00    +0.009 C 
ATOM     30  C   UNL     1       8.734  -1.125  26.990  0.00  0.00    +0.009 C 
ENDBRANCH  27  28
BRANCH  27  31
ATOM     31  C   UNL     1       9.217  -4.218  25.037  0.00  0.00    +0.326 C 
ATOM     32  O   UNL     1      10.279  -4.772  24.774  0.00  0.00    -0.249 OA
BRANCH  31  33
ATOM     33  O   UNL     1       8.211  -4.942  25.561  0.00  0.00    -0.479 OA
ATOM     34  H   UNL     1       8.093  -5.814  25.121  0.00  0.00    +0.295 HD
ENDBRANCH  31  33
ENDBRANCH  27  31
ENDBRANCH  21  27
ENDBRANCH  19  21
ENDBRANCH   1  19
TORSDOF 11
ENDMDL
MODEL 4
REMARK VINA RESULT:      -6.5      3.678      7.698
REMARK  Name = 
REMARK  14 active torsions:
REMARK  status: ('A' for Active; 'I' for Inactive)
REMARK    1  A    between atoms: C_1  and  C_2
REMARK    2  A    between atoms: C_2  and  C_3
REMARK    3  A    between atoms: C_3  and  C_4
REMARK    4  A    between atoms: C_4  and  C_5
REMARK    5  A    between atoms: N_7  and  C_8
REMARK    6  A    between atoms: N_7  and  C_26
REMARK    7  A    between atoms: C_8  and  C_9
REMARK    8  A    between atoms: C_12  and  C_15
REMARK    9  A    between atoms: C_20  and  C_21
REMARK   10  A    between atoms: C_26  and  C_28
REMARK   11  A    between atoms: C_26  and  C_31
REMARK   12  A    between atoms: C_28  and  C_29
REMARK   13  A    between atoms: C_28  and  C_30
REMARK   14  A    between atoms: C_31  and  O_32
REMARK                            x       y       z     vdW  Elec       q    Type
REMARK                         _______ _______ _______ _____ _____    ______ ____
ROOT
ATOM      1  C   UNL     1       7.697   0.139  25.112  0.00  0.00    -0.030 A 
ATOM      2  C   UNL     1       6.643   0.065  24.199  0.00  0.00    +0.006 A 
ATOM      3  C   UNL     1       6.244  -1.171  23.679  0.00  0.00    +0.009 A 
ATOM      4  C   UNL     1       6.939  -2.351  23.991  0.00  0.00    -0.017 A 
ATOM      5  C   UNL     1       7.852  -2.277  25.059  0.00  0.00    +0.009 A 
ATOM      6  C   UNL     1       8.224  -1.051  25.616  0.00  0.00    +0.006 A 
ENDROOT
BRANCH   4   7
ATOM      7  C   UNL     1       6.812  -3.593  23.169  0.00  0.00    -0.007 A 
ATOM      8  C   UNL     1       7.051  -4.907  23.667  0.00  0.00    +0.030 A 
ATOM      9  C   UNL     1       6.880  -6.024  22.818  0.00  0.00    +0.012 A 
ATOM     10  C   UNL     1       6.411  -5.885  21.516  0.00  0.00    +0.001 A 
ATOM     11  C   UNL     1       6.127  -4.620  21.032  0.00  0.00    +0.001 A 
ATOM     12  C   UNL     1       6.348  -3.494  21.836  0.00  0.00    +0.009 A 
BRANCH   8  13
ATOM     13  C   UNL     1       7.395  -5.217  25.055  0.00  0.00    +0.205 A 
ATOM     14  N   UNL     1       6.469  -5.419  26.051  0.00  0.00    -0.108 NA
ATOM     15  N   UNL     1       7.142  -5.711  27.153  0.00  0.00    -0.049 NA
ATOM     16  N   UNL     1       8.418  -5.738  26.769  0.00  0.00    -0.176 N 
ATOM     17  H   UNL     1       9.162  -5.997  27.412  0.00  0.00    +0.214 HD
ATOM     18  N   UNL     1       8.657  -5.415  25.491  0.00  0.00    -0.133 NA
ENDBRANCH   8  13
ENDBRANCH   4   7
BRANCH   1  19
ATOM     19  C   UNL     1       8.271   1.463  25.536  0.00  0.00    +0.143 C 
BRANCH  19  21
ATOM     20  C   UNL     1      10.108   2.146  24.021  0.00  0.00    +0.217 C 
ATOM     21  N   UNL     1       8.794   2.348  24.462  0.00  0.00    -0.283 N 
ATOM     22  O   UNL     1      10.668   2.951  23.284  0.00  0.00    -0.276 OA
BRANCH  20  23
ATOM     23  C   UNL     1      10.823   0.873  24.448  0.00  0.00    +0.096 C 
BRANCH  23  24
ATOM     24  C   UNL     1      10.810  -0.227  23.387  0.00  0.00    +0.009 C 
BRANCH  24  26
ATOM     25  C   UNL     1       9.281  -0.972  21.507  0.00  0.00    +0.004 C 
ATOM     26  C   UNL     1       9.907   0.205  22.228  0.00  0.00    -0.003 C 
ENDBRANCH  24  26
ENDBRANCH  23  24
ENDBRANCH  20  23
BRANCH  21  27
ATOM     27  C   UNL     1       8.197   3.732  24.351  0.00  0.00    +0.187 C 
BRANCH  27  28
ATOM     28  C   UNL     1       7.118   3.810  23.220  0.00  0.00    +0.014 C 
ATOM     29  C   UNL     1       7.348   2.822  22.073  0.00  0.00    +0.009 C 
ATOM     30  C   UNL     1       6.902   5.206  22.633  0.00  0.00    +0.009 C 
ENDBRANCH  27  28
BRANCH  27  31
ATOM     31  C   UNL     1       7.809   4.569  25.620  0.00  0.00    +0.326 C 
ATOM     32  O   UNL     1       8.599   5.326  26.174  0.00  0.00    -0.249 OA
BRANCH  31  33
ATOM     33  O   UNL     1       6.531   4.533  26.039  0.00  0.00    -0.479 OA
ATOM     34  H   UNL     1       6.286   5.306  26.598  0.00  0.00    +0.295 HD
ENDBRANCH  31  33
ENDBRANCH  27  31
ENDBRANCH  21  27
ENDBRANCH  19  21
ENDBRANCH   1  19
TORSDOF 11
ENDMDL
MODEL 5
REMARK VINA RESULT:      -6.4      1.269      1.834
REMARK  Name = 
REMARK  14 active torsions:
REMARK  status: ('A' for Active; 'I' for Inactive)
REMARK    1  A    between atoms: C_1  and  C_2
REMARK    2  A    between atoms: C_2  and  C_3
REMARK    3  A    between atoms: C_3  and  C_4
REMARK    4  A    between atoms: C_4  and  C_5
REMARK    5  A    between atoms: N_7  and  C_8
REMARK    6  A    between atoms: N_7  and  C_26
REMARK    7  A    between atoms: C_8  and  C_9
REMARK    8  A    between atoms: C_12  and  C_15
REMARK    9  A    between atoms: C_20  and  C_21
REMARK   10  A    between atoms: C_26  and  C_28
REMARK   11  A    between atoms: C_26  and  C_31
REMARK   12  A    between atoms: C_28  and  C_29
REMARK   13  A    between atoms: C_28  and  C_30
REMARK   14  A    between atoms: C_31  and  O_32
REMARK                            x       y       z     vdW  Elec       q    Type
REMARK                         _______ _______ _______ _____ _____    ______ ____
ROOT
ATOM      1  C   UNL     1       7.306  -2.087  25.964  0.00  0.00    -0.030 A 
ATOM      2  C   UNL     1       6.271  -1.314  25.433  0.00  0.00    +0.006 A 
ATOM      3  C   UNL     1       6.460   0.051  25.193  0.00  0.00    +0.009 A 
ATOM      4  C   UNL     1       7.655   0.695  25.554  0.00  0.00    -0.017 A 
ATOM      5  C   UNL     1       8.739  -0.136  25.891  0.00  0.00    +0.009 A 
ATOM      6  C   UNL     1       8.570  -1.509  26.089  0.00  0.00    +0.006 A 
ENDROOT
BRANCH   4   7
ATOM      7  C   UNL     1       7.750   2.181  25.691  0.00  0.00    -0.007 A 
ATOM      8  C   UNL     1       8.336   3.036  24.713  0.00  0.00    +0.030 A 
ATOM      9  C   UNL     1       8.357   4.434  24.921  0.00  0.00    +0.012 A 
ATOM     10  C   UNL     1       7.753   5.015  26.030  0.00  0.00    +0.001 A 
ATOM     11  C   UNL     1       7.137   4.203  26.967  0.00  0.00    +0.001 A 
ATOM     12  C   UNL     1       7.157   2.811  26.812  0.00  0.00    +0.009 A 
BRANCH   8  13
ATOM     13  C   UNL     1       8.868   2.582  23.427  0.00  0.00    +0.205 A 
ATOM     14  N   UNL     1      10.123   2.045  23.259  0.00  0.00    -0.108 NA
ATOM     15  N   UNL     1      10.237   1.719  21.981  0.00  0.00    -0.049 NA
ATOM     16  N   UNL     1       9.046   2.005  21.454  0.00  0.00    -0.176 N 
ATOM     17  H   UNL     1       8.831   1.799  20.483  0.00  0.00    +0.214 HD
ATOM     18  N   UNL     1       8.155   2.568  22.281  0.00  0.00    -0.133 NA
ENDBRANCH   8  13
ENDBRANCH   4   7
BRANCH   1  19
ATOM     19  C   UNL     1       7.071  -3.504  26.411  0.00  0.00    +0.143 C 
BRANCH  19  21
ATOM     20  C   UNL     1       5.501  -5.252  25.625  0.00  0.00    +0.217 C 
ATOM     21  N   UNL     1       6.641  -4.478  25.374  0.00  0.00    -0.283 N 
ATOM     22  O   UNL     1       5.200  -6.202  24.911  0.00  0.00    -0.276 OA
BRANCH  20  23
ATOM     23  C   UNL     1       4.610  -4.861  26.794  0.00  0.00    +0.096 C 
BRANCH  23  24
ATOM     24  C   UNL     1       3.164  -4.566  26.396  0.00  0.00    +0.009 C 
BRANCH  24  26
ATOM     25  C   UNL     1       3.007  -2.063  26.767  0.00  0.00    +0.004 C 
ATOM     26  C   UNL     1       3.096  -3.181  25.747  0.00  0.00    -0.003 C 
ENDBRANCH  24  26
ENDBRANCH  23  24
ENDBRANCH  20  23
BRANCH  21  27
ATOM     27  C   UNL     1       7.710  -5.037  24.463  0.00  0.00    +0.187 C 
BRANCH  27  28
ATOM     28  C   UNL     1       7.479  -4.618  22.972  0.00  0.00    +0.014 C 
ATOM     29  C   UNL     1       6.374  -3.574  22.784  0.00  0.00    +0.009 C 
ATOM     30  C   UNL     1       7.230  -5.779  22.009  0.00  0.00    +0.009 C 
ENDBRANCH  27  28
BRANCH  27  31
ATOM     31  C   UNL     1       9.226  -5.035  24.866  0.00  0.00    +0.326 C 
ATOM     32  O   UNL     1      10.010  -4.181  24.467  0.00  0.00    -0.249 OA
BRANCH  31  33
ATOM     33  O   UNL     1       9.644  -5.940  25.770  0.00  0.00    -0.479 OA
ATOM     34  H   UNL     1       9.214  -5.835  26.649  0.00  0.00    +0.295 HD
ENDBRANCH  31  33
ENDBRANCH  27  31
ENDBRANCH  21  27
ENDBRANCH  19  21
ENDBRANCH   1  19
TORSDOF 11
ENDMDL
MODEL 6
REMARK VINA RESULT:      -6.3      3.501      7.841
REMARK  Name = 
REMARK  14 active torsions:
REMARK  status: ('A' for Active; 'I' for Inactive)
REMARK    1  A    between atoms: C_1  and  C_2
REMARK    2  A    between atoms: C_2  and  C_3
REMARK    3  A    between atoms: C_3  and  C_4
REMARK    4  A    between atoms: C_4  and  C_5
REMARK    5  A    between atoms: N_7  and  C_8
REMARK    6  A    between atoms: N_7  and  C_26
REMARK    7  A    between atoms: C_8  and  C_9
REMARK    8  A    between atoms: C_12  and  C_15
REMARK    9  A    between atoms: C_20  and  C_21
REMARK   10  A    between atoms: C_26  and  C_28
REMARK   11  A    between atoms: C_26  and  C_31
REMARK   12  A    between atoms: C_28  and  C_29
REMARK   13  A    between atoms: C_28  and  C_30
REMARK   14  A    between atoms: C_31  and  O_32
REMARK                            x       y       z     vdW  Elec       q    Type
REMARK                         _______ _______ _______ _____ _____    ______ ____
ROOT
ATOM      1  C   UNL     1       6.986  -0.841  25.311  0.00  0.00    -0.030 A 
ATOM      2  C   UNL     1       7.192  -1.460  24.077  0.00  0.00    +0.006 A 
ATOM      3  C   UNL     1       6.379  -2.525  23.676  0.00  0.00    +0.009 A 
ATOM      4  C   UNL     1       5.397  -3.054  24.530  0.00  0.00    -0.017 A 
ATOM      5  C   UNL     1       5.077  -2.289  25.667  0.00  0.00    +0.009 A 
ATOM      6  C   UNL     1       5.857  -1.195  26.052  0.00  0.00    +0.006 A 
ENDROOT
BRANCH   4   7
ATOM      7  C   UNL     1       4.799  -4.407  24.318  0.00  0.00    -0.007 A 
ATOM      8  C   UNL     1       5.247  -5.589  24.974  0.00  0.00    +0.030 A 
ATOM      9  C   UNL     1       4.600  -6.822  24.728  0.00  0.00    +0.012 A 
ATOM     10  C   UNL     1       3.480  -6.905  23.908  0.00  0.00    +0.001 A 
ATOM     11  C   UNL     1       3.001  -5.757  23.299  0.00  0.00    +0.001 A 
ATOM     12  C   UNL     1       3.664  -4.537  23.482  0.00  0.00    +0.009 A 
BRANCH   8  13
ATOM     13  C   UNL     1       6.309  -5.626  25.981  0.00  0.00    +0.205 A 
ATOM     14  N   UNL     1       6.112  -5.975  27.297  0.00  0.00    -0.108 NA
ATOM     15  N   UNL     1       7.294  -5.931  27.891  0.00  0.00    -0.049 NA
ATOM     16  N   UNL     1       8.149  -5.628  26.915  0.00  0.00    -0.176 N 
ATOM     17  H   UNL     1       9.151  -5.584  27.080  0.00  0.00    +0.214 HD
ATOM     18  N   UNL     1       7.611  -5.396  25.710  0.00  0.00    -0.133 NA
ENDBRANCH   8  13
ENDBRANCH   4   7
BRANCH   1  19
ATOM     19  C   UNL     1       7.961   0.170  25.849  0.00  0.00    +0.143 C 
BRANCH  19  21
ATOM     20  C   UNL     1       8.752   2.288  24.834  0.00  0.00    +0.217 C 
ATOM     21  N   UNL     1       7.726   1.593  25.489  0.00  0.00    -0.283 N 
ATOM     22  O   UNL     1       8.707   3.503  24.680  0.00  0.00    -0.276 OA
BRANCH  20  23
ATOM     23  C   UNL     1       9.918   1.488  24.275  0.00  0.00    +0.096 C 
BRANCH  23  24
ATOM     24  C   UNL     1      10.279   1.849  22.834  0.00  0.00    +0.009 C 
BRANCH  24  26
ATOM     25  C   UNL     1       9.500  -0.150  21.482  0.00  0.00    +0.004 C 
ATOM     26  C   UNL     1       9.212   1.280  21.892  0.00  0.00    -0.003 C 
ENDBRANCH  24  26
ENDBRANCH  23  24
ENDBRANCH  20  23
BRANCH  21  27
ATOM     27  C   UNL     1       6.755   2.374  26.345  0.00  0.00    +0.187 C 
BRANCH  27  28
ATOM     28  C   UNL     1       5.373   2.557  25.633  0.00  0.00    +0.014 C 
ATOM     29  C   UNL     1       5.381   2.176  24.150  0.00  0.00    +0.009 C 
ATOM     30  C   UNL     1       4.753   3.947  25.782  0.00  0.00    +0.009 C 
ENDBRANCH  27  28
BRANCH  27  31
ATOM     31  C   UNL     1       6.616   2.114  27.885  0.00  0.00    +0.326 C 
ATOM     32  O   UNL     1       5.701   1.447  28.358  0.00  0.00    -0.249 OA
BRANCH  31  33
ATOM     33  O   UNL     1       7.599   2.548  28.695  0.00  0.00    -0.479 OA
ATOM     34  H   UNL     1       7.536   2.184  29.607  0.00  0.00    +0.295 HD
ENDBRANCH  31  33
ENDBRANCH  27  31
ENDBRANCH  21  27
ENDBRANCH  19  21
ENDBRANCH   1  19
TORSDOF 11
ENDMDL
MODEL 7
REMARK VINA RESULT:      -6.3      3.611      8.007
REMARK  Name = 
REMARK  14 active torsions:
REMARK  status: ('A' for Active; 'I' for Inactive)
REMARK    1  A    between atoms: C_1  and  C_2
REMARK    2  A    between atoms: C_2  and  C_3
REMARK    3  A    between atoms: C_3  and  C_4
REMARK    4  A    between atoms: C_4  and  C_5
REMARK    5  A    between atoms: N_7  and  C_8
REMARK    6  A    between atoms: N_7  and  C_26
REMARK    7  A    between atoms: C_8  and  C_9
REMARK    8  A    between atoms: C_12  and  C_15
REMARK    9  A    between atoms: C_20  and  C_21
REMARK   10  A    between atoms: C_26  and  C_28
REMARK   11  A    between atoms: C_26  and  C_31
REMARK   12  A    between atoms: C_28  and  C_29
REMARK   13  A    between atoms: C_28  and  C_30
REMARK   14  A    between atoms: C_31  and  O_32
REMARK                            x       y       z     vdW  Elec       q    Type
REMARK                         _______ _______ _______ _____ _____    ______ ____
ROOT
ATOM      1  C   UNL     1       9.238   0.610  24.343  0.00  0.00    -0.030 A 
ATOM      2  C   UNL     1       8.737  -0.301  25.274  0.00  0.00    +0.006 A 
ATOM      3  C   UNL     1       8.351  -1.583  24.871  0.00  0.00    +0.009 A 
ATOM      4  C   UNL     1       8.376  -1.960  23.518  0.00  0.00    -0.017 A 
ATOM      5  C   UNL     1       9.071  -1.105  22.642  0.00  0.00    +0.009 A 
ATOM      6  C   UNL     1       9.501   0.160  23.048  0.00  0.00    +0.006 A 
ENDROOT
BRANCH   4   7
ATOM      7  C   UNL     1       7.614  -3.138  23.004  0.00  0.00    -0.007 A 
ATOM      8  C   UNL     1       7.677  -4.441  23.576  0.00  0.00    +0.030 A 
ATOM      9  C   UNL     1       6.898  -5.489  23.033  0.00  0.00    +0.012 A 
ATOM     10  C   UNL     1       6.006  -5.268  21.990  0.00  0.00    +0.001 A 
ATOM     11  C   UNL     1       5.896  -3.996  21.453  0.00  0.00    +0.001 A 
ATOM     12  C   UNL     1       6.703  -2.958  21.935  0.00  0.00    +0.009 A 
BRANCH   8  13
ATOM     13  C   UNL     1       8.448  -4.784  24.772  0.00  0.00    +0.205 A 
ATOM     14  N   UNL     1       7.912  -4.868  26.036  0.00  0.00    -0.108 NA
ATOM     15  N   UNL     1       8.891  -5.234  26.848  0.00  0.00    -0.049 NA
ATOM     16  N   UNL     1       9.941  -5.417  26.047  0.00  0.00    -0.176 N 
ATOM     17  H   UNL     1      10.829  -5.761  26.404  0.00  0.00    +0.214 HD
ATOM     18  N   UNL     1       9.752  -5.131  24.752  0.00  0.00    -0.133 NA
ENDBRANCH   8  13
ENDBRANCH   4   7
BRANCH   1  19
ATOM     19  C   UNL     1       9.476   2.050  24.709  0.00  0.00    +0.143 C 
BRANCH  19  21
ATOM     20  C   UNL     1       8.874   4.291  23.841  0.00  0.00    +0.217 C 
ATOM     21  N   UNL     1       8.445   3.034  24.288  0.00  0.00    -0.283 N 
ATOM     22  O   UNL     1       8.085   5.212  23.662  0.00  0.00    -0.276 OA
BRANCH  20  23
ATOM     23  C   UNL     1      10.353   4.480  23.539  0.00  0.00    +0.096 C 
BRANCH  23  24
ATOM     24  C   UNL     1      10.884   5.867  23.901  0.00  0.00    +0.009 C 
BRANCH  24  26
ATOM     25  C   UNL     1      12.964   5.443  22.515  0.00  0.00    +0.004 C 
ATOM     26  C   UNL     1      12.415   5.841  23.871  0.00  0.00    -0.003 C 
ENDBRANCH  24  26
ENDBRANCH  23  24
ENDBRANCH  20  23
BRANCH  21  27
ATOM     27  C   UNL     1       7.077   2.919  24.920  0.00  0.00    +0.187 C 
BRANCH  27  28
ATOM     28  C   UNL     1       6.069   2.166  23.988  0.00  0.00    +0.014 C 
ATOM     29  C   UNL     1       6.533   2.054  22.533  0.00  0.00    +0.009 C 
ATOM     30  C   UNL     1       4.641   2.714  24.010  0.00  0.00    +0.009 C 
ENDBRANCH  27  28
BRANCH  27  31
ATOM     31  C   UNL     1       6.893   2.553  26.434  0.00  0.00    +0.326 C 
ATOM     32  O   UNL     1       6.228   1.590  26.801  0.00  0.00    -0.249 OA
BRANCH  31  33
ATOM     33  O   UNL     1       7.584   3.260  27.348  0.00  0.00    -0.479 OA
ATOM     34  H   UNL     1       7.264   4.186  27.442  0.00  0.00    +0.295 HD
ENDBRANCH  31  33
ENDBRANCH  27  31
ENDBRANCH  21  27
ENDBRANCH  19  21
ENDBRANCH   1  19
TORSDOF 11
ENDMDL
MODEL 8
REMARK VINA RESULT:      -6.3      1.603      2.401
REMARK  Name = 
REMARK  14 active torsions:
REMARK  status: ('A' for Active; 'I' for Inactive)
REMARK    1  A    between atoms: C_1  and  C_2
REMARK    2  A    between atoms: C_2  and  C_3
REMARK    3  A    between atoms: C_3  and  C_4
REMARK    4  A    between atoms: C_4  and  C_5
REMARK    5  A    between atoms: N_7  and  C_8
REMARK    6  A    between atoms: N_7  and  C_26
REMARK    7  A    between atoms: C_8  and  C_9
REMARK    8  A    between atoms: C_12  and  C_15
REMARK    9  A    between atoms: C_20  and  C_21
REMARK   10  A    between atoms: C_26  and  C_28
REMARK   11  A    between atoms: C_26  and  C_31
REMARK   12  A    between atoms: C_28  and  C_29
REMARK   13  A    between atoms: C_28  and  C_30
REMARK   14  A    between atoms: C_31  and  O_32
REMARK                            x       y       z     vdW  Elec       q    Type
REMARK                         _______ _______ _______ _____ _____    ______ ____
ROOT
ATOM      1  C   UNL     1       6.346  -1.789  25.443  0.00  0.00    -0.030 A 
ATOM      2  C   UNL     1       7.605  -1.626  26.024  0.00  0.00    +0.006 A 
ATOM      3  C   UNL     1       8.304  -0.425  25.869  0.00  0.00    +0.009 A 
ATOM      4  C   UNL     1       7.804   0.610  25.061  0.00  0.00    -0.017 A 
ATOM      5  C   UNL     1       6.459   0.500  24.663  0.00  0.00    +0.009 A 
ATOM      6  C   UNL     1       5.737  -0.681  24.854  0.00  0.00    +0.006 A 
ENDROOT
BRANCH   4   7
ATOM      7  C   UNL     1       8.673   1.714  24.550  0.00  0.00    -0.007 A 
ATOM      8  C   UNL     1       9.650   1.551  23.526  0.00  0.00    +0.030 A 
ATOM      9  C   UNL     1      10.407   2.663  23.090  0.00  0.00    +0.012 A 
ATOM     10  C   UNL     1      10.175   3.941  23.586  0.00  0.00    +0.001 A 
ATOM     11  C   UNL     1       9.196   4.126  24.548  0.00  0.00    +0.001 A 
ATOM     12  C   UNL     1       8.476   3.029  25.037  0.00  0.00    +0.009 A 
BRANCH   8  13
ATOM     13  C   UNL     1       9.892   0.302  22.803  0.00  0.00    +0.205 A 
ATOM     14  N   UNL     1      10.398  -0.838  23.384  0.00  0.00    -0.108 NA
ATOM     15  N   UNL     1      10.444  -1.766  22.440  0.00  0.00    -0.049 NA
ATOM     16  N   UNL     1       9.913  -1.179  21.367  0.00  0.00    -0.176 N 
ATOM     17  H   UNL     1       9.770  -1.689  20.499  0.00  0.00    +0.214 HD
ATOM     18  N   UNL     1       9.573   0.109  21.506  0.00  0.00    -0.133 NA
ENDBRANCH   8  13
ENDBRANCH   4   7
BRANCH   1  19
ATOM     19  C   UNL     1       5.661  -3.129  25.429  0.00  0.00    +0.143 C 
BRANCH  19  21
ATOM     20  C   UNL     1       7.255  -4.961  25.920  0.00  0.00    +0.217 C 
ATOM     21  N   UNL     1       6.464  -4.294  24.975  0.00  0.00    -0.283 N 
ATOM     22  O   UNL     1       8.083  -5.801  25.585  0.00  0.00    -0.276 OA
BRANCH  20  23
ATOM     23  C   UNL     1       7.034  -4.649  27.391  0.00  0.00    +0.096 C 
BRANCH  23  24
ATOM     24  C   UNL     1       6.165  -5.676  28.117  0.00  0.00    +0.009 C 
BRANCH  24  26
ATOM     25  C   UNL     1       4.926  -5.039  30.235  0.00  0.00    +0.004 C 
ATOM     26  C   UNL     1       4.949  -4.967  28.721  0.00  0.00    -0.003 C 
ENDBRANCH  24  26
ENDBRANCH  23  24
ENDBRANCH  20  23
BRANCH  21  27
ATOM     27  C   UNL     1       6.892  -4.319  23.525  0.00  0.00    +0.187 C 
BRANCH  27  28
ATOM     28  C   UNL     1       6.638  -5.718  22.869  0.00  0.00    +0.014 C 
ATOM     29  C   UNL     1       7.021  -5.789  21.389  0.00  0.00    +0.009 C 
ATOM     30  C   UNL     1       5.217  -6.258  23.038  0.00  0.00    +0.009 C 
ENDBRANCH  27  28
BRANCH  27  31
ATOM     31  C   UNL     1       6.587  -3.127  22.552  0.00  0.00    +0.326 C 
ATOM     32  O   UNL     1       5.472  -2.933  22.081  0.00  0.00    -0.249 OA
BRANCH  31  33
ATOM     33  O   UNL     1       7.562  -2.229  22.322  0.00  0.00    -0.479 OA
ATOM     34  H   UNL     1       7.459  -1.403  22.848  0.00  0.00    +0.295 HD
ENDBRANCH  31  33
ENDBRANCH  27  31
ENDBRANCH  21  27
ENDBRANCH  19  21
ENDBRANCH   1  19
TORSDOF 11
ENDMDL
MODEL 9
REMARK VINA RESULT:      -6.1      2.481      4.544
REMARK  Name = 
REMARK  14 active torsions:
REMARK  status: ('A' for Active; 'I' for Inactive)
REMARK    1  A    between atoms: C_1  and  C_2
REMARK    2  A    between atoms: C_2  and  C_3
REMARK    3  A    between atoms: C_3  and  C_4
REMARK    4  A    between atoms: C_4  and  C_5
REMARK    5  A    between atoms: N_7  and  C_8
REMARK    6  A    between atoms: N_7  and  C_26
REMARK    7  A    between atoms: C_8  and  C_9
REMARK    8  A    between atoms: C_12  and  C_15
REMARK    9  A    between atoms: C_20  and  C_21
REMARK   10  A    between atoms: C_26  and  C_28
REMARK   11  A    between atoms: C_26  and  C_31
REMARK   12  A    between atoms: C_28  and  C_29
REMARK   13  A    between atoms: C_28  and  C_30
REMARK   14  A    between atoms: C_31  and  O_32
REMARK                            x       y       z     vdW  Elec       q    Type
REMARK                         _______ _______ _______ _____ _____    ______ ____
ROOT
ATOM      1  C   UNL     1       6.356  -3.850  23.550  0.00  0.00    -0.030 A 
ATOM      2  C   UNL     1       5.767  -2.663  23.990  0.00  0.00    +0.006 A 
ATOM      3  C   UNL     1       6.350  -1.429  23.683  0.00  0.00    +0.009 A 
ATOM      4  C   UNL     1       7.576  -1.352  23.003  0.00  0.00    -0.017 A 
ATOM      5  C   UNL     1       8.035  -2.538  22.400  0.00  0.00    +0.009 A 
ATOM      6  C   UNL     1       7.432  -3.770  22.665  0.00  0.00    +0.006 A 
ENDROOT
BRANCH   4   7
ATOM      7  C   UNL     1       8.416  -0.115  23.010  0.00  0.00    -0.007 A 
ATOM      8  C   UNL     1       8.685   0.660  24.174  0.00  0.00    +0.030 A 
ATOM      9  C   UNL     1       9.514   1.802  24.085  0.00  0.00    +0.012 A 
ATOM     10  C   UNL     1      10.140   2.157  22.896  0.00  0.00    +0.001 A 
ATOM     11  C   UNL     1       9.928   1.387  21.765  0.00  0.00    +0.001 A 
ATOM     12  C   UNL     1       9.063   0.287  21.816  0.00  0.00    +0.009 A 
BRANCH   8  13
ATOM     13  C   UNL     1       8.225   0.320  25.521  0.00  0.00    +0.205 A 
ATOM     14  N   UNL     1       7.082   0.827  26.096  0.00  0.00    -0.108 NA
ATOM     15  N   UNL     1       6.970   0.270  27.292  0.00  0.00    -0.049 NA
ATOM     16  N   UNL     1       7.993  -0.582  27.362  0.00  0.00    -0.176 N 
ATOM     17  H   UNL     1       8.120  -1.195  28.163  0.00  0.00    +0.214 HD
ATOM     18  N   UNL     1       8.829  -0.588  26.316  0.00  0.00    -0.133 NA
ENDBRANCH   8  13
ENDBRANCH   4   7
BRANCH   1  19
ATOM     19  C   UNL     1       5.863  -5.189  24.028  0.00  0.00    +0.143 C 
BRANCH  19  21
ATOM     20  C   UNL     1       5.909  -5.524  26.482  0.00  0.00    +0.217 C 
ATOM     21  N   UNL     1       5.161  -5.223  25.337  0.00  0.00    -0.283 N 
ATOM     22  O   UNL     1       5.371  -5.758  27.558  0.00  0.00    -0.276 OA
BRANCH  20  23
ATOM     23  C   UNL     1       7.426  -5.514  26.372  0.00  0.00    +0.096 C 
BRANCH  23  24
ATOM     24  C   UNL     1       8.066  -4.185  26.774  0.00  0.00    +0.009 C 
BRANCH  24  26
ATOM     25  C   UNL     1       9.953  -5.080  25.335  0.00  0.00    +0.004 C 
ATOM     26  C   UNL     1       9.189  -3.851  25.787  0.00  0.00    -0.003 C 
ENDBRANCH  24  26
ENDBRANCH  23  24
ENDBRANCH  20  23
BRANCH  21  27
ATOM     27  C   UNL     1       3.688  -5.563  25.325  0.00  0.00    +0.187 C 
BRANCH  27  28
ATOM     28  C   UNL     1       2.880  -4.611  24.381  0.00  0.00    +0.014 C 
ATOM     29  C   UNL     1       1.968  -3.628  25.121  0.00  0.00    +0.009 C 
ATOM     30  C   UNL     1       2.066  -5.319  23.297  0.00  0.00    +0.009 C 
ENDBRANCH  27  28
BRANCH  27  31
ATOM     31  C   UNL     1       3.182  -7.047  25.269  0.00  0.00    +0.326 C 
ATOM     32  O   UNL     1       3.700  -7.890  24.545  0.00  0.00    -0.249 OA
BRANCH  31  33
ATOM     33  O   UNL     1       2.218  -7.424  26.129  0.00  0.00    -0.479 OA
ATOM     34  H   UNL     1       1.596  -6.696  26.356  0.00  0.00    +0.295 HD
ENDBRANCH  31  33
ENDBRANCH  27  31
ENDBRANCH  21  27
ENDBRANCH  19  21
ENDBRANCH   1  19
TORSDOF 11
ENDMDL
