MODEL 1
REMARK VINA RESULT:      -5.1      0.000      0.000
REMARK  Name = 
REMARK  5 active torsions:
REMARK  status: ('A' for Active; 'I' for Inactive)
REMARK    1  A    between atoms: O_1  and  C_2
REMARK    2  A    between atoms: C_5  and  O_6
REMARK    3  A    between atoms: C_5  and  C_13
REMARK    4  A    between atoms: C_10  and  O_12
REMARK    5  A    between atoms: C_13  and  O_14
REMARK                            x       y       z     vdW  Elec       q    Type
REMARK                         _______ _______ _______ _____ _____    ______ ____
ROOT
ATOM      1  C   UNL     1      10.056   0.958  22.017  0.00  0.00    +0.153 C 
ATOM      2  C   UNL     1       9.256  -0.333  21.702  0.00  0.00    +0.201 C 
ATOM      3  C   UNL     1       8.364  -0.817  22.796  0.00  0.00    +0.131 C 
ATOM      4  F   UNL     1       7.490  -1.807  22.514  0.00  0.00    -0.208 F 
ATOM      5  C   UNL     1       8.376  -0.340  24.043  0.00  0.00    +0.055 C 
ATOM      6  C   UNL     1       9.287   0.757  24.497  0.00  0.00    +0.185 C 
ATOM      7  C   UNL     1      10.353   1.231  23.499  0.00  0.00    +0.085 C 
ENDROOT
BRANCH   1   8
ATOM      8  O   UNL     1       9.430   2.100  21.433  0.00  0.00    -0.389 OA
ATOM      9  H   UNL     1       9.337   2.809  22.101  0.00  0.00    +0.210 HD
ENDBRANCH   1   8
BRANCH   2  10
ATOM     10  O   UNL     1      10.169  -1.399  21.420  0.00  0.00    -0.382 OA
ATOM     11  H   UNL     1      11.018  -1.139  21.826  0.00  0.00    +0.210 HD
ENDBRANCH   2  10
BRANCH   6  12
ATOM     12  C   UNL     1       8.402   1.948  24.920  0.00  0.00    +0.341 C 
ATOM     13  O   UNL     1       8.081   2.875  24.191  0.00  0.00    -0.247 OA
BRANCH  12  14
ATOM     14  O   UNL     1       8.000   1.836  26.215  0.00  0.00    -0.478 OA
ATOM     15  H   UNL     1       8.810   1.674  26.759  0.00  0.00    +0.295 HD
ENDBRANCH  12  14
ENDBRANCH   6  12
BRANCH   6  16
ATOM     16  O   UNL     1       9.945   0.285  25.689  0.00  0.00    -0.374 OA
ATOM     17  H   UNL     1       9.310  -0.304  26.143  0.00  0.00    +0.211 HD
ENDBRANCH   6  16
TORSDOF 5
ENDMDL
MODEL 2
REMARK VINA RESULT:      -5.1      1.894      3.468
REMARK  Name = 
REMARK  5 active torsions:
REMARK  status: ('A' for Active; 'I' for Inactive)
REMARK    1  A    between atoms: O_1  and  C_2
REMARK    2  A    between atoms: C_5  and  O_6
REMARK    3  A    between atoms: C_5  and  C_13
REMARK    4  A    between atoms: C_10  and  O_12
REMARK    5  A    between atoms: C_13  and  O_14
REMARK                            x       y       z     vdW  Elec       q    Type
REMARK                         _______ _______ _______ _____ _____    ______ ____
ROOT
ATOM      1  C   UNL     1      10.321   1.364  23.893  0.00  0.00    +0.153 C 
ATOM      2  C   UNL     1       9.637   2.002  22.656  0.00  0.00    +0.201 C 
ATOM      3  C   UNL     1       8.951   1.045  21.738  0.00  0.00    +0.131 C 
ATOM      4  F   UNL     1       8.165   1.551  20.764  0.00  0.00    -0.208 F 
ATOM      5  C   UNL     1       9.069  -0.283  21.812  0.00  0.00    +0.055 C 
ATOM      6  C   UNL     1       9.902  -0.981  22.840  0.00  0.00    +0.185 C 
ATOM      7  C   UNL     1      10.772  -0.097  23.745  0.00  0.00    +0.085 C 
ENDROOT
BRANCH   1   8
ATOM      8  O   UNL     1       9.502   1.499  25.055  0.00  0.00    -0.389 OA
ATOM      9  H   UNL     1       9.928   2.102  25.697  0.00  0.00    +0.210 HD
ENDBRANCH   1   8
BRANCH   2  10
ATOM     10  O   UNL     1      10.621   2.685  21.871  0.00  0.00    -0.382 OA
ATOM     11  H   UNL     1      10.438   2.442  20.944  0.00  0.00    +0.210 HD
ENDBRANCH   2  10
BRANCH   6  12
ATOM     12  C   UNL     1       8.951  -1.834  23.704  0.00  0.00    +0.341 C 
ATOM     13  O   UNL     1       9.017  -3.048  23.828  0.00  0.00    -0.247 OA
BRANCH  12  14
ATOM     14  O   UNL     1       8.025  -1.063  24.337  0.00  0.00    -0.478 OA
ATOM     15  H   UNL     1       8.070  -1.283  25.300  0.00  0.00    +0.295 HD
ENDBRANCH  12  14
ENDBRANCH   6  12
BRANCH   6  16
ATOM     16  O   UNL     1      10.756  -1.900  22.131  0.00  0.00    -0.374 OA
ATOM     17  H   UNL     1      11.339  -2.310  22.800  0.00  0.00    +0.211 HD
ENDBRANCH   6  16
TORSDOF 5
ENDMDL
MODEL 3
REMARK VINA RESULT:      -5.0      2.120      3.527
REMARK  Name = 
REMARK  5 active torsions:
REMARK  status: ('A' for Active; 'I' for Inactive)
REMARK    1  A    between atoms: O_1  and  C_2
REMARK    2  A    between atoms: C_5  and  O_6
REMARK    3  A    between atoms: C_5  and  C_13
REMARK    4  A    between atoms: C_10  and  O_12
REMARK    5  A    between atoms: C_13  and  O_14
REMARK                            x       y       z     vdW  Elec       q    Type
REMARK                         _______ _______ _______ _____ _____    ______ ____
ROOT
ATOM      1  C   UNL     1       9.267  -0.351  21.658  0.00  0.00    +0.153 C 
ATOM      2  C   UNL     1      10.071   0.922  22.029  0.00  0.00    +0.201 C 
ATOM      3  C   UNL     1      10.190   1.201  23.491  0.00  0.00    +0.131 C 
ATOM      4  F   UNL     1      11.047   2.167  23.887  0.00  0.00    -0.208 F 
ATOM      5  C   UNL     1       9.499   0.562  24.438  0.00  0.00    +0.055 C 
ATOM      6  C   UNL     1       8.519  -0.531  24.146  0.00  0.00    +0.185 C 
ATOM      7  C   UNL     1       8.203  -0.803  22.669  0.00  0.00    +0.085 C 
ENDROOT
BRANCH   1   8
ATOM      8  O   UNL     1      10.142  -1.439  21.362  0.00  0.00    -0.389 OA
ATOM      9  H   UNL     1       9.830  -2.251  21.809  0.00  0.00    +0.210 HD
ENDBRANCH   1   8
BRANCH   2  10
ATOM     10  O   UNL     1       9.442   2.068  21.446  0.00  0.00    -0.382 OA
ATOM     11  H   UNL     1       9.871   2.196  20.579  0.00  0.00    +0.210 HD
ENDBRANCH   2  10
BRANCH   6  12
ATOM     12  C   UNL     1       9.050  -1.817  24.811  0.00  0.00    +0.341 C 
ATOM     13  O   UNL     1       8.699  -2.238  25.903  0.00  0.00    -0.247 OA
BRANCH  12  14
ATOM     14  O   UNL     1       9.958  -2.450  24.019  0.00  0.00    -0.478 OA
ATOM     15  H   UNL     1      10.419  -1.753  23.489  0.00  0.00    +0.295 HD
ENDBRANCH  12  14
ENDBRANCH   6  12
BRANCH   6  16
ATOM     16  O   UNL     1       7.296  -0.186  24.826  0.00  0.00    -0.374 OA
ATOM     17  H   UNL     1       6.942  -1.018  25.199  0.00  0.00    +0.211 HD
ENDBRANCH   6  16
TORSDOF 5
ENDMDL
MODEL 4
REMARK VINA RESULT:      -4.8      2.186      3.864
REMARK  Name = 
REMARK  5 active torsions:
REMARK  status: ('A' for Active; 'I' for Inactive)
REMARK    1  A    between atoms: O_1  and  C_2
REMARK    2  A    between atoms: C_5  and  O_6
REMARK    3  A    between atoms: C_5  and  C_13
REMARK    4  A    between atoms: C_10  and  O_12
REMARK    5  A    between atoms: C_13  and  O_14
REMARK                            x       y       z     vdW  Elec       q    Type
REMARK                         _______ _______ _______ _____ _____    ______ ____
ROOT
ATOM      1  C   UNL     1       8.736   1.559  22.401  0.00  0.00    +0.153 C 
ATOM      2  C   UNL     1       9.984   1.835  23.280  0.00  0.00    +0.201 C 
ATOM      3  C   UNL     1      10.552   0.645  23.979  0.00  0.00    +0.131 C 
ATOM      4  F   UNL     1      11.751   0.776  24.586  0.00  0.00    -0.208 F 
ATOM      5  C   UNL     1       9.948  -0.544  24.051  0.00  0.00    +0.055 C 
ATOM      6  C   UNL     1       8.622  -0.834  23.423  0.00  0.00    +0.185 C 
ATOM      7  C   UNL     1       7.872   0.354  22.804  0.00  0.00    +0.085 C 
ENDROOT
BRANCH   1   8
ATOM      8  O   UNL     1       9.096   1.453  21.023  0.00  0.00    -0.389 OA
ATOM      9  H   UNL     1       8.300   1.547  20.461  0.00  0.00    +0.210 HD
ENDBRANCH   1   8
BRANCH   2  10
ATOM     10  O   UNL     1       9.645   2.783  24.298  0.00  0.00    -0.382 OA
ATOM     11  H   UNL     1       8.753   3.108  24.074  0.00  0.00    +0.210 HD
ENDBRANCH   2  10
BRANCH   6  12
ATOM     12  C   UNL     1       8.844  -1.924  22.354  0.00  0.00    +0.341 C 
ATOM     13  O   UNL     1       8.189  -2.950  22.253  0.00  0.00    -0.247 OA
BRANCH  12  14
ATOM     14  O   UNL     1       9.861  -1.595  21.511  0.00  0.00    -0.478 OA
ATOM     15  H   UNL     1      10.147  -0.678  21.743  0.00  0.00    +0.295 HD
ENDBRANCH  12  14
ENDBRANCH   6  12
BRANCH   6  16
ATOM     16  O   UNL     1       7.795  -1.420  24.448  0.00  0.00    -0.374 OA
ATOM     17  H   UNL     1       7.002  -1.772  23.997  0.00  0.00    +0.211 HD
ENDBRANCH   6  16
TORSDOF 5
ENDMDL
MODEL 5
REMARK VINA RESULT:      -4.8      3.192      4.886
REMARK  Name = 
REMARK  5 active torsions:
REMARK  status: ('A' for Active; 'I' for Inactive)
REMARK    1  A    between atoms: O_1  and  C_2
REMARK    2  A    between atoms: C_5  and  O_6
REMARK    3  A    between atoms: C_5  and  C_13
REMARK    4  A    between atoms: C_10  and  O_12
REMARK    5  A    between atoms: C_13  and  O_14
REMARK                            x       y       z     vdW  Elec       q    Type
REMARK                         _______ _______ _______ _____ _____    ______ ____
ROOT
ATOM      1  C   UNL     1       8.800  -3.815  24.710  0.00  0.00    +0.153 C 
ATOM      2  C   UNL     1       7.819  -4.719  23.918  0.00  0.00    +0.201 C 
ATOM      3  C   UNL     1       7.397  -4.195  22.586  0.00  0.00    +0.131 C 
ATOM      4  F   UNL     1       6.718  -5.022  21.762  0.00  0.00    -0.208 F 
ATOM      5  C   UNL     1       7.642  -2.956  22.153  0.00  0.00    +0.055 C 
ATOM      6  C   UNL     1       8.386  -1.935  22.955  0.00  0.00    +0.185 C 
ATOM      7  C   UNL     1       8.739  -2.312  24.401  0.00  0.00    +0.085 C 
ENDROOT
BRANCH   1   8
ATOM      8  O   UNL     1      10.143  -4.280  24.577  0.00  0.00    -0.389 OA
ATOM      9  H   UNL     1      10.769  -3.564  24.806  0.00  0.00    +0.210 HD
ENDBRANCH   1   8
BRANCH   2  10
ATOM     10  O   UNL     1       6.622  -4.902  24.681  0.00  0.00    -0.382 OA
ATOM     11  H   UNL     1       6.412  -4.028  25.062  0.00  0.00    +0.210 HD
ENDBRANCH   2  10
BRANCH   6  12
ATOM     12  C   UNL     1       9.673  -1.585  22.179  0.00  0.00    +0.341 C 
ATOM     13  O   UNL     1      10.800  -1.927  22.502  0.00  0.00    -0.247 OA
BRANCH  12  14
ATOM     14  O   UNL     1       9.399  -0.854  21.065  0.00  0.00    -0.478 OA
ATOM     15  H   UNL     1      10.245  -0.429  20.778  0.00  0.00    +0.295 HD
ENDBRANCH  12  14
ENDBRANCH   6  12
BRANCH   6  16
ATOM     16  O   UNL     1       7.574  -0.745  22.971  0.00  0.00    -0.374 OA
ATOM     17  H   UNL     1       6.774  -0.961  23.491  0.00  0.00    +0.211 HD
ENDBRANCH   6  16
TORSDOF 5
ENDMDL
MODEL 6
REMARK VINA RESULT:      -4.8      2.199      3.060
REMARK  Name = 
REMARK  5 active torsions:
REMARK  status: ('A' for Active; 'I' for Inactive)
REMARK    1  A    between atoms: O_1  and  C_2
REMARK    2  A    between atoms: C_5  and  O_6
REMARK    3  A    between atoms: C_5  and  C_13
REMARK    4  A    between atoms: C_10  and  O_12
REMARK    5  A    between atoms: C_13  and  O_14
REMARK                            x       y       z     vdW  Elec       q    Type
REMARK                         _______ _______ _______ _____ _____    ______ ____
ROOT
ATOM      1  C   UNL     1       8.382  -0.503  22.485  0.00  0.00    +0.153 C 
ATOM      2  C   UNL     1       9.280  -0.847  23.702  0.00  0.00    +0.201 C 
ATOM      3  C   UNL     1      10.017   0.305  24.301  0.00  0.00    +0.131 C 
ATOM      4  F   UNL     1      10.645   0.114  25.481  0.00  0.00    -0.208 F 
ATOM      5  C   UNL     1      10.104   1.514  23.742  0.00  0.00    +0.055 C 
ATOM      6  C   UNL     1       9.456   1.870  22.442  0.00  0.00    +0.185 C 
ATOM      7  C   UNL     1       8.796   0.725  21.660  0.00  0.00    +0.085 C 
ENDROOT
BRANCH   1   8
ATOM      8  O   UNL     1       7.015  -0.381  22.877  0.00  0.00    -0.389 OA
ATOM      9  H   UNL     1       6.460  -0.179  22.097  0.00  0.00    +0.210 HD
ENDBRANCH   1   8
BRANCH   2  10
ATOM     10  O   UNL     1      10.269  -1.803  23.307  0.00  0.00    -0.382 OA
ATOM     11  H   UNL     1      10.205  -2.535  23.948  0.00  0.00    +0.210 HD
ENDBRANCH   2  10
BRANCH   6  12
ATOM     12  C   UNL     1       8.417   2.973  22.728  0.00  0.00    +0.341 C 
ATOM     13  O   UNL     1       7.211   2.793  22.817  0.00  0.00    -0.247 OA
BRANCH  12  14
ATOM     14  O   UNL     1       9.010   4.187  22.890  0.00  0.00    -0.478 OA
ATOM     15  H   UNL     1       8.307   4.819  23.179  0.00  0.00    +0.295 HD
ENDBRANCH  12  14
ENDBRANCH   6  12
BRANCH   6  16
ATOM     16  O   UNL     1      10.477   2.465  21.617  0.00  0.00    -0.374 OA
ATOM     17  H   UNL     1      11.105   2.904  22.225  0.00  0.00    +0.211 HD
ENDBRANCH   6  16
TORSDOF 5
ENDMDL
MODEL 7
REMARK VINA RESULT:      -4.6      1.810      2.823
REMARK  Name = 
REMARK  5 active torsions:
REMARK  status: ('A' for Active; 'I' for Inactive)
REMARK    1  A    between atoms: O_1  and  C_2
REMARK    2  A    between atoms: C_5  and  O_6
REMARK    3  A    between atoms: C_5  and  C_13
REMARK    4  A    between atoms: C_10  and  O_12
REMARK    5  A    between atoms: C_13  and  O_14
REMARK                            x       y       z     vdW  Elec       q    Type
REMARK                         _______ _______ _______ _____ _____    ______ ____
ROOT
ATOM      1  C   UNL     1       7.408  -0.247  23.325  0.00  0.00    +0.153 C 
ATOM      2  C   UNL     1       8.325  -1.486  23.152  0.00  0.00    +0.201 C 
ATOM      3  C   UNL     1       9.775  -1.188  22.959  0.00  0.00    +0.131 C 
ATOM      4  F   UNL     1      10.648  -2.217  23.013  0.00  0.00    -0.208 F 
ATOM      5  C   UNL     1      10.268   0.031  22.728  0.00  0.00    +0.055 C 
ATOM      6  C   UNL     1       9.420   1.261  22.646  0.00  0.00    +0.185 C 
ATOM      7  C   UNL     1       7.899   1.058  22.681  0.00  0.00    +0.085 C 
ENDROOT
BRANCH   1   8
ATOM      8  O   UNL     1       7.109  -0.021  24.702  0.00  0.00    -0.389 OA
ATOM      9  H   UNL     1       6.465   0.710  24.789  0.00  0.00    +0.210 HD
ENDBRANCH   1   8
BRANCH   2  10
ATOM     10  O   UNL     1       7.905  -2.230  22.004  0.00  0.00    -0.382 OA
ATOM     11  H   UNL     1       7.105  -1.780  21.672  0.00  0.00    +0.210 HD
ENDBRANCH   2  10
BRANCH   6  12
ATOM     12  C   UNL     1       9.848   2.195  23.797  0.00  0.00    +0.341 C 
ATOM     13  O   UNL     1      10.316   3.315  23.652  0.00  0.00    -0.247 OA
BRANCH  12  14
ATOM     14  O   UNL     1       9.623   1.625  25.012  0.00  0.00    -0.478 OA
ATOM     15  H   UNL     1       8.647   1.486  25.093  0.00  0.00    +0.295 HD
ENDBRANCH  12  14
ENDBRANCH   6  12
BRANCH   6  16
ATOM     16  O   UNL     1       9.771   1.927  21.418  0.00  0.00    -0.374 OA
ATOM     17  H   UNL     1      10.344   1.311  20.921  0.00  0.00    +0.211 HD
ENDBRANCH   6  16
TORSDOF 5
ENDMDL
MODEL 8
REMARK VINA RESULT:      -4.6      5.736      7.277
REMARK  Name = 
REMARK  5 active torsions:
REMARK  status: ('A' for Active; 'I' for Inactive)
REMARK    1  A    between atoms: O_1  and  C_2
REMARK    2  A    between atoms: C_5  and  O_6
REMARK    3  A    between atoms: C_5  and  C_13
REMARK    4  A    between atoms: C_10  and  O_12
REMARK    5  A    between atoms: C_13  and  O_14
REMARK                            x       y       z     vdW  Elec       q    Type
REMARK                         _______ _______ _______ _____ _____    ______ ____
ROOT
ATOM      1  C   UNL     1       8.690  -4.817  24.970  0.00  0.00    +0.153 C 
ATOM      2  C   UNL     1       7.896  -5.299  26.212  0.00  0.00    +0.201 C 
ATOM      3  C   UNL     1       6.480  -5.697  25.953  0.00  0.00    +0.131 C 
ATOM      4  F   UNL     1       5.803  -6.320  26.941  0.00  0.00    -0.208 F 
ATOM      5  C   UNL     1       5.834  -5.473  24.806  0.00  0.00    +0.055 C 
ATOM      6  C   UNL     1       6.459  -4.799  23.626  0.00  0.00    +0.185 C 
ATOM      7  C   UNL     1       7.864  -4.211  23.826  0.00  0.00    +0.085 C 
ENDROOT
BRANCH   1   8
ATOM      8  O   UNL     1       9.524  -5.859  24.462  0.00  0.00    -0.389 OA
ATOM      9  H   UNL     1       9.694  -6.522  25.161  0.00  0.00    +0.210 HD
ENDBRANCH   1   8
BRANCH   2  10
ATOM     10  O   UNL     1       7.852  -4.249  27.184  0.00  0.00    -0.382 OA
ATOM     11  H   UNL     1       7.342  -4.603  27.937  0.00  0.00    +0.210 HD
ENDBRANCH   2  10
BRANCH   6  12
ATOM     12  C   UNL     1       6.481  -5.818  22.468  0.00  0.00    +0.341 C 
ATOM     13  O   UNL     1       7.492  -6.263  21.946  0.00  0.00    -0.247 OA
BRANCH  12  14
ATOM     14  O   UNL     1       5.222  -6.183  22.103  0.00  0.00    -0.478 OA
ATOM     15  H   UNL     1       5.285  -6.589  21.204  0.00  0.00    +0.295 HD
ENDBRANCH  12  14
ENDBRANCH   6  12
BRANCH   6  16
ATOM     16  O   UNL     1       5.566  -3.739  23.230  0.00  0.00    -0.374 OA
ATOM     17  H   UNL     1       5.721  -3.586  22.277  0.00  0.00    +0.211 HD
ENDBRANCH   6  16
TORSDOF 5
ENDMDL
MODEL 9
REMARK VINA RESULT:      -4.6      2.066      3.608
REMARK  Name = 
REMARK  5 active torsions:
REMARK  status: ('A' for Active; 'I' for Inactive)
REMARK    1  A    between atoms: O_1  and  C_2
REMARK    2  A    between atoms: C_5  and  O_6
REMARK    3  A    between atoms: C_5  and  C_13
REMARK    4  A    between atoms: C_10  and  O_12
REMARK    5  A    between atoms: C_13  and  O_14
REMARK                            x       y       z     vdW  Elec       q    Type
REMARK                         _______ _______ _______ _____ _____    ______ ____
ROOT
ATOM      1  C   UNL     1       7.508  -0.879  23.961  0.00  0.00    +0.153 C 
ATOM      2  C   UNL     1       8.305  -2.171  24.275  0.00  0.00    +0.201 C 
ATOM      3  C   UNL     1       9.667  -2.248  23.668  0.00  0.00    +0.131 C 
ATOM      4  F   UNL     1      10.488  -3.242  24.070  0.00  0.00    -0.208 F 
ATOM      5  C   UNL     1      10.128  -1.400  22.745  0.00  0.00    +0.055 C 
ATOM      6  C   UNL     1       9.332  -0.252  22.210  0.00  0.00    +0.185 C 
ATOM      7  C   UNL     1       7.863  -0.161  22.650  0.00  0.00    +0.085 C 
ENDROOT
BRANCH   1   8
ATOM      8  O   UNL     1       7.580   0.042  25.049  0.00  0.00    -0.389 OA
ATOM      9  H   UNL     1       8.321   0.666  24.911  0.00  0.00    +0.210 HD
ENDBRANCH   1   8
BRANCH   2  10
ATOM     10  O   UNL     1       7.579  -3.306  23.790  0.00  0.00    -0.382 OA
ATOM     11  H   UNL     1       7.664  -3.282  22.818  0.00  0.00    +0.210 HD
ENDBRANCH   2  10
BRANCH   6  12
ATOM     12  C   UNL     1      10.073   1.045  22.596  0.00  0.00    +0.341 C 
ATOM     13  O   UNL     1      10.624   1.244  23.669  0.00  0.00    -0.247 OA
BRANCH  12  14
ATOM     14  O   UNL     1      10.057   1.950  21.580  0.00  0.00    -0.478 OA
ATOM     15  H   UNL     1      10.648   1.601  20.869  0.00  0.00    +0.295 HD
ENDBRANCH  12  14
ENDBRANCH   6  12
BRANCH   6  16
ATOM     16  O   UNL     1       9.379  -0.345  20.773  0.00  0.00    -0.374 OA
ATOM     17  H   UNL     1       8.779   0.346  20.429  0.00  0.00    +0.211 HD
ENDBRANCH   6  16
TORSDOF 5
ENDMDL
