MODEL 1
REMARK VINA RESULT:      -5.7      0.000      0.000
REMARK  Name = 
REMARK  10 active torsions:
REMARK  status: ('A' for Active; 'I' for Inactive)
REMARK    1  A    between atoms: C_2  and  O_3
REMARK    2  A    between atoms: C_5  and  C_20
REMARK    3  A    between atoms: C_7  and  O_9
REMARK    4  A    between atoms: O_9  and  C_10
REMARK    5  A    between atoms: C_10  and  C_11
REMARK    6  A    between atoms: C_11  and  C_12
REMARK    7  A    between atoms: C_11  and  C_13
REMARK    8  A    between atoms: C_14  and  N_16
REMARK    9  A    between atoms: C_17  and  C_18
REMARK   10  A    between atoms: C_20  and  O_21
REMARK                            x       y       z     vdW  Elec       q    Type
REMARK                         _______ _______ _______ _____ _____    ______ ____
ROOT
ATOM      1  C   UNL     1      10.038   1.797  24.498  0.00  0.00    +0.167 C 
ATOM      2  C   UNL     1       9.993   2.755  23.295  0.00  0.00    +0.174 C 
ATOM      3  C   UNL     1       9.574   2.051  21.963  0.00  0.00    +0.331 C 
ATOM      4  O   UNL     1      10.018   0.693  21.788  0.00  0.00    -0.455 OA
ATOM      5  C   UNL     1      10.038  -0.105  22.910  0.00  0.00    +0.206 C 
ATOM      6  C   UNL     1      10.020   0.355  24.164  0.00  0.00    +0.059 C 
ENDROOT
BRANCH   2   7
ATOM      7  N   UNL     1      11.165   3.628  23.156  0.00  0.00    -0.304 N 
ATOM      8  H   UNL     1      11.981   3.240  22.700  0.00  0.00    +0.149 HD
ATOM      9  C   UNL     1      11.209   4.928  23.589  0.00  0.00    +0.210 C 
ATOM     10  O   UNL     1      10.276   5.473  24.161  0.00  0.00    -0.276 OA
ATOM     11  C   UNL     1      12.532   5.604  23.341  0.00  0.00    +0.109 C 
ENDBRANCH   2   7
BRANCH   1  12
ATOM     12  O   UNL     1       8.914   2.064  25.349  0.00  0.00    -0.386 OA
ATOM     13  H   UNL     1       9.168   2.765  25.976  0.00  0.00    +0.210 HD
ENDBRANCH   1  12
BRANCH   5  14
ATOM     14  C   UNL     1      10.129  -1.588  22.713  0.00  0.00    +0.372 C 
ATOM     15  O   UNL     1      10.199  -2.417  23.603  0.00  0.00    -0.242 OA
BRANCH  14  16
ATOM     16  O   UNL     1      10.109  -1.896  21.396  0.00  0.00    -0.475 OA
ATOM     17  H   UNL     1       9.286  -2.375  21.178  0.00  0.00    +0.296 HD
ENDBRANCH  14  16
ENDBRANCH   5  14
BRANCH   3  18
ATOM     18  O   UNL     1       8.147   2.109  21.737  0.00  0.00    -0.340 OA
BRANCH  18  19
ATOM     19  C   UNL     1       7.547   3.301  22.247  0.00  0.00    +0.167 C 
BRANCH  19  20
ATOM     20  C   UNL     1       6.323   3.008  23.117  0.00  0.00    +0.009 C 
ATOM     21  C   UNL     1       6.244   1.496  23.348  0.00  0.00    +0.009 C 
ATOM     22  C   UNL     1       5.035   3.512  22.464  0.00  0.00    +0.009 C 
ENDBRANCH  19  20
ENDBRANCH  18  19
ENDBRANCH   3  18
TORSDOF 7
ENDMDL
MODEL 2
REMARK VINA RESULT:      -5.5      4.996      7.701
REMARK  Name = 
REMARK  10 active torsions:
REMARK  status: ('A' for Active; 'I' for Inactive)
REMARK    1  A    between atoms: C_2  and  O_3
REMARK    2  A    between atoms: C_5  and  C_20
REMARK    3  A    between atoms: C_7  and  O_9
REMARK    4  A    between atoms: O_9  and  C_10
REMARK    5  A    between atoms: C_10  and  C_11
REMARK    6  A    between atoms: C_11  and  C_12
REMARK    7  A    between atoms: C_11  and  C_13
REMARK    8  A    between atoms: C_14  and  N_16
REMARK    9  A    between atoms: C_17  and  C_18
REMARK   10  A    between atoms: C_20  and  O_21
REMARK                            x       y       z     vdW  Elec       q    Type
REMARK                         _______ _______ _______ _____ _____    ______ ____
ROOT
ATOM      1  C   UNL     1       9.044  -4.344  24.991  0.00  0.00    +0.167 C 
ATOM      2  C   UNL     1       7.516  -4.183  24.922  0.00  0.00    +0.174 C 
ATOM      3  C   UNL     1       7.052  -3.164  23.830  0.00  0.00    +0.331 C 
ATOM      4  O   UNL     1       7.908  -2.028  23.609  0.00  0.00    -0.455 OA
ATOM      5  C   UNL     1       9.264  -2.245  23.692  0.00  0.00    +0.206 C 
ATOM      6  C   UNL     1       9.825  -3.301  24.289  0.00  0.00    +0.059 C 
ENDROOT
BRANCH   2   7
ATOM      7  N   UNL     1       6.854  -3.997  26.220  0.00  0.00    -0.304 N 
ATOM      8  H   UNL     1       6.732  -3.046  26.546  0.00  0.00    +0.149 HD
ATOM      9  C   UNL     1       6.384  -5.024  26.996  0.00  0.00    +0.210 C 
ATOM     10  O   UNL     1       6.500  -6.202  26.687  0.00  0.00    -0.276 OA
ATOM     11  C   UNL     1       5.759  -4.570  28.288  0.00  0.00    +0.109 C 
ENDBRANCH   2   7
BRANCH   1  12
ATOM     12  O   UNL     1       9.406  -5.614  24.430  0.00  0.00    -0.386 OA
ATOM     13  H   UNL     1      10.271  -5.516  23.992  0.00  0.00    +0.210 HD
ENDBRANCH   1  12
BRANCH   5  14
ATOM     14  C   UNL     1      10.176  -1.206  23.113  0.00  0.00    +0.372 C 
ATOM     15  O   UNL     1      10.569  -0.208  23.691  0.00  0.00    -0.242 OA
BRANCH  14  16
ATOM     16  O   UNL     1      10.528  -1.531  21.849  0.00  0.00    -0.475 OA
ATOM     17  H   UNL     1       9.761  -1.907  21.374  0.00  0.00    +0.296 HD
ENDBRANCH  14  16
ENDBRANCH   5  14
BRANCH   3  18
ATOM     18  O   UNL     1       6.786  -3.803  22.560  0.00  0.00    -0.340 OA
BRANCH  18  19
ATOM     19  C   UNL     1       5.437  -4.255  22.432  0.00  0.00    +0.167 C 
BRANCH  19  20
ATOM     20  C   UNL     1       5.345  -5.777  22.296  0.00  0.00    +0.009 C 
ATOM     21  C   UNL     1       4.805  -6.348  23.610  0.00  0.00    +0.009 C 
ATOM     22  C   UNL     1       6.705  -6.394  21.968  0.00  0.00    +0.009 C 
ENDBRANCH  19  20
ENDBRANCH  18  19
ENDBRANCH   3  18
TORSDOF 7
ENDMDL
MODEL 3
REMARK VINA RESULT:      -5.5      3.947      7.095
REMARK  Name = 
REMARK  10 active torsions:
REMARK  status: ('A' for Active; 'I' for Inactive)
REMARK    1  A    between atoms: C_2  and  O_3
REMARK    2  A    between atoms: C_5  and  C_20
REMARK    3  A    between atoms: C_7  and  O_9
REMARK    4  A    between atoms: O_9  and  C_10
REMARK    5  A    between atoms: C_10  and  C_11
REMARK    6  A    between atoms: C_11  and  C_12
REMARK    7  A    between atoms: C_11  and  C_13
REMARK    8  A    between atoms: C_14  and  N_16
REMARK    9  A    between atoms: C_17  and  C_18
REMARK   10  A    between atoms: C_20  and  O_21
REMARK                            x       y       z     vdW  Elec       q    Type
REMARK                         _______ _______ _______ _____ _____    ______ ____
ROOT
ATOM      1  C   UNL     1       6.736  -1.251  22.994  0.00  0.00    +0.167 C 
ATOM      2  C   UNL     1       7.451  -2.592  23.226  0.00  0.00    +0.174 C 
ATOM      3  C   UNL     1       8.960  -2.429  23.603  0.00  0.00    +0.331 C 
ATOM      4  O   UNL     1       9.661  -1.335  22.984  0.00  0.00    -0.455 OA
ATOM      5  C   UNL     1       8.956  -0.166  22.803  0.00  0.00    +0.206 C 
ATOM      6  C   UNL     1       7.623  -0.077  22.828  0.00  0.00    +0.059 C 
ENDROOT
BRANCH   2   7
ATOM      7  N   UNL     1       7.209  -3.608  22.193  0.00  0.00    -0.304 N 
ATOM      8  H   UNL     1       7.337  -3.328  21.228  0.00  0.00    +0.149 HD
ATOM      9  C   UNL     1       6.839  -4.900  22.460  0.00  0.00    +0.210 C 
ATOM     10  O   UNL     1       6.649  -5.321  23.592  0.00  0.00    -0.276 OA
ATOM     11  C   UNL     1       6.639  -5.740  21.225  0.00  0.00    +0.109 C 
ENDBRANCH   2   7
BRANCH   1  12
ATOM     12  O   UNL     1       5.866  -0.988  24.105  0.00  0.00    -0.386 OA
ATOM     13  H   UNL     1       6.417  -0.730  24.867  0.00  0.00    +0.210 HD
ENDBRANCH   1  12
BRANCH   5  14
ATOM     14  C   UNL     1       9.733   1.083  22.517  0.00  0.00    +0.372 C 
ATOM     15  O   UNL     1      10.520   1.617  23.279  0.00  0.00    -0.242 OA
BRANCH  14  16
ATOM     16  O   UNL     1       9.457   1.542  21.276  0.00  0.00    -0.475 OA
ATOM     17  H   UNL     1      10.230   1.417  20.693  0.00  0.00    +0.296 HD
ENDBRANCH  14  16
ENDBRANCH   5  14
BRANCH   3  18
ATOM     18  O   UNL     1       9.164  -2.366  25.033  0.00  0.00    -0.340 OA
BRANCH  18  19
ATOM     19  C   UNL     1       8.189  -3.104  25.772  0.00  0.00    +0.167 C 
BRANCH  19  20
ATOM     20  C   UNL     1       8.796  -4.317  26.481  0.00  0.00    +0.009 C 
ATOM     21  C   UNL     1       9.706  -5.051  25.493  0.00  0.00    +0.009 C 
ATOM     22  C   UNL     1       7.713  -5.261  27.006  0.00  0.00    +0.009 C 
ENDBRANCH  19  20
ENDBRANCH  18  19
ENDBRANCH   3  18
TORSDOF 7
ENDMDL
MODEL 4
REMARK VINA RESULT:      -5.5      3.419      5.514
REMARK  Name = 
REMARK  10 active torsions:
REMARK  status: ('A' for Active; 'I' for Inactive)
REMARK    1  A    between atoms: C_2  and  O_3
REMARK    2  A    between atoms: C_5  and  C_20
REMARK    3  A    between atoms: C_7  and  O_9
REMARK    4  A    between atoms: O_9  and  C_10
REMARK    5  A    between atoms: C_10  and  C_11
REMARK    6  A    between atoms: C_11  and  C_12
REMARK    7  A    between atoms: C_11  and  C_13
REMARK    8  A    between atoms: C_14  and  N_16
REMARK    9  A    between atoms: C_17  and  C_18
REMARK   10  A    between atoms: C_20  and  O_21
REMARK                            x       y       z     vdW  Elec       q    Type
REMARK                         _______ _______ _______ _____ _____    ______ ____
ROOT
ATOM      1  C   UNL     1       9.395  -1.239  22.384  0.00  0.00    +0.167 C 
ATOM      2  C   UNL     1       9.221  -0.733  23.826  0.00  0.00    +0.174 C 
ATOM      3  C   UNL     1       8.291  -1.645  24.691  0.00  0.00    +0.331 C 
ATOM      4  O   UNL     1       7.189  -2.268  24.007  0.00  0.00    -0.455 OA
ATOM      5  C   UNL     1       7.416  -2.692  22.717  0.00  0.00    +0.206 C 
ATOM      6  C   UNL     1       8.426  -2.270  21.950  0.00  0.00    +0.059 C 
ENDROOT
BRANCH   2   7
ATOM      7  N   UNL     1       8.918   0.700  23.945  0.00  0.00    -0.304 N 
ATOM      8  H   UNL     1       7.947   0.976  23.868  0.00  0.00    +0.149 HD
ATOM      9  C   UNL     1       9.862   1.667  24.169  0.00  0.00    +0.210 C 
ATOM     10  O   UNL     1      11.058   1.426  24.262  0.00  0.00    -0.276 OA
ATOM     11  C   UNL     1       9.296   3.061  24.237  0.00  0.00    +0.109 C 
ENDBRANCH   2   7
BRANCH   1  12
ATOM     12  O   UNL     1      10.713  -1.789  22.238  0.00  0.00    -0.386 OA
ATOM     13  H   UNL     1      10.936  -2.264  23.060  0.00  0.00    +0.210 HD
ENDBRANCH   1  12
BRANCH   5  14
ATOM     14  C   UNL     1       6.441  -3.659  22.116  0.00  0.00    +0.372 C 
ATOM     15  O   UNL     1       5.275  -3.419  21.856  0.00  0.00    -0.242 OA
BRANCH  14  16
ATOM     16  O   UNL     1       7.035  -4.850  21.879  0.00  0.00    -0.475 OA
ATOM     17  H   UNL     1       7.763  -4.994  22.514  0.00  0.00    +0.296 HD
ENDBRANCH  14  16
ENDBRANCH   5  14
BRANCH   3  18
ATOM     18  O   UNL     1       9.031  -2.659  25.408  0.00  0.00    -0.340 OA
BRANCH  18  19
ATOM     19  C   UNL     1       8.250  -3.325  26.402  0.00  0.00    +0.167 C 
BRANCH  19  20
ATOM     20  C   UNL     1       8.236  -4.843  26.207  0.00  0.00    +0.009 C 
ATOM     21  C   UNL     1       9.343  -5.214  25.216  0.00  0.00    +0.009 C 
ATOM     22  C   UNL     1       6.880  -5.331  25.696  0.00  0.00    +0.009 C 
ENDBRANCH  19  20
ENDBRANCH  18  19
ENDBRANCH   3  18
TORSDOF 7
ENDMDL
MODEL 5
REMARK VINA RESULT:      -5.5      4.898      7.822
REMARK  Name = 
REMARK  10 active torsions:
REMARK  status: ('A' for Active; 'I' for Inactive)
REMARK    1  A    between atoms: C_2  and  O_3
REMARK    2  A    between atoms: C_5  and  C_20
REMARK    3  A    between atoms: C_7  and  O_9
REMARK    4  A    between atoms: O_9  and  C_10
REMARK    5  A    between atoms: C_10  and  C_11
REMARK    6  A    between atoms: C_11  and  C_12
REMARK    7  A    between atoms: C_11  and  C_13
REMARK    8  A    between atoms: C_14  and  N_16
REMARK    9  A    between atoms: C_17  and  C_18
REMARK   10  A    between atoms: C_20  and  O_21
REMARK                            x       y       z     vdW  Elec       q    Type
REMARK                         _______ _______ _______ _____ _____    ______ ____
ROOT
ATOM      1  C   UNL     1       8.808  -5.287  24.767  0.00  0.00    +0.167 C 
ATOM      2  C   UNL     1       8.329  -4.115  23.895  0.00  0.00    +0.174 C 
ATOM      3  C   UNL     1       7.478  -3.067  24.684  0.00  0.00    +0.331 C 
ATOM      4  O   UNL     1       6.631  -3.584  25.727  0.00  0.00    -0.455 OA
ATOM      5  C   UNL     1       7.124  -4.637  26.464  0.00  0.00    +0.206 C 
ATOM      6  C   UNL     1       8.133  -5.423  26.077  0.00  0.00    +0.059 C 
ENDROOT
BRANCH   2   7
ATOM      7  N   UNL     1       7.738  -4.503  22.608  0.00  0.00    -0.304 N 
ATOM      8  H   UNL     1       8.177  -4.145  21.769  0.00  0.00    +0.149 HD
ATOM      9  C   UNL     1       6.650  -5.326  22.480  0.00  0.00    +0.210 C 
ATOM     10  O   UNL     1       6.049  -5.794  23.438  0.00  0.00    -0.276 OA
ATOM     11  C   UNL     1       6.230  -5.560  21.053  0.00  0.00    +0.109 C 
ENDBRANCH   2   7
BRANCH   1  12
ATOM     12  O   UNL     1      10.215  -5.141  25.013  0.00  0.00    -0.386 OA
ATOM     13  H   UNL     1      10.328  -4.621  25.829  0.00  0.00    +0.210 HD
ENDBRANCH   1  12
BRANCH   5  14
ATOM     14  C   UNL     1       6.456  -4.952  27.768  0.00  0.00    +0.372 C 
ATOM     15  O   UNL     1       5.520  -4.339  28.250  0.00  0.00    -0.242 OA
BRANCH  14  16
ATOM     16  O   UNL     1       7.025  -6.034  28.347  0.00  0.00    -0.475 OA
ATOM     17  H   UNL     1       7.057  -5.917  29.316  0.00  0.00    +0.296 HD
ENDBRANCH  14  16
ENDBRANCH   5  14
BRANCH   3  18
ATOM     18  O   UNL     1       8.288  -1.998  25.226  0.00  0.00    -0.340 OA
BRANCH  18  19
ATOM     19  C   UNL     1       9.473  -1.754  24.467  0.00  0.00    +0.167 C 
BRANCH  19  20
ATOM     20  C   UNL     1       9.565  -0.304  23.985  0.00  0.00    +0.009 C 
ATOM     21  C   UNL     1       9.881  -0.311  22.487  0.00  0.00    +0.009 C 
ATOM     22  C   UNL     1      10.635   0.475  24.750  0.00  0.00    +0.009 C 
ENDBRANCH  19  20
ENDBRANCH  18  19
ENDBRANCH   3  18
TORSDOF 7
ENDMDL
MODEL 6
REMARK VINA RESULT:      -5.4      3.781      6.705
REMARK  Name = 
REMARK  10 active torsions:
REMARK  status: ('A' for Active; 'I' for Inactive)
REMARK    1  A    between atoms: C_2  and  O_3
REMARK    2  A    between atoms: C_5  and  C_20
REMARK    3  A    between atoms: C_7  and  O_9
REMARK    4  A    between atoms: O_9  and  C_10
REMARK    5  A    between atoms: C_10  and  C_11
REMARK    6  A    between atoms: C_11  and  C_12
REMARK    7  A    between atoms: C_11  and  C_13
REMARK    8  A    between atoms: C_14  and  N_16
REMARK    9  A    between atoms: C_17  and  C_18
REMARK   10  A    between atoms: C_20  and  O_21
REMARK                            x       y       z     vdW  Elec       q    Type
REMARK                         _______ _______ _______ _____ _____    ______ ____
ROOT
ATOM      1  C   UNL     1       9.814  -1.416  23.010  0.00  0.00    +0.167 C 
ATOM      2  C   UNL     1       8.835  -2.533  23.407  0.00  0.00    +0.174 C 
ATOM      3  C   UNL     1       7.360  -2.242  22.977  0.00  0.00    +0.331 C 
ATOM      4  O   UNL     1       6.940  -0.866  23.019  0.00  0.00    -0.455 OA
ATOM      5  C   UNL     1       7.870   0.081  22.656  0.00  0.00    +0.206 C 
ATOM      6  C   UNL     1       9.189  -0.134  22.611  0.00  0.00    +0.059 C 
ENDROOT
BRANCH   2   7
ATOM      7  N   UNL     1       8.962  -3.003  24.793  0.00  0.00    -0.304 N 
ATOM      8  H   UNL     1       8.958  -2.301  25.523  0.00  0.00    +0.149 HD
ATOM      9  C   UNL     1       9.068  -4.322  25.149  0.00  0.00    +0.210 C 
ATOM     10  O   UNL     1       9.094  -5.234  24.335  0.00  0.00    -0.276 OA
ATOM     11  C   UNL     1       9.201  -4.540  26.633  0.00  0.00    +0.109 C 
ENDBRANCH   2   7
BRANCH   1  12
ATOM     12  O   UNL     1      10.620  -1.869  21.914  0.00  0.00    -0.386 OA
ATOM     13  H   UNL     1      10.600  -2.844  21.906  0.00  0.00    +0.210 HD
ENDBRANCH   1  12
BRANCH   5  14
ATOM     14  C   UNL     1       7.378   1.458  22.330  0.00  0.00    +0.372 C 
ATOM     15  O   UNL     1       6.443   2.022  22.871  0.00  0.00    -0.242 OA
BRANCH  14  16
ATOM     16  O   UNL     1       8.128   2.014  21.352  0.00  0.00    -0.475 OA
ATOM     17  H   UNL     1       7.681   2.806  20.996  0.00  0.00    +0.296 HD
ENDBRANCH  14  16
ENDBRANCH   5  14
BRANCH   3  18
ATOM     18  O   UNL     1       7.051  -2.785  21.673  0.00  0.00    -0.340 OA
BRANCH  18  19
ATOM     19  C   UNL     1       5.893  -3.622  21.674  0.00  0.00    +0.167 C 
BRANCH  19  20
ATOM     20  C   UNL     1       6.124  -4.929  22.436  0.00  0.00    +0.009 C 
ATOM     21  C   UNL     1       6.970  -5.857  21.560  0.00  0.00    +0.009 C 
ATOM     22  C   UNL     1       4.802  -5.605  22.803  0.00  0.00    +0.009 C 
ENDBRANCH  19  20
ENDBRANCH  18  19
ENDBRANCH   3  18
TORSDOF 7
ENDMDL
MODEL 7
REMARK VINA RESULT:      -5.4      3.954      5.699
REMARK  Name = 
REMARK  10 active torsions:
REMARK  status: ('A' for Active; 'I' for Inactive)
REMARK    1  A    between atoms: C_2  and  O_3
REMARK    2  A    between atoms: C_5  and  C_20
REMARK    3  A    between atoms: C_7  and  O_9
REMARK    4  A    between atoms: O_9  and  C_10
REMARK    5  A    between atoms: C_10  and  C_11
REMARK    6  A    between atoms: C_11  and  C_12
REMARK    7  A    between atoms: C_11  and  C_13
REMARK    8  A    between atoms: C_14  and  N_16
REMARK    9  A    between atoms: C_17  and  C_18
REMARK   10  A    between atoms: C_20  and  O_21
REMARK                            x       y       z     vdW  Elec       q    Type
REMARK                         _______ _______ _______ _____ _____    ______ ____
ROOT
ATOM      1  C   UNL     1       8.093  -1.447  25.301  0.00  0.00    +0.167 C 
ATOM      2  C   UNL     1       7.969  -1.329  23.773  0.00  0.00    +0.174 C 
ATOM      3  C   UNL     1       7.777  -2.708  23.062  0.00  0.00    +0.331 C 
ATOM      4  O   UNL     1       8.464  -3.830  23.645  0.00  0.00    -0.455 OA
ATOM      5  C   UNL     1       8.542  -3.868  25.018  0.00  0.00    +0.206 C 
ATOM      6  C   UNL     1       8.352  -2.811  25.814  0.00  0.00    +0.059 C 
ENDROOT
BRANCH   2   7
ATOM      7  N   UNL     1       8.977  -0.472  23.135  0.00  0.00    -0.304 N 
ATOM      8  H   UNL     1       9.937  -0.793  23.153  0.00  0.00    +0.149 HD
ATOM      9  C   UNL     1       8.692   0.715  22.512  0.00  0.00    +0.210 C 
ATOM     10  O   UNL     1       7.564   1.186  22.454  0.00  0.00    -0.276 OA
ATOM     11  C   UNL     1       9.904   1.410  21.950  0.00  0.00    +0.109 C 
ENDBRANCH   2   7
BRANCH   1  12
ATOM     12  O   UNL     1       6.881  -0.975  25.906  0.00  0.00    -0.386 OA
ATOM     13  H   UNL     1       6.130  -1.308  25.381  0.00  0.00    +0.210 HD
ENDBRANCH   1  12
BRANCH   5  14
ATOM     14  C   UNL     1       8.905  -5.170  25.664  0.00  0.00    +0.372 C 
ATOM     15  O   UNL     1       8.186  -5.818  26.404  0.00  0.00    -0.242 OA
BRANCH  14  16
ATOM     16  O   UNL     1      10.151  -5.551  25.302  0.00  0.00    -0.475 OA
ATOM     17  H   UNL     1      10.211  -6.526  25.282  0.00  0.00    +0.296 HD
ENDBRANCH  14  16
ENDBRANCH   5  14
BRANCH   3  18
ATOM     18  O   UNL     1       6.383  -3.049  22.892  0.00  0.00    -0.340 OA
BRANCH  18  19
ATOM     19  C   UNL     1       6.140  -3.863  21.744  0.00  0.00    +0.167 C 
BRANCH  19  20
ATOM     20  C   UNL     1       5.652  -5.264  22.118  0.00  0.00    +0.009 C 
ATOM     21  C   UNL     1       5.183  -5.240  23.576  0.00  0.00    +0.009 C 
ATOM     22  C   UNL     1       6.751  -6.310  21.931  0.00  0.00    +0.009 C 
ENDBRANCH  19  20
ENDBRANCH  18  19
ENDBRANCH   3  18
TORSDOF 7
ENDMDL
MODEL 8
REMARK VINA RESULT:      -5.3      3.277      6.589
REMARK  Name = 
REMARK  10 active torsions:
REMARK  status: ('A' for Active; 'I' for Inactive)
REMARK    1  A    between atoms: C_2  and  O_3
REMARK    2  A    between atoms: C_5  and  C_20
REMARK    3  A    between atoms: C_7  and  O_9
REMARK    4  A    between atoms: O_9  and  C_10
REMARK    5  A    between atoms: C_10  and  C_11
REMARK    6  A    between atoms: C_11  and  C_12
REMARK    7  A    between atoms: C_11  and  C_13
REMARK    8  A    between atoms: C_14  and  N_16
REMARK    9  A    between atoms: C_17  and  C_18
REMARK   10  A    between atoms: C_20  and  O_21
REMARK                            x       y       z     vdW  Elec       q    Type
REMARK                         _______ _______ _______ _____ _____    ______ ____
ROOT
ATOM      1  C   UNL     1       6.608  -1.990  24.245  0.00  0.00    +0.167 C 
ATOM      2  C   UNL     1       7.670  -2.797  23.481  0.00  0.00    +0.174 C 
ATOM      3  C   UNL     1       8.673  -1.898  22.686  0.00  0.00    +0.331 C 
ATOM      4  O   UNL     1       8.138  -0.690  22.116  0.00  0.00    -0.455 OA
ATOM      5  C   UNL     1       7.186  -0.022  22.853  0.00  0.00    +0.206 C 
ATOM      6  C   UNL     1       6.484  -0.568  23.851  0.00  0.00    +0.059 C 
ENDROOT
BRANCH   2   7
ATOM      7  N   UNL     1       7.147  -3.927  22.702  0.00  0.00    -0.304 N 
ATOM      8  H   UNL     1       6.434  -3.723  22.013  0.00  0.00    +0.149 HD
ATOM      9  C   UNL     1       7.576  -5.221  22.843  0.00  0.00    +0.210 C 
ATOM     10  O   UNL     1       8.423  -5.559  23.658  0.00  0.00    -0.276 OA
ATOM     11  C   UNL     1       6.871  -6.195  21.937  0.00  0.00    +0.109 C 
ENDBRANCH   2   7
BRANCH   1  12
ATOM     12  O   UNL     1       6.909  -2.031  25.647  0.00  0.00    -0.386 OA
ATOM     13  H   UNL     1       6.685  -1.163  26.031  0.00  0.00    +0.210 HD
ENDBRANCH   1  12
BRANCH   5  14
ATOM     14  C   UNL     1       6.885   1.399  22.486  0.00  0.00    +0.372 C 
ATOM     15  O   UNL     1       7.584   2.112  21.788  0.00  0.00    -0.242 OA
BRANCH  14  16
ATOM     16  O   UNL     1       5.709   1.792  23.025  0.00  0.00    -0.475 OA
ATOM     17  H   UNL     1       5.037   1.894  22.323  0.00  0.00    +0.296 HD
ENDBRANCH  14  16
ENDBRANCH   5  14
BRANCH   3  18
ATOM     18  O   UNL     1       9.849  -1.569  23.461  0.00  0.00    -0.340 OA
BRANCH  18  19
ATOM     19  C   UNL     1      10.492  -0.372  23.023  0.00  0.00    +0.167 C 
BRANCH  19  20
ATOM     20  C   UNL     1      10.799   0.579  24.182  0.00  0.00    +0.009 C 
ATOM     21  C   UNL     1       9.961   0.154  25.391  0.00  0.00    +0.009 C 
ATOM     22  C   UNL     1      10.497   2.032  23.812  0.00  0.00    +0.009 C 
ENDBRANCH  19  20
ENDBRANCH  18  19
ENDBRANCH   3  18
TORSDOF 7
ENDMDL
MODEL 9
REMARK VINA RESULT:      -5.2      6.180      8.857
REMARK  Name = 
REMARK  10 active torsions:
REMARK  status: ('A' for Active; 'I' for Inactive)
REMARK    1  A    between atoms: C_2  and  O_3
REMARK    2  A    between atoms: C_5  and  C_20
REMARK    3  A    between atoms: C_7  and  O_9
REMARK    4  A    between atoms: O_9  and  C_10
REMARK    5  A    between atoms: C_10  and  C_11
REMARK    6  A    between atoms: C_11  and  C_12
REMARK    7  A    between atoms: C_11  and  C_13
REMARK    8  A    between atoms: C_14  and  N_16
REMARK    9  A    between atoms: C_17  and  C_18
REMARK   10  A    between atoms: C_20  and  O_21
REMARK                            x       y       z     vdW  Elec       q    Type
REMARK                         _______ _______ _______ _____ _____    ______ ____
ROOT
ATOM      1  C   UNL     1       6.062  -5.860  22.049  0.00  0.00    +0.167 C 
ATOM      2  C   UNL     1       4.852  -5.474  22.917  0.00  0.00    +0.174 C 
ATOM      3  C   UNL     1       5.213  -4.482  24.071  0.00  0.00    +0.331 C 
ATOM      4  O   UNL     1       6.510  -4.642  24.672  0.00  0.00    -0.455 OA
ATOM      5  C   UNL     1       7.545  -4.994  23.836  0.00  0.00    +0.206 C 
ATOM      6  C   UNL     1       7.386  -5.526  22.620  0.00  0.00    +0.059 C 
ENDROOT
BRANCH   2   7
ATOM      7  N   UNL     1       4.017  -6.603  23.351  0.00  0.00    -0.304 N 
ATOM      8  H   UNL     1       4.491  -7.401  23.755  0.00  0.00    +0.149 HD
ATOM      9  C   UNL     1       2.651  -6.627  23.255  0.00  0.00    +0.210 C 
ATOM     10  O   UNL     1       1.998  -5.714  22.770  0.00  0.00    -0.276 OA
ATOM     11  C   UNL     1       2.031  -7.905  23.756  0.00  0.00    +0.109 C 
ENDBRANCH   2   7
BRANCH   1  12
ATOM     12  O   UNL     1       5.954  -5.201  20.779  0.00  0.00    -0.386 OA
ATOM     13  H   UNL     1       6.786  -4.721  20.615  0.00  0.00    +0.210 HD
ENDBRANCH   1  12
BRANCH   5  14
ATOM     14  C   UNL     1       8.945  -4.807  24.337  0.00  0.00    +0.372 C 
ATOM     15  O   UNL     1       9.580  -3.769  24.293  0.00  0.00    -0.242 OA
BRANCH  14  16
ATOM     16  O   UNL     1       9.419  -5.957  24.868  0.00  0.00    -0.475 OA
ATOM     17  H   UNL     1       8.967  -6.723  24.465  0.00  0.00    +0.296 HD
ENDBRANCH  14  16
ENDBRANCH   5  14
BRANCH   3  18
ATOM     18  O   UNL     1       5.047  -3.100  23.678  0.00  0.00    -0.340 OA
BRANCH  18  19
ATOM     19  C   UNL     1       5.241  -2.184  24.756  0.00  0.00    +0.167 C 
BRANCH  19  20
ATOM     20  C   UNL     1       6.291  -1.119  24.430  0.00  0.00    +0.009 C 
ATOM     21  C   UNL     1       6.797  -1.358  23.004  0.00  0.00    +0.009 C 
ATOM     22  C   UNL     1       7.456  -1.157  25.419  0.00  0.00    +0.009 C 
ENDBRANCH  19  20
ENDBRANCH  18  19
ENDBRANCH   3  18
TORSDOF 7
ENDMDL
