MODEL 1
REMARK VINA RESULT:      -7.3      0.000      0.000
REMARK  Name = 
REMARK  8 active torsions:
REMARK  status: ('A' for Active; 'I' for Inactive)
REMARK    1  A    between atoms: C_1  and  C_2
REMARK    2  A    between atoms: C_2  and  O_3
REMARK    3  A    between atoms: O_3  and  C_4
REMARK    4  A    between atoms: C_4  and  C_6
REMARK    5  A    between atoms: C_6  and  C_7
REMARK    6  A    between atoms: C_6  and  C_19
REMARK    7  A    between atoms: C_8  and  O_9
REMARK    8  A    between atoms: C_20  and  O_21
REMARK                            x       y       z     vdW  Elec       q    Type
REMARK                         _______ _______ _______ _____ _____    ______ ____
ROOT
ATOM      1  C   UNL     1       7.091  -4.004  24.191  0.00  0.00    +0.179 C 
ENDROOT
BRANCH   1   2
ATOM      2  C   UNL     1       7.955  -2.750  24.348  0.00  0.00    +0.098 A 
ATOM      3  C   UNL     1       7.124  -1.510  24.489  0.00  0.00    +0.201 A 
ATOM      4  O   UNL     1       5.901  -1.552  24.537  0.00  0.00    -0.287 OA
ATOM      5  C   UNL     1       7.809  -0.220  24.556  0.00  0.00    +0.065 A 
ATOM      6  C   UNL     1       9.192  -0.215  24.546  0.00  0.00    +0.143 A 
ATOM      7  C   UNL     1       9.886   0.993  24.598  0.00  0.00    +0.047 A 
ATOM      8  C   UNL     1       9.183   2.198  24.650  0.00  0.00    +0.004 A 
ATOM      9  C   UNL     1       7.788   2.192  24.665  0.00  0.00    +0.001 A 
ATOM     10  O   UNL     1       9.930  -1.358  24.481  0.00  0.00    -0.425 OA
ATOM     11  C   UNL     1       7.097   0.981  24.620  0.00  0.00    +0.015 A 
ATOM     12  C   UNL     1       9.300  -2.586  24.351  0.00  0.00    +0.293 A 
BRANCH  12  13
ATOM     13  O   UNL     1      10.205  -3.618  24.224  0.00  0.00    -0.480 OA
ATOM     14  H   UNL     1      10.976  -3.521  24.808  0.00  0.00    +0.295 HD
ENDBRANCH  12  13
ENDBRANCH   1   2
BRANCH   1  15
ATOM     15  C   UNL     1       6.806  -4.682  25.517  0.00  0.00    +0.098 A 
ATOM     16  C   UNL     1       5.374  -4.732  25.916  0.00  0.00    +0.201 A 
ATOM     17  O   UNL     1       4.467  -4.600  25.105  0.00  0.00    -0.287 OA
ATOM     18  C   UNL     1       5.092  -4.974  27.335  0.00  0.00    +0.065 A 
ATOM     19  C   UNL     1       6.129  -5.429  28.138  0.00  0.00    +0.143 A 
ATOM     20  C   UNL     1       5.906  -5.671  29.492  0.00  0.00    +0.047 A 
ATOM     21  C   UNL     1       4.641  -5.439  30.039  0.00  0.00    +0.004 A 
ATOM     22  C   UNL     1       3.600  -4.982  29.231  0.00  0.00    +0.001 A 
ATOM     23  O   UNL     1       7.384  -5.664  27.648  0.00  0.00    -0.425 OA
ATOM     24  C   UNL     1       3.821  -4.752  27.871  0.00  0.00    +0.015 A 
ATOM     25  C   UNL     1       7.702  -5.189  26.390  0.00  0.00    +0.293 A 
BRANCH  25  26
ATOM     26  O   UNL     1       9.045  -5.248  26.064  0.00  0.00    -0.480 OA
ATOM     27  H   UNL     1       9.480  -4.499  26.519  0.00  0.00    +0.295 HD
ENDBRANCH  25  26
ENDBRANCH   1  15
BRANCH   1  28
ATOM     28  C   UNL     1       7.673  -4.992  23.187  0.00  0.00    +0.320 C 
ATOM     29  O   UNL     1       8.519  -5.836  23.481  0.00  0.00    -0.250 OA
BRANCH  28  30
ATOM     30  O   UNL     1       7.266  -4.690  21.927  0.00  0.00    -0.464 OA
BRANCH  30  32
ATOM     31  C   UNL     1       5.373  -6.120  22.054  0.00  0.00    +0.048 C 
ATOM     32  C   UNL     1       6.562  -5.710  21.204  0.00  0.00    +0.229 C 
ENDBRANCH  30  32
ENDBRANCH  28  30
ENDBRANCH   1  28
TORSDOF 7
ENDMDL
MODEL 2
REMARK VINA RESULT:      -7.1      1.780      2.184
REMARK  Name = 
REMARK  8 active torsions:
REMARK  status: ('A' for Active; 'I' for Inactive)
REMARK    1  A    between atoms: C_1  and  C_2
REMARK    2  A    between atoms: C_2  and  O_3
REMARK    3  A    between atoms: O_3  and  C_4
REMARK    4  A    between atoms: C_4  and  C_6
REMARK    5  A    between atoms: C_6  and  C_7
REMARK    6  A    between atoms: C_6  and  C_19
REMARK    7  A    between atoms: C_8  and  O_9
REMARK    8  A    between atoms: C_20  and  O_21
REMARK                            x       y       z     vdW  Elec       q    Type
REMARK                         _______ _______ _______ _____ _____    ______ ____
ROOT
ATOM      1  C   UNL     1       7.635  -3.535  24.383  0.00  0.00    +0.179 C 
ENDROOT
BRANCH   1   2
ATOM      2  C   UNL     1       8.286  -2.154  24.498  0.00  0.00    +0.098 A 
ATOM      3  C   UNL     1       8.327  -1.441  23.179  0.00  0.00    +0.201 A 
ATOM      4  O   UNL     1       7.825  -1.919  22.169  0.00  0.00    -0.287 OA
ATOM      5  C   UNL     1       9.003  -0.146  23.112  0.00  0.00    +0.065 A 
ATOM      6  C   UNL     1       9.517   0.383  24.281  0.00  0.00    +0.143 A 
ATOM      7  C   UNL     1      10.177   1.610  24.261  0.00  0.00    +0.047 A 
ATOM      8  C   UNL     1      10.328   2.300  23.056  0.00  0.00    +0.004 A 
ATOM      9  C   UNL     1       9.806   1.767  21.878  0.00  0.00    +0.001 A 
ATOM     10  O   UNL     1       9.413  -0.252  25.482  0.00  0.00    -0.425 OA
ATOM     11  C   UNL     1       9.138   0.543  21.903  0.00  0.00    +0.015 A 
ATOM     12  C   UNL     1       8.834  -1.510  25.556  0.00  0.00    +0.293 A 
BRANCH  12  13
ATOM     13  O   UNL     1       8.885  -2.026  26.834  0.00  0.00    -0.480 OA
ATOM     14  H   UNL     1       8.414  -1.478  27.483  0.00  0.00    +0.295 HD
ENDBRANCH  12  13
ENDBRANCH   1   2
BRANCH   1  15
ATOM     15  C   UNL     1       6.624  -3.793  25.482  0.00  0.00    +0.098 A 
ATOM     16  C   UNL     1       5.220  -3.421  25.161  0.00  0.00    +0.201 A 
ATOM     17  O   UNL     1       4.829  -3.285  24.010  0.00  0.00    -0.287 OA
ATOM     18  C   UNL     1       4.307  -3.245  26.296  0.00  0.00    +0.065 A 
ATOM     19  C   UNL     1       4.712  -3.717  27.537  0.00  0.00    +0.143 A 
ATOM     20  C   UNL     1       3.876  -3.572  28.644  0.00  0.00    +0.047 A 
ATOM     21  C   UNL     1       2.640  -2.935  28.501  0.00  0.00    +0.004 A 
ATOM     22  C   UNL     1       2.235  -2.462  27.252  0.00  0.00    +0.001 A 
ATOM     23  O   UNL     1       5.914  -4.341  27.727  0.00  0.00    -0.425 OA
ATOM     24  C   UNL     1       3.067  -2.620  26.142  0.00  0.00    +0.015 A 
ATOM     25  C   UNL     1       6.862  -4.265  26.725  0.00  0.00    +0.293 A 
BRANCH  25  26
ATOM     26  O   UNL     1       8.125  -4.703  27.079  0.00  0.00    -0.480 OA
ATOM     27  H   UNL     1       8.006  -5.529  27.591  0.00  0.00    +0.295 HD
ENDBRANCH  25  26
ENDBRANCH   1  15
BRANCH   1  28
ATOM     28  C   UNL     1       8.661  -4.660  24.310  0.00  0.00    +0.320 C 
ATOM     29  O   UNL     1       9.783  -4.585  24.810  0.00  0.00    -0.250 OA
BRANCH  28  30
ATOM     30  O   UNL     1       8.231  -5.647  23.483  0.00  0.00    -0.464 OA
BRANCH  30  32
ATOM     31  C   UNL     1       6.283  -6.226  22.254  0.00  0.00    +0.048 C 
ATOM     32  C   UNL     1       7.447  -5.255  22.347  0.00  0.00    +0.229 C 
ENDBRANCH  30  32
ENDBRANCH  28  30
ENDBRANCH   1  28
TORSDOF 7
ENDMDL
MODEL 3
REMARK VINA RESULT:      -7.0      1.411      6.479
REMARK  Name = 
REMARK  8 active torsions:
REMARK  status: ('A' for Active; 'I' for Inactive)
REMARK    1  A    between atoms: C_1  and  C_2
REMARK    2  A    between atoms: C_2  and  O_3
REMARK    3  A    between atoms: O_3  and  C_4
REMARK    4  A    between atoms: C_4  and  C_6
REMARK    5  A    between atoms: C_6  and  C_7
REMARK    6  A    between atoms: C_6  and  C_19
REMARK    7  A    between atoms: C_8  and  O_9
REMARK    8  A    between atoms: C_20  and  O_21
REMARK                            x       y       z     vdW  Elec       q    Type
REMARK                         _______ _______ _______ _____ _____    ______ ____
ROOT
ATOM      1  C   UNL     1       7.003  -4.127  24.147  0.00  0.00    +0.179 C 
ENDROOT
BRANCH   1   2
ATOM      2  C   UNL     1       6.264  -4.022  25.483  0.00  0.00    +0.098 A 
ATOM      3  C   UNL     1       6.771  -5.015  26.485  0.00  0.00    +0.201 A 
ATOM      4  O   UNL     1       7.713  -5.758  26.240  0.00  0.00    -0.287 OA
ATOM      5  C   UNL     1       6.099  -5.098  27.781  0.00  0.00    +0.065 A 
ATOM      6  C   UNL     1       5.068  -4.213  28.038  0.00  0.00    +0.143 A 
ATOM      7  C   UNL     1       4.394  -4.263  29.258  0.00  0.00    +0.047 A 
ATOM      8  C   UNL     1       4.753  -5.215  30.214  0.00  0.00    +0.004 A 
ATOM      9  C   UNL     1       5.796  -6.104  29.955  0.00  0.00    +0.001 A 
ATOM     10  O   UNL     1       4.664  -3.274  27.138  0.00  0.00    -0.425 OA
ATOM     11  C   UNL     1       6.474  -6.046  28.737  0.00  0.00    +0.015 A 
ATOM     12  C   UNL     1       5.244  -3.223  25.880  0.00  0.00    +0.293 A 
BRANCH  12  13
ATOM     13  O   UNL     1       4.658  -2.263  25.082  0.00  0.00    -0.480 OA
ATOM     14  H   UNL     1       4.321  -1.504  25.586  0.00  0.00    +0.295 HD
ENDBRANCH  12  13
ENDBRANCH   1   2
BRANCH   1  15
ATOM     15  C   UNL     1       7.504  -2.784  23.654  0.00  0.00    +0.098 A 
ATOM     16  C   UNL     1       8.852  -2.384  24.140  0.00  0.00    +0.201 A 
ATOM     17  O   UNL     1       9.656  -3.199  24.574  0.00  0.00    -0.287 OA
ATOM     18  C   UNL     1       9.190  -0.960  24.055  0.00  0.00    +0.065 A 
ATOM     19  C   UNL     1       8.383  -0.144  23.273  0.00  0.00    +0.143 A 
ATOM     20  C   UNL     1       8.667   1.216  23.163  0.00  0.00    +0.047 A 
ATOM     21  C   UNL     1       9.755   1.756  23.855  0.00  0.00    +0.004 A 
ATOM     22  C   UNL     1      10.565   0.934  24.640  0.00  0.00    +0.001 A 
ATOM     23  O   UNL     1       7.305  -0.626  22.583  0.00  0.00    -0.425 OA
ATOM     24  C   UNL     1      10.287  -0.430  24.739  0.00  0.00    +0.015 A 
ATOM     25  C   UNL     1       6.847  -1.896  22.877  0.00  0.00    +0.293 A 
BRANCH  25  26
ATOM     26  O   UNL     1       5.622  -2.218  22.323  0.00  0.00    -0.480 OA
ATOM     27  H   UNL     1       5.334  -3.056  22.739  0.00  0.00    +0.295 HD
ENDBRANCH  25  26
ENDBRANCH   1  15
BRANCH   1  28
ATOM     28  C   UNL     1       6.177  -4.827  23.075  0.00  0.00    +0.320 C 
ATOM     29  O   UNL     1       6.635  -5.177  21.988  0.00  0.00    -0.250 OA
BRANCH  28  30
ATOM     30  O   UNL     1       4.862  -4.842  23.417  0.00  0.00    -0.464 OA
BRANCH  30  32
ATOM     31  C   UNL     1       4.295  -6.938  24.380  0.00  0.00    +0.048 C 
ATOM     32  C   UNL     1       4.131  -6.049  23.159  0.00  0.00    +0.229 C 
ENDBRANCH  30  32
ENDBRANCH  28  30
ENDBRANCH   1  28
TORSDOF 7
ENDMDL
MODEL 4
REMARK VINA RESULT:      -7.0      1.962      3.669
REMARK  Name = 
REMARK  8 active torsions:
REMARK  status: ('A' for Active; 'I' for Inactive)
REMARK    1  A    between atoms: C_1  and  C_2
REMARK    2  A    between atoms: C_2  and  O_3
REMARK    3  A    between atoms: O_3  and  C_4
REMARK    4  A    between atoms: C_4  and  C_6
REMARK    5  A    between atoms: C_6  and  C_7
REMARK    6  A    between atoms: C_6  and  C_19
REMARK    7  A    between atoms: C_8  and  O_9
REMARK    8  A    between atoms: C_20  and  O_21
REMARK                            x       y       z     vdW  Elec       q    Type
REMARK                         _______ _______ _______ _____ _____    ______ ____
ROOT
ATOM      1  C   UNL     1       8.333  -3.828  23.800  0.00  0.00    +0.179 C 
ENDROOT
BRANCH   1   2
ATOM      2  C   UNL     1       8.701  -2.369  24.084  0.00  0.00    +0.098 A 
ATOM      3  C   UNL     1       8.901  -1.585  22.823  0.00  0.00    +0.201 A 
ATOM      4  O   UNL     1       8.714  -2.078  21.717  0.00  0.00    -0.287 OA
ATOM      5  C   UNL     1       9.347  -0.197  22.933  0.00  0.00    +0.065 A 
ATOM      6  C   UNL     1       9.503   0.340  24.197  0.00  0.00    +0.143 A 
ATOM      7  C   UNL     1       9.935   1.657  24.348  0.00  0.00    +0.047 A 
ATOM      8  C   UNL     1      10.220   2.429  23.221  0.00  0.00    +0.004 A 
ATOM      9  C   UNL     1      10.058   1.889  21.946  0.00  0.00    +0.001 A 
ATOM     10  O   UNL     1       9.255  -0.371  25.332  0.00  0.00    -0.425 OA
ATOM     11  C   UNL     1       9.617   0.574  21.798  0.00  0.00    +0.015 A 
ATOM     12  C   UNL     1       8.895  -1.708  25.251  0.00  0.00    +0.293 A 
BRANCH  12  13
ATOM     13  O   UNL     1       8.760  -2.282  26.497  0.00  0.00    -0.480 OA
ATOM     14  H   UNL     1       7.900  -2.717  26.623  0.00  0.00    +0.295 HD
ENDBRANCH  12  13
ENDBRANCH   1   2
BRANCH   1  15
ATOM     15  C   UNL     1       6.863  -4.003  23.475  0.00  0.00    +0.098 A 
ATOM     16  C   UNL     1       5.917  -3.312  24.393  0.00  0.00    +0.201 A 
ATOM     17  O   UNL     1       6.265  -2.380  25.105  0.00  0.00    -0.287 OA
ATOM     18  C   UNL     1       4.529  -3.786  24.389  0.00  0.00    +0.065 A 
ATOM     19  C   UNL     1       4.124  -4.612  23.349  0.00  0.00    +0.143 A 
ATOM     20  C   UNL     1       2.814  -5.085  23.306  0.00  0.00    +0.047 A 
ATOM     21  C   UNL     1       1.917  -4.738  24.320  0.00  0.00    +0.004 A 
ATOM     22  C   UNL     1       2.325  -3.907  25.364  0.00  0.00    +0.001 A 
ATOM     23  O   UNL     1       4.968  -4.983  22.338  0.00  0.00    -0.425 OA
ATOM     24  C   UNL     1       3.635  -3.423  25.399  0.00  0.00    +0.015 A 
ATOM     25  C   UNL     1       6.322  -4.752  22.490  0.00  0.00    +0.293 A 
BRANCH  25  26
ATOM     26  O   UNL     1       7.129  -5.366  21.551  0.00  0.00    -0.480 OA
ATOM     27  H   UNL     1       6.587  -6.059  21.120  0.00  0.00    +0.295 HD
ENDBRANCH  25  26
ENDBRANCH   1  15
BRANCH   1  28
ATOM     28  C   UNL     1       8.759  -4.767  24.922  0.00  0.00    +0.320 C 
ATOM     29  O   UNL     1       9.934  -5.031  25.174  0.00  0.00    -0.250 OA
BRANCH  28  30
ATOM     30  O   UNL     1       7.678  -5.389  25.462  0.00  0.00    -0.464 OA
BRANCH  30  32
ATOM     31  C   UNL     1       6.138  -5.657  27.251  0.00  0.00    +0.048 C 
ATOM     32  C   UNL     1       7.598  -5.436  26.894  0.00  0.00    +0.229 C 
ENDBRANCH  30  32
ENDBRANCH  28  30
ENDBRANCH   1  28
TORSDOF 7
ENDMDL
MODEL 5
REMARK VINA RESULT:      -7.0      2.082      6.527
REMARK  Name = 
REMARK  8 active torsions:
REMARK  status: ('A' for Active; 'I' for Inactive)
REMARK    1  A    between atoms: C_1  and  C_2
REMARK    2  A    between atoms: C_2  and  O_3
REMARK    3  A    between atoms: O_3  and  C_4
REMARK    4  A    between atoms: C_4  and  C_6
REMARK    5  A    between atoms: C_6  and  C_7
REMARK    6  A    between atoms: C_6  and  C_19
REMARK    7  A    between atoms: C_8  and  O_9
REMARK    8  A    between atoms: C_20  and  O_21
REMARK                            x       y       z     vdW  Elec       q    Type
REMARK                         _______ _______ _______ _____ _____    ______ ____
ROOT
ATOM      1  C   UNL     1       7.160  -3.570  25.846  0.00  0.00    +0.179 C 
ENDROOT
BRANCH   1   2
ATOM      2  C   UNL     1       6.017  -4.150  25.009  0.00  0.00    +0.098 A 
ATOM      3  C   UNL     1       4.682  -3.618  25.437  0.00  0.00    +0.201 A 
ATOM      4  O   UNL     1       4.574  -2.770  26.314  0.00  0.00    -0.287 OA
ATOM      5  C   UNL     1       3.484  -4.150  24.790  0.00  0.00    +0.065 A 
ATOM      6  C   UNL     1       3.647  -5.073  23.773  0.00  0.00    +0.143 A 
ATOM      7  C   UNL     1       2.531  -5.613  23.135  0.00  0.00    +0.047 A 
ATOM      8  C   UNL     1       1.249  -5.229  23.531  0.00  0.00    +0.004 A 
ATOM      9  C   UNL     1       1.085  -4.295  24.555  0.00  0.00    +0.001 A 
ATOM     10  O   UNL     1       4.873  -5.495  23.355  0.00  0.00    -0.425 OA
ATOM     11  C   UNL     1       2.204  -3.751  25.185  0.00  0.00    +0.015 A 
ATOM     12  C   UNL     1       6.018  -5.053  23.999  0.00  0.00    +0.293 A 
BRANCH  12  13
ATOM     13  O   UNL     1       7.156  -5.644  23.491  0.00  0.00    -0.480 OA
ATOM     14  H   UNL     1       7.592  -5.104  22.811  0.00  0.00    +0.295 HD
ENDBRANCH  12  13
ENDBRANCH   1   2
BRANCH   1  15
ATOM     15  C   UNL     1       8.130  -2.751  25.017  0.00  0.00    +0.098 A 
ATOM     16  C   UNL     1       7.855  -1.290  24.969  0.00  0.00    +0.201 A 
ATOM     17  O   UNL     1       7.166  -0.728  25.810  0.00  0.00    -0.287 OA
ATOM     18  C   UNL     1       8.474  -0.538  23.872  0.00  0.00    +0.065 A 
ATOM     19  C   UNL     1       9.486  -1.153  23.149  0.00  0.00    +0.143 A 
ATOM     20  C   UNL     1      10.102  -0.475  22.097  0.00  0.00    +0.047 A 
ATOM     21  C   UNL     1       9.685   0.817  21.766  0.00  0.00    +0.004 A 
ATOM     22  C   UNL     1       8.667   1.434  22.495  0.00  0.00    +0.001 A 
ATOM     23  O   UNL     1       9.924  -2.418  23.432  0.00  0.00    -0.425 OA
ATOM     24  C   UNL     1       8.060   0.759  23.555  0.00  0.00    +0.015 A 
ATOM     25  C   UNL     1       9.167  -3.203  24.281  0.00  0.00    +0.293 A 
BRANCH  25  26
ATOM     26  O   UNL     1       9.535  -4.535  24.328  0.00  0.00    -0.480 OA
ATOM     27  H   UNL     1       9.686  -4.754  25.270  0.00  0.00    +0.295 HD
ENDBRANCH  25  26
ENDBRANCH   1  15
BRANCH   1  28
ATOM     28  C   UNL     1       7.895  -4.637  26.649  0.00  0.00    +0.320 C 
ATOM     29  O   UNL     1       9.072  -4.532  26.994  0.00  0.00    -0.250 OA
BRANCH  28  30
ATOM     30  O   UNL     1       7.138  -5.758  26.762  0.00  0.00    -0.464 OA
BRANCH  30  32
ATOM     31  C   UNL     1       5.106  -6.623  27.637  0.00  0.00    +0.048 C 
ATOM     32  C   UNL     1       6.416  -5.940  27.989  0.00  0.00    +0.229 C 
ENDBRANCH  30  32
ENDBRANCH  28  30
ENDBRANCH   1  28
TORSDOF 7
ENDMDL
MODEL 6
REMARK VINA RESULT:      -6.8      2.100      6.719
REMARK  Name = 
REMARK  8 active torsions:
REMARK  status: ('A' for Active; 'I' for Inactive)
REMARK    1  A    between atoms: C_1  and  C_2
REMARK    2  A    between atoms: C_2  and  O_3
REMARK    3  A    between atoms: O_3  and  C_4
REMARK    4  A    between atoms: C_4  and  C_6
REMARK    5  A    between atoms: C_6  and  C_7
REMARK    6  A    between atoms: C_6  and  C_19
REMARK    7  A    between atoms: C_8  and  O_9
REMARK    8  A    between atoms: C_20  and  O_21
REMARK                            x       y       z     vdW  Elec       q    Type
REMARK                         _______ _______ _______ _____ _____    ______ ____
ROOT
ATOM      1  C   UNL     1       7.876  -2.526  24.623  0.00  0.00    +0.179 C 
ENDROOT
BRANCH   1   2
ATOM      2  C   UNL     1       6.606  -3.232  24.140  0.00  0.00    +0.098 A 
ATOM      3  C   UNL     1       5.415  -2.881  24.979  0.00  0.00    +0.201 A 
ATOM      4  O   UNL     1       5.483  -2.068  25.892  0.00  0.00    -0.287 OA
ATOM      5  C   UNL     1       4.145  -3.549  24.695  0.00  0.00    +0.065 A 
ATOM      6  C   UNL     1       4.095  -4.427  23.628  0.00  0.00    +0.143 A 
ATOM      7  C   UNL     1       2.907  -5.093  23.328  0.00  0.00    +0.047 A 
ATOM      8  C   UNL     1       1.773  -4.881  24.113  0.00  0.00    +0.004 A 
ATOM      9  C   UNL     1       1.823  -3.993  25.187  0.00  0.00    +0.001 A 
ATOM     10  O   UNL     1       5.174  -4.684  22.837  0.00  0.00    -0.425 OA
ATOM     11  C   UNL     1       3.010  -3.321  25.480  0.00  0.00    +0.015 A 
ATOM     12  C   UNL     1       6.402  -4.111  23.129  0.00  0.00    +0.293 A 
BRANCH  12  13
ATOM     13  O   UNL     1       7.390  -4.545  22.270  0.00  0.00    -0.480 OA
ATOM     14  H   UNL     1       7.047  -4.806  21.399  0.00  0.00    +0.295 HD
ENDBRANCH  12  13
ENDBRANCH   1   2
BRANCH   1  15
ATOM     15  C   UNL     1       8.142  -1.234  23.876  0.00  0.00    +0.098 A 
ATOM     16  C   UNL     1       8.017   0.009  24.682  0.00  0.00    +0.201 A 
ATOM     17  O   UNL     1       8.080   0.003  25.904  0.00  0.00    -0.287 OA
ATOM     18  C   UNL     1       7.839   1.262  23.940  0.00  0.00    +0.065 A 
ATOM     19  C   UNL     1       8.094   1.254  22.576  0.00  0.00    +0.143 A 
ATOM     20  C   UNL     1       7.938   2.422  21.832  0.00  0.00    +0.047 A 
ATOM     21  C   UNL     1       7.508   3.594  22.461  0.00  0.00    +0.004 A 
ATOM     22  C   UNL     1       7.253   3.600  23.832  0.00  0.00    +0.001 A 
ATOM     23  O   UNL     1       8.511   0.131  21.916  0.00  0.00    -0.425 OA
ATOM     24  C   UNL     1       7.422   2.433  24.580  0.00  0.00    +0.015 A 
ATOM     25  C   UNL     1       8.421  -1.087  22.563  0.00  0.00    +0.293 A 
BRANCH  25  26
ATOM     26  O   UNL     1       8.626  -2.193  21.760  0.00  0.00    -0.480 OA
ATOM     27  H   UNL     1       9.594  -2.288  21.650  0.00  0.00    +0.295 HD
ENDBRANCH  25  26
ENDBRANCH   1  15
BRANCH   1  28
ATOM     28  C   UNL     1       9.098  -3.436  24.592  0.00  0.00    +0.320 C 
ATOM     29  O   UNL     1      10.138  -3.150  24.001  0.00  0.00    -0.250 OA
BRANCH  28  30
ATOM     30  O   UNL     1       8.809  -4.645  25.140  0.00  0.00    -0.464 OA
BRANCH  30  32
ATOM     31  C   UNL     1       7.528  -5.276  27.038  0.00  0.00    +0.048 C 
ATOM     32  C   UNL     1       8.872  -4.748  26.570  0.00  0.00    +0.229 C 
ENDBRANCH  30  32
ENDBRANCH  28  30
ENDBRANCH   1  28
TORSDOF 7
ENDMDL
MODEL 7
REMARK VINA RESULT:      -6.5      2.299      7.011
REMARK  Name = 
REMARK  8 active torsions:
REMARK  status: ('A' for Active; 'I' for Inactive)
REMARK    1  A    between atoms: C_1  and  C_2
REMARK    2  A    between atoms: C_2  and  O_3
REMARK    3  A    between atoms: O_3  and  C_4
REMARK    4  A    between atoms: C_4  and  C_6
REMARK    5  A    between atoms: C_6  and  C_7
REMARK    6  A    between atoms: C_6  and  C_19
REMARK    7  A    between atoms: C_8  and  O_9
REMARK    8  A    between atoms: C_20  and  O_21
REMARK                            x       y       z     vdW  Elec       q    Type
REMARK                         _______ _______ _______ _____ _____    ______ ____
ROOT
ATOM      1  C   UNL     1       5.207  -4.270  27.142  0.00  0.00    +0.179 C 
ENDROOT
BRANCH   1   2
ATOM      2  C   UNL     1       4.508  -5.362  26.328  0.00  0.00    +0.098 A 
ATOM      3  C   UNL     1       3.674  -4.790  25.221  0.00  0.00    +0.201 A 
ATOM      4  O   UNL     1       3.640  -3.588  24.991  0.00  0.00    -0.287 OA
ATOM      5  C   UNL     1       2.872  -5.707  24.413  0.00  0.00    +0.065 A 
ATOM      6  C   UNL     1       2.971  -7.062  24.672  0.00  0.00    +0.143 A 
ATOM      7  C   UNL     1       2.217  -7.971  23.931  0.00  0.00    +0.047 A 
ATOM      8  C   UNL     1       1.354  -7.511  22.935  0.00  0.00    +0.004 A 
ATOM      9  C   UNL     1       1.258  -6.145  22.671  0.00  0.00    +0.001 A 
ATOM     10  O   UNL     1       3.785  -7.567  25.640  0.00  0.00    -0.425 OA
ATOM     11  C   UNL     1       2.020  -5.238  23.408  0.00  0.00    +0.015 A 
ATOM     12  C   UNL     1       4.503  -6.710  26.461  0.00  0.00    +0.293 A 
BRANCH  12  13
ATOM     13  O   UNL     1       5.208  -7.395  27.429  0.00  0.00    -0.480 OA
ATOM     14  H   UNL     1       4.640  -7.944  27.994  0.00  0.00    +0.295 HD
ENDBRANCH  12  13
ENDBRANCH   1   2
BRANCH   1  15
ATOM     15  C   UNL     1       6.565  -3.904  26.576  0.00  0.00    +0.098 A 
ATOM     16  C   UNL     1       6.702  -2.503  26.093  0.00  0.00    +0.201 A 
ATOM     17  O   UNL     1       5.947  -1.612  26.458  0.00  0.00    -0.287 OA
ATOM     18  C   UNL     1       7.808  -2.228  25.171  0.00  0.00    +0.065 A 
ATOM     19  C   UNL     1       8.807  -3.184  25.047  0.00  0.00    +0.143 A 
ATOM     20  C   UNL     1       9.878  -2.963  24.181  0.00  0.00    +0.047 A 
ATOM     21  C   UNL     1       9.931  -1.787  23.429  0.00  0.00    +0.004 A 
ATOM     22  C   UNL     1       8.926  -0.827  23.556  0.00  0.00    +0.001 A 
ATOM     23  O   UNL     1       8.795  -4.352  25.757  0.00  0.00    -0.425 OA
ATOM     24  C   UNL     1       7.861  -1.043  24.433  0.00  0.00    +0.015 A 
ATOM     25  C   UNL     1       7.633  -4.714  26.412  0.00  0.00    +0.293 A 
BRANCH  25  26
ATOM     26  O   UNL     1       7.615  -6.007  26.900  0.00  0.00    -0.480 OA
ATOM     27  H   UNL     1       8.439  -6.438  26.593  0.00  0.00    +0.295 HD
ENDBRANCH  25  26
ENDBRANCH   1  15
BRANCH   1  28
ATOM     28  C   UNL     1       5.309  -4.619  28.622  0.00  0.00    +0.320 C 
ATOM     29  O   UNL     1       6.261  -5.227  29.109  0.00  0.00    -0.250 OA
BRANCH  28  30
ATOM     30  O   UNL     1       4.147  -4.331  29.263  0.00  0.00    -0.464 OA
BRANCH  30  32
ATOM     31  C   UNL     1       2.206  -5.700  29.298  0.00  0.00    +0.048 C 
ATOM     32  C   UNL     1       3.521  -5.394  29.995  0.00  0.00    +0.229 C 
ENDBRANCH  30  32
ENDBRANCH  28  30
ENDBRANCH   1  28
TORSDOF 7
ENDMDL
MODEL 8
REMARK VINA RESULT:      -6.4      1.551      2.483
REMARK  Name = 
REMARK  8 active torsions:
REMARK  status: ('A' for Active; 'I' for Inactive)
REMARK    1  A    between atoms: C_1  and  C_2
REMARK    2  A    between atoms: C_2  and  O_3
REMARK    3  A    between atoms: O_3  and  C_4
REMARK    4  A    between atoms: C_4  and  C_6
REMARK    5  A    between atoms: C_6  and  C_7
REMARK    6  A    between atoms: C_6  and  C_19
REMARK    7  A    between atoms: C_8  and  O_9
REMARK    8  A    between atoms: C_20  and  O_21
REMARK                            x       y       z     vdW  Elec       q    Type
REMARK                         _______ _______ _______ _____ _____    ______ ____
ROOT
ATOM      1  C   UNL     1       7.451  -3.309  24.493  0.00  0.00    +0.179 C 
ENDROOT
BRANCH   1   2
ATOM      2  C   UNL     1       8.169  -1.960  24.583  0.00  0.00    +0.098 A 
ATOM      3  C   UNL     1       8.289  -1.298  23.243  0.00  0.00    +0.201 A 
ATOM      4  O   UNL     1       7.795  -1.785  22.234  0.00  0.00    -0.287 OA
ATOM      5  C   UNL     1       9.033  -0.043  23.154  0.00  0.00    +0.065 A 
ATOM      6  C   UNL     1       9.537   0.501  24.321  0.00  0.00    +0.143 A 
ATOM      7  C   UNL     1      10.261   1.692  24.280  0.00  0.00    +0.047 A 
ATOM      8  C   UNL     1      10.486   2.328  23.059  0.00  0.00    +0.004 A 
ATOM      9  C   UNL     1       9.974   1.782  21.882  0.00  0.00    +0.001 A 
ATOM     10  O   UNL     1       9.362  -0.084  25.539  0.00  0.00    -0.425 OA
ATOM     11  C   UNL     1       9.243   0.595  21.927  0.00  0.00    +0.015 A 
ATOM     12  C   UNL     1       8.716  -1.307  25.636  0.00  0.00    +0.293 A 
BRANCH  12  13
ATOM     13  O   UNL     1       8.700  -1.779  26.932  0.00  0.00    -0.480 OA
ATOM     14  H   UNL     1       7.899  -2.286  27.141  0.00  0.00    +0.295 HD
ENDBRANCH  12  13
ENDBRANCH   1   2
BRANCH   1  15
ATOM     15  C   UNL     1       6.483  -3.528  25.640  0.00  0.00    +0.098 A 
ATOM     16  C   UNL     1       7.004  -4.340  26.772  0.00  0.00    +0.201 A 
ATOM     17  O   UNL     1       8.203  -4.497  26.964  0.00  0.00    -0.287 OA
ATOM     18  C   UNL     1       6.010  -4.932  27.673  0.00  0.00    +0.065 A 
ATOM     19  C   UNL     1       4.704  -4.466  27.600  0.00  0.00    +0.143 A 
ATOM     20  C   UNL     1       3.726  -5.000  28.438  0.00  0.00    +0.047 A 
ATOM     21  C   UNL     1       4.062  -6.015  29.337  0.00  0.00    +0.004 A 
ATOM     22  C   UNL     1       5.375  -6.481  29.410  0.00  0.00    +0.001 A 
ATOM     23  O   UNL     1       4.327  -3.478  26.731  0.00  0.00    -0.425 OA
ATOM     24  C   UNL     1       6.357  -5.937  28.579  0.00  0.00    +0.015 A 
ATOM     25  C   UNL     1       5.198  -3.121  25.720  0.00  0.00    +0.293 A 
BRANCH  25  26
ATOM     26  O   UNL     1       4.658  -2.301  24.746  0.00  0.00    -0.480 OA
ATOM     27  H   UNL     1       4.465  -1.442  25.174  0.00  0.00    +0.295 HD
ENDBRANCH  25  26
ENDBRANCH   1  15
BRANCH   1  28
ATOM     28  C   UNL     1       8.419  -4.479  24.366  0.00  0.00    +0.320 C 
ATOM     29  O   UNL     1       9.634  -4.371  24.527  0.00  0.00    -0.250 OA
BRANCH  28  30
ATOM     30  O   UNL     1       7.782  -5.578  23.886  0.00  0.00    -0.464 OA
BRANCH  30  32
ATOM     31  C   UNL     1       6.016  -6.008  22.356  0.00  0.00    +0.048 C 
ATOM     32  C   UNL     1       7.472  -5.596  22.486  0.00  0.00    +0.229 C 
ENDBRANCH  30  32
ENDBRANCH  28  30
ENDBRANCH   1  28
TORSDOF 7
ENDMDL
MODEL 9
REMARK VINA RESULT:      -6.4      1.905      3.066
REMARK  Name = 
REMARK  8 active torsions:
REMARK  status: ('A' for Active; 'I' for Inactive)
REMARK    1  A    between atoms: C_1  and  C_2
REMARK    2  A    between atoms: C_2  and  O_3
REMARK    3  A    between atoms: O_3  and  C_4
REMARK    4  A    between atoms: C_4  and  C_6
REMARK    5  A    between atoms: C_6  and  C_7
REMARK    6  A    between atoms: C_6  and  C_19
REMARK    7  A    between atoms: C_8  and  O_9
REMARK    8  A    between atoms: C_20  and  O_21
REMARK                            x       y       z     vdW  Elec       q    Type
REMARK                         _______ _______ _______ _____ _____    ______ ____
ROOT
ATOM      1  C   UNL     1       7.750  -2.246  24.105  0.00  0.00    +0.179 C 
ENDROOT
BRANCH   1   2
ATOM      2  C   UNL     1       7.689  -0.858  24.748  0.00  0.00    +0.098 A 
ATOM      3  C   UNL     1       6.279  -0.379  24.916  0.00  0.00    +0.201 A 
ATOM      4  O   UNL     1       5.318  -1.078  24.623  0.00  0.00    -0.287 OA
ATOM      5  C   UNL     1       6.062   0.972  25.434  0.00  0.00    +0.065 A 
ATOM      6  C   UNL     1       7.169   1.716  25.798  0.00  0.00    +0.143 A 
ATOM      7  C   UNL     1       7.009   3.011  26.287  0.00  0.00    +0.047 A 
ATOM      8  C   UNL     1       5.731   3.561  26.398  0.00  0.00    +0.004 A 
ATOM      9  C   UNL     1       4.614   2.808  26.035  0.00  0.00    +0.001 A 
ATOM     10  O   UNL     1       8.441   1.238  25.697  0.00  0.00    -0.425 OA
ATOM     11  C   UNL     1       4.777   1.509  25.554  0.00  0.00    +0.015 A 
ATOM     12  C   UNL     1       8.671  -0.014  25.148  0.00  0.00    +0.293 A 
BRANCH  12  13
ATOM     13  O   UNL     1      10.018  -0.296  25.057  0.00  0.00    -0.480 OA
ATOM     14  H   UNL     1      10.571   0.502  25.027  0.00  0.00    +0.295 HD
ENDBRANCH  12  13
ENDBRANCH   1   2
BRANCH   1  15
ATOM     15  C   UNL     1       7.560  -3.361  25.114  0.00  0.00    +0.098 A 
ATOM     16  C   UNL     1       6.583  -4.415  24.728  0.00  0.00    +0.201 A 
ATOM     17  O   UNL     1       6.247  -4.597  23.565  0.00  0.00    -0.287 OA
ATOM     18  C   UNL     1       6.052  -5.252  25.809  0.00  0.00    +0.065 A 
ATOM     19  C   UNL     1       6.697  -5.216  27.038  0.00  0.00    +0.143 A 
ATOM     20  C   UNL     1       6.226  -5.995  28.094  0.00  0.00    +0.047 A 
ATOM     21  C   UNL     1       5.096  -6.797  27.915  0.00  0.00    +0.004 A 
ATOM     22  C   UNL     1       4.450  -6.832  26.679  0.00  0.00    +0.001 A 
ATOM     23  O   UNL     1       7.802  -4.442  27.263  0.00  0.00    -0.425 OA
ATOM     24  C   UNL     1       4.929  -6.061  25.618  0.00  0.00    +0.015 A 
ATOM     25  C   UNL     1       8.130  -3.473  26.334  0.00  0.00    +0.293 A 
BRANCH  25  26
ATOM     26  O   UNL     1       9.102  -2.578  26.739  0.00  0.00    -0.480 OA
ATOM     27  H   UNL     1       8.638  -1.830  27.168  0.00  0.00    +0.295 HD
ENDBRANCH  25  26
ENDBRANCH   1  15
BRANCH   1  28
ATOM     28  C   UNL     1       9.021  -2.458  23.292  0.00  0.00    +0.320 C 
ATOM     29  O   UNL     1      10.058  -2.919  23.766  0.00  0.00    -0.250 OA
BRANCH  28  30
ATOM     30  O   UNL     1       8.896  -1.909  22.055  0.00  0.00    -0.464 OA
BRANCH  30  32
ATOM     31  C   UNL     1       9.210   0.375  21.482  0.00  0.00    +0.048 C 
ATOM     32  C   UNL     1       9.900  -0.967  21.652  0.00  0.00    +0.229 C 
ENDBRANCH  30  32
ENDBRANCH  28  30
ENDBRANCH   1  28
TORSDOF 7
ENDMDL
