MODEL 1
REMARK VINA RESULT:      -7.0      0.000      0.000
REMARK  Name = 
REMARK  8 active torsions:
REMARK  status: ('A' for Active; 'I' for Inactive)
REMARK    1  A    between atoms: N_13  and  C_14
REMARK    2  A    between atoms: C_14  and  C_15
REMARK    3  A    between atoms: C_15  and  C_16
REMARK    4  A    between atoms: C_16  and  N_17
REMARK    5  A    between atoms: N_17  and  S_18
REMARK    6  A    between atoms: S_18  and  C_21
REMARK    7  A    between atoms: C_21  and  C_22
REMARK    8  A    between atoms: C_21  and  C_23
REMARK                            x       y       z     vdW  Elec       q    Type
REMARK                         _______ _______ _______ _____ _____    ______ ____
ROOT
ATOM      1  C   UNL     1       8.568  -2.811  24.000  0.00  0.00    +0.105 C 
ATOM      2  C   UNL     1       7.205  -2.661  25.281  0.00  0.00    +0.048 A 
ATOM      3  N   UNL     1       6.267  -1.656  25.345  0.00  0.00    -0.342 N 
ATOM      4  C   UNL     1       5.346  -1.969  26.341  0.00  0.00    +0.050 A 
ATOM      5  C   UNL     1       4.150  -1.337  26.722  0.00  0.00    +0.026 A 
ATOM      6  C   UNL     1       3.401  -1.848  27.784  0.00  0.00    +0.002 A 
ATOM      7  C   UNL     1       3.808  -2.991  28.454  0.00  0.00    +0.001 A 
ATOM      8  C   UNL     1       4.978  -3.650  28.070  0.00  0.00    +0.011 A 
ATOM      9  C   UNL     1       5.759  -3.151  27.007  0.00  0.00    +0.011 A 
ATOM     10  C   UNL     1       6.944  -3.631  26.380  0.00  0.00    +0.049 A 
ATOM     11  C   UNL     1       7.854  -5.065  26.742  0.00  0.00    +0.179 C 
ATOM     12  O   UNL     1       7.489  -5.822  27.639  0.00  0.00    -0.291 OA
ATOM     13  C   UNL     1       9.413  -5.463  25.689  0.00  0.00    +0.164 C 
ATOM     14  N   UNL     1       9.781  -4.094  24.512  0.00  0.00    -0.287 NA
ATOM     15  C   UNL     1       9.064  -3.690  25.557  0.00  0.00    +0.085 C 
ATOM     16  C   UNL     1       7.839  -4.820  24.383  0.00  0.00    +0.015 C 
ATOM     17  C   UNL     1       7.041  -4.268  23.174  0.00  0.00    +0.003 C 
ATOM     18  C   UNL     1       7.879  -3.143  22.704  0.00  0.00    +0.025 C 
ENDROOT
BRANCH   3  19
ATOM     19  C   UNL     1       6.232  -0.556  24.392  0.00  0.00    +0.123 C 
BRANCH  19  20
ATOM     20  C   UNL     1       6.728   0.840  24.781  0.00  0.00    +0.038 C 
BRANCH  20  21
ATOM     21  C   UNL     1       8.199   0.917  25.174  0.00  0.00    +0.107 C 
BRANCH  21  22
ATOM     22  N   UNL     1       8.846   2.040  24.470  0.00  0.00    -0.194 NA
ATOM     23  H   UNL     1       9.037   2.854  25.061  0.00  0.00    +0.148 HD
BRANCH  22  24
ATOM     24  S   UNL     1      10.274   1.688  23.636  0.00  0.00    +0.032 S 
ATOM     25  O   UNL     1      10.772   0.446  24.190  0.00  0.00    -0.158 OA
ATOM     26  O   UNL     1      11.060   2.899  23.693  0.00  0.00    -0.158 OA
BRANCH  24  27
ATOM     27  C   UNL     1       9.718   1.401  21.942  0.00  0.00    +0.142 C 
ATOM     28  C   UNL     1       8.373   2.084  21.725  0.00  0.00    +0.033 C 
ATOM     29  C   UNL     1       9.642  -0.083  21.621  0.00  0.00    +0.033 C 
ENDBRANCH  24  27
ENDBRANCH  22  24
ENDBRANCH  21  22
ENDBRANCH  20  21
ENDBRANCH  19  20
ENDBRANCH   3  19
TORSDOF 6
ENDMDL
MODEL 2
REMARK VINA RESULT:      -6.9      2.595      5.894
REMARK  Name = 
REMARK  8 active torsions:
REMARK  status: ('A' for Active; 'I' for Inactive)
REMARK    1  A    between atoms: N_13  and  C_14
REMARK    2  A    between atoms: C_14  and  C_15
REMARK    3  A    between atoms: C_15  and  C_16
REMARK    4  A    between atoms: C_16  and  N_17
REMARK    5  A    between atoms: N_17  and  S_18
REMARK    6  A    between atoms: S_18  and  C_21
REMARK    7  A    between atoms: C_21  and  C_22
REMARK    8  A    between atoms: C_21  and  C_23
REMARK                            x       y       z     vdW  Elec       q    Type
REMARK                         _______ _______ _______ _____ _____    ______ ____
ROOT
ATOM      1  C   UNL     1       8.282   1.713  24.760  0.00  0.00    +0.105 C 
ATOM      2  C   UNL     1       8.517  -0.120  25.088  0.00  0.00    +0.048 A 
ATOM      3  N   UNL     1       8.041  -0.809  26.180  0.00  0.00    -0.342 N 
ATOM      4  C   UNL     1       8.294  -2.166  25.996  0.00  0.00    +0.050 A 
ATOM      5  C   UNL     1       7.912  -3.286  26.753  0.00  0.00    +0.026 A 
ATOM      6  C   UNL     1       8.315  -4.563  26.357  0.00  0.00    +0.002 A 
ATOM      7  C   UNL     1       9.067  -4.745  25.207  0.00  0.00    +0.001 A 
ATOM      8  C   UNL     1       9.430  -3.647  24.425  0.00  0.00    +0.011 A 
ATOM      9  C   UNL     1       9.045  -2.344  24.805  0.00  0.00    +0.011 A 
ATOM     10  C   UNL     1       9.225  -1.073  24.191  0.00  0.00    +0.049 A 
ATOM     11  C   UNL     1      10.018  -0.699  22.692  0.00  0.00    +0.179 C 
ATOM     12  O   UNL     1      10.507  -1.596  22.008  0.00  0.00    -0.291 OA
ATOM     13  C   UNL     1      10.076   1.132  22.106  0.00  0.00    +0.164 C 
ATOM     14  N   UNL     1       9.377   2.256  23.387  0.00  0.00    -0.287 NA
ATOM     15  C   UNL     1       9.809   1.106  23.898  0.00  0.00    +0.085 C 
ATOM     16  C   UNL     1       8.110   0.702  22.845  0.00  0.00    +0.015 C 
ATOM     17  C   UNL     1       6.678   0.829  23.424  0.00  0.00    +0.003 C 
ATOM     18  C   UNL     1       6.821   1.890  24.445  0.00  0.00    +0.025 C 
ENDROOT
BRANCH   3  19
ATOM     19  C   UNL     1       7.279  -0.166  27.241  0.00  0.00    +0.123 C 
BRANCH  19  20
ATOM     20  C   UNL     1       5.773   0.073  27.096  0.00  0.00    +0.038 C 
BRANCH  20  21
ATOM     21  C   UNL     1       4.916  -1.188  27.092  0.00  0.00    +0.107 C 
BRANCH  21  22
ATOM     22  N   UNL     1       4.604  -1.575  25.703  0.00  0.00    -0.194 NA
ATOM     23  H   UNL     1       5.390  -1.484  25.055  0.00  0.00    +0.148 HD
BRANCH  22  24
ATOM     24  S   UNL     1       3.953  -3.120  25.477  0.00  0.00    +0.032 S 
ATOM     25  O   UNL     1       2.532  -2.936  25.271  0.00  0.00    -0.158 OA
ATOM     26  O   UNL     1       4.453  -3.911  26.579  0.00  0.00    -0.158 OA
BRANCH  24  27
ATOM     27  C   UNL     1       4.709  -3.677  23.934  0.00  0.00    +0.142 C 
ATOM     28  C   UNL     1       5.352  -5.043  24.146  0.00  0.00    +0.033 C 
ATOM     29  C   UNL     1       5.717  -2.668  23.408  0.00  0.00    +0.033 C 
ENDBRANCH  24  27
ENDBRANCH  22  24
ENDBRANCH  21  22
ENDBRANCH  20  21
ENDBRANCH  19  20
ENDBRANCH   3  19
TORSDOF 6
ENDMDL
MODEL 3
REMARK VINA RESULT:      -6.9      2.578      3.660
REMARK  Name = 
REMARK  8 active torsions:
REMARK  status: ('A' for Active; 'I' for Inactive)
REMARK    1  A    between atoms: N_13  and  C_14
REMARK    2  A    between atoms: C_14  and  C_15
REMARK    3  A    between atoms: C_15  and  C_16
REMARK    4  A    between atoms: C_16  and  N_17
REMARK    5  A    between atoms: N_17  and  S_18
REMARK    6  A    between atoms: S_18  and  C_21
REMARK    7  A    between atoms: C_21  and  C_22
REMARK    8  A    between atoms: C_21  and  C_23
REMARK                            x       y       z     vdW  Elec       q    Type
REMARK                         _______ _______ _______ _____ _____    ______ ____
ROOT
ATOM      1  C   UNL     1       6.607  -5.241  23.226  0.00  0.00    +0.105 C 
ATOM      2  C   UNL     1       6.653  -3.837  24.471  0.00  0.00    +0.048 A 
ATOM      3  N   UNL     1       7.789  -3.231  24.958  0.00  0.00    -0.342 N 
ATOM      4  C   UNL     1       7.412  -2.146  25.745  0.00  0.00    +0.050 A 
ATOM      5  C   UNL     1       8.180  -1.148  26.368  0.00  0.00    +0.026 A 
ATOM      6  C   UNL     1       7.551  -0.162  27.131  0.00  0.00    +0.002 A 
ATOM      7  C   UNL     1       6.172  -0.137  27.261  0.00  0.00    +0.001 A 
ATOM      8  C   UNL     1       5.390  -1.102  26.624  0.00  0.00    +0.011 A 
ATOM      9  C   UNL     1       5.998  -2.116  25.854  0.00  0.00    +0.011 A 
ATOM     10  C   UNL     1       5.462  -3.177  25.071  0.00  0.00    +0.049 A 
ATOM     11  C   UNL     1       3.797  -3.581  24.793  0.00  0.00    +0.179 C 
ATOM     12  O   UNL     1       2.901  -2.907  25.299  0.00  0.00    -0.291 OA
ATOM     13  C   UNL     1       3.383  -5.072  23.650  0.00  0.00    +0.164 C 
ATOM     14  N   UNL     1       4.917  -5.959  23.144  0.00  0.00    -0.287 NA
ATOM     15  C   UNL     1       5.074  -5.270  24.271  0.00  0.00    +0.085 C 
ATOM     16  C   UNL     1       4.951  -3.920  22.749  0.00  0.00    +0.015 C 
ATOM     17  C   UNL     1       6.158  -3.467  21.888  0.00  0.00    +0.003 C 
ATOM     18  C   UNL     1       7.052  -4.645  21.918  0.00  0.00    +0.025 C 
ENDROOT
BRANCH   3  19
ATOM     19  C   UNL     1       9.128  -3.631  24.548  0.00  0.00    +0.123 C 
BRANCH  19  20
ATOM     20  C   UNL     1      10.056  -2.652  23.824  0.00  0.00    +0.038 C 
BRANCH  20  21
ATOM     21  C   UNL     1       9.446  -1.962  22.609  0.00  0.00    +0.107 C 
BRANCH  21  22
ATOM     22  N   UNL     1      10.078  -0.643  22.413  0.00  0.00    -0.194 NA
ATOM     23  H   UNL     1      10.528  -0.523  21.502  0.00  0.00    +0.148 HD
BRANCH  22  24
ATOM     24  S   UNL     1       9.096   0.710  22.663  0.00  0.00    +0.032 S 
ATOM     25  O   UNL     1       7.829   0.209  23.150  0.00  0.00    -0.158 OA
ATOM     26  O   UNL     1       9.177   1.474  21.438  0.00  0.00    -0.158 OA
BRANCH  24  27
ATOM     27  C   UNL     1       9.932   1.603  23.992  0.00  0.00    +0.142 C 
ATOM     28  C   UNL     1      10.557   2.877  23.437  0.00  0.00    +0.033 C 
ATOM     29  C   UNL     1      10.971   0.734  24.683  0.00  0.00    +0.033 C 
ENDBRANCH  24  27
ENDBRANCH  22  24
ENDBRANCH  21  22
ENDBRANCH  20  21
ENDBRANCH  19  20
ENDBRANCH   3  19
TORSDOF 6
ENDMDL
MODEL 4
REMARK VINA RESULT:      -6.8      2.962      4.893
REMARK  Name = 
REMARK  8 active torsions:
REMARK  status: ('A' for Active; 'I' for Inactive)
REMARK    1  A    between atoms: N_13  and  C_14
REMARK    2  A    between atoms: C_14  and  C_15
REMARK    3  A    between atoms: C_15  and  C_16
REMARK    4  A    between atoms: C_16  and  N_17
REMARK    5  A    between atoms: N_17  and  S_18
REMARK    6  A    between atoms: S_18  and  C_21
REMARK    7  A    between atoms: C_21  and  C_22
REMARK    8  A    between atoms: C_21  and  C_23
REMARK                            x       y       z     vdW  Elec       q    Type
REMARK                         _______ _______ _______ _____ _____    ______ ____
ROOT
ATOM      1  C   UNL     1       7.100  -4.128  26.176  0.00  0.00    +0.105 C 
ATOM      2  C   UNL     1       7.816  -2.857  24.996  0.00  0.00    +0.048 A 
ATOM      3  N   UNL     1       8.510  -1.724  25.357  0.00  0.00    -0.342 N 
ATOM      4  C   UNL     1       8.999  -1.115  24.204  0.00  0.00    +0.050 A 
ATOM      5  C   UNL     1       9.853  -0.012  24.035  0.00  0.00    +0.026 A 
ATOM      6  C   UNL     1      10.185   0.420  22.750  0.00  0.00    +0.002 A 
ATOM      7  C   UNL     1       9.704  -0.243  21.632  0.00  0.00    +0.001 A 
ATOM      8  C   UNL     1       8.879  -1.359  21.780  0.00  0.00    +0.011 A 
ATOM      9  C   UNL     1       8.520  -1.813  23.066  0.00  0.00    +0.011 A 
ATOM     10  C   UNL     1       7.752  -2.926  23.510  0.00  0.00    +0.049 A 
ATOM     11  C   UNL     1       6.973  -4.152  22.558  0.00  0.00    +0.179 C 
ATOM     12  O   UNL     1       7.055  -4.131  21.331  0.00  0.00    -0.291 OA
ATOM     13  C   UNL     1       6.022  -5.561  23.459  0.00  0.00    +0.164 C 
ATOM     14  N   UNL     1       5.967  -5.261  25.276  0.00  0.00    -0.287 NA
ATOM     15  C   UNL     1       6.155  -4.143  24.579  0.00  0.00    +0.085 C 
ATOM     16  C   UNL     1       7.881  -5.221  24.471  0.00  0.00    +0.015 C 
ATOM     17  C   UNL     1       9.009  -5.168  25.533  0.00  0.00    +0.003 C 
ATOM     18  C   UNL     1       8.281  -4.840  26.779  0.00  0.00    +0.025 C 
ENDROOT
BRANCH   3  19
ATOM     19  C   UNL     1       8.769  -1.374  26.746  0.00  0.00    +0.123 C 
BRANCH  19  20
ATOM     20  C   UNL     1       8.075  -0.175  27.399  0.00  0.00    +0.038 C 
BRANCH  20  21
ATOM     21  C   UNL     1       6.562  -0.124  27.212  0.00  0.00    +0.107 C 
BRANCH  21  22
ATOM     22  N   UNL     1       6.176   1.174  26.628  0.00  0.00    -0.194 NA
ATOM     23  H   UNL     1       6.948   1.838  26.529  0.00  0.00    +0.148 HD
BRANCH  22  24
ATOM     24  S   UNL     1       5.373   1.125  25.140  0.00  0.00    +0.032 S 
ATOM     25  O   UNL     1       4.064   1.701  25.365  0.00  0.00    -0.158 OA
ATOM     26  O   UNL     1       5.521  -0.234  24.669  0.00  0.00    -0.158 OA
BRANCH  24  27
ATOM     27  C   UNL     1       6.340   2.239  24.098  0.00  0.00    +0.142 C 
ATOM     28  C   UNL     1       6.658   1.553  22.775  0.00  0.00    +0.033 C 
ATOM     29  C   UNL     1       7.608   2.702  24.799  0.00  0.00    +0.033 C 
ENDBRANCH  24  27
ENDBRANCH  22  24
ENDBRANCH  21  22
ENDBRANCH  20  21
ENDBRANCH  19  20
ENDBRANCH   3  19
TORSDOF 6
ENDMDL
MODEL 5
REMARK VINA RESULT:      -6.8      2.466      5.962
REMARK  Name = 
REMARK  8 active torsions:
REMARK  status: ('A' for Active; 'I' for Inactive)
REMARK    1  A    between atoms: N_13  and  C_14
REMARK    2  A    between atoms: C_14  and  C_15
REMARK    3  A    between atoms: C_15  and  C_16
REMARK    4  A    between atoms: C_16  and  N_17
REMARK    5  A    between atoms: N_17  and  S_18
REMARK    6  A    between atoms: S_18  and  C_21
REMARK    7  A    between atoms: C_21  and  C_22
REMARK    8  A    between atoms: C_21  and  C_23
REMARK                            x       y       z     vdW  Elec       q    Type
REMARK                         _______ _______ _______ _____ _____    ______ ____
ROOT
ATOM      1  C   UNL     1       9.217   0.063  21.972  0.00  0.00    +0.105 C 
ATOM      2  C   UNL     1       7.889   0.179  23.292  0.00  0.00    +0.048 A 
ATOM      3  N   UNL     1       6.886  -0.739  23.508  0.00  0.00    -0.342 N 
ATOM      4  C   UNL     1       6.191  -0.377  24.659  0.00  0.00    +0.050 A 
ATOM      5  C   UNL     1       5.168  -1.034  25.363  0.00  0.00    +0.026 A 
ATOM      6  C   UNL     1       4.615  -0.442  26.500  0.00  0.00    +0.002 A 
ATOM      7  C   UNL     1       5.082   0.777  26.963  0.00  0.00    +0.001 A 
ATOM      8  C   UNL     1       6.119   1.431  26.295  0.00  0.00    +0.011 A 
ATOM      9  C   UNL     1       6.691   0.861  25.138  0.00  0.00    +0.011 A 
ATOM     10  C   UNL     1       7.767   1.268  24.299  0.00  0.00    +0.049 A 
ATOM     11  C   UNL     1       8.780   2.671  24.444  0.00  0.00    +0.179 C 
ATOM     12  O   UNL     1       8.614   3.463  25.370  0.00  0.00    -0.291 OA
ATOM     13  C   UNL     1      10.185   2.936  23.159  0.00  0.00    +0.164 C 
ATOM     14  N   UNL     1      10.110   1.663  21.828  0.00  0.00    -0.287 NA
ATOM     15  C   UNL     1       8.939   1.838  22.435  0.00  0.00    +0.085 C 
ATOM     16  C   UNL     1      10.164   0.875  23.749  0.00  0.00    +0.015 C 
ATOM     17  C   UNL     1      10.357  -0.662  23.791  0.00  0.00    +0.003 C 
ATOM     18  C   UNL     1      10.115  -1.070  22.390  0.00  0.00    +0.025 C 
ENDROOT
BRANCH   3  19
ATOM     19  C   UNL     1       6.739  -1.942  22.701  0.00  0.00    +0.123 C 
BRANCH  19  20
ATOM     20  C   UNL     1       7.288  -3.287  23.185  0.00  0.00    +0.038 C 
BRANCH  20  21
ATOM     21  C   UNL     1       6.249  -4.234  23.777  0.00  0.00    +0.107 C 
BRANCH  21  22
ATOM     22  N   UNL     1       6.917  -5.248  24.614  0.00  0.00    -0.194 NA
ATOM     23  H   UNL     1       7.880  -5.454  24.337  0.00  0.00    +0.148 HD
BRANCH  22  24
ATOM     24  S   UNL     1       6.933  -4.961  26.281  0.00  0.00    +0.032 S 
ATOM     25  O   UNL     1       6.855  -6.258  26.918  0.00  0.00    -0.158 OA
ATOM     26  O   UNL     1       5.919  -3.955  26.507  0.00  0.00    -0.158 OA
BRANCH  24  27
ATOM     27  C   UNL     1       8.568  -4.253  26.575  0.00  0.00    +0.142 C 
ATOM     28  C   UNL     1       8.499  -2.736  26.443  0.00  0.00    +0.033 C 
ATOM     29  C   UNL     1       9.610  -4.842  25.637  0.00  0.00    +0.033 C 
ENDBRANCH  24  27
ENDBRANCH  22  24
ENDBRANCH  21  22
ENDBRANCH  20  21
ENDBRANCH  19  20
ENDBRANCH   3  19
TORSDOF 6
ENDMDL
MODEL 6
REMARK VINA RESULT:      -6.7      3.117      7.643
REMARK  Name = 
REMARK  8 active torsions:
REMARK  status: ('A' for Active; 'I' for Inactive)
REMARK    1  A    between atoms: N_13  and  C_14
REMARK    2  A    between atoms: C_14  and  C_15
REMARK    3  A    between atoms: C_15  and  C_16
REMARK    4  A    between atoms: C_16  and  N_17
REMARK    5  A    between atoms: N_17  and  S_18
REMARK    6  A    between atoms: S_18  and  C_21
REMARK    7  A    between atoms: C_21  and  C_22
REMARK    8  A    between atoms: C_21  and  C_23
REMARK                            x       y       z     vdW  Elec       q    Type
REMARK                         _______ _______ _______ _____ _____    ______ ____
ROOT
ATOM      1  C   UNL     1       6.952   1.326  24.242  0.00  0.00    +0.105 C 
ATOM      2  C   UNL     1       8.368   2.554  24.160  0.00  0.00    +0.048 A 
ATOM      3  N   UNL     1       9.667   2.263  23.808  0.00  0.00    -0.342 N 
ATOM      4  C   UNL     1      10.384   3.454  23.728  0.00  0.00    +0.050 A 
ATOM      5  C   UNL     1      11.697   3.712  23.301  0.00  0.00    +0.026 A 
ATOM      6  C   UNL     1      12.196   5.016  23.334  0.00  0.00    +0.002 A 
ATOM      7  C   UNL     1      11.400   6.069  23.757  0.00  0.00    +0.001 A 
ATOM      8  C   UNL     1      10.083   5.837  24.155  0.00  0.00    +0.011 A 
ATOM      9  C   UNL     1       9.555   4.529  24.142  0.00  0.00    +0.011 A 
ATOM     10  C   UNL     1       8.262   4.012  24.439  0.00  0.00    +0.049 A 
ATOM     11  C   UNL     1       6.841   4.877  24.938  0.00  0.00    +0.179 C 
ATOM     12  O   UNL     1       6.872   6.100  25.066  0.00  0.00    -0.291 OA
ATOM     13  C   UNL     1       5.217   3.894  25.241  0.00  0.00    +0.164 C 
ATOM     14  N   UNL     1       5.507   2.080  25.092  0.00  0.00    -0.287 NA
ATOM     15  C   UNL     1       6.618   2.753  25.380  0.00  0.00    +0.085 C 
ATOM     16  C   UNL     1       6.138   3.174  23.444  0.00  0.00    +0.015 C 
ATOM     17  C   UNL     1       6.559   2.301  22.234  0.00  0.00    +0.003 C 
ATOM     18  C   UNL     1       6.656   0.945  22.816  0.00  0.00    +0.025 C 
ENDROOT
BRANCH   3  19
ATOM     19  C   UNL     1      10.099   0.920  23.451  0.00  0.00    +0.123 C 
BRANCH  19  20
ATOM     20  C   UNL     1       9.902   0.380  22.031  0.00  0.00    +0.038 C 
BRANCH  20  21
ATOM     21  C   UNL     1       9.566  -1.105  21.946  0.00  0.00    +0.107 C 
BRANCH  21  22
ATOM     22  N   UNL     1      10.239  -1.833  23.039  0.00  0.00    -0.194 NA
ATOM     23  H   UNL     1      10.878  -1.259  23.596  0.00  0.00    +0.148 HD
BRANCH  22  24
ATOM     24  S   UNL     1       9.240  -2.658  24.125  0.00  0.00    +0.032 S 
ATOM     25  O   UNL     1       9.008  -1.754  25.232  0.00  0.00    -0.158 OA
ATOM     26  O   UNL     1       9.872  -3.942  24.329  0.00  0.00    -0.158 OA
BRANCH  24  27
ATOM     27  C   UNL     1       7.701  -2.876  23.205  0.00  0.00    +0.142 C 
ATOM     28  C   UNL     1       6.521  -2.476  24.083  0.00  0.00    +0.033 C 
ATOM     29  C   UNL     1       7.551  -4.300  22.695  0.00  0.00    +0.033 C 
ENDBRANCH  24  27
ENDBRANCH  22  24
ENDBRANCH  21  22
ENDBRANCH  20  21
ENDBRANCH  19  20
ENDBRANCH   3  19
TORSDOF 6
ENDMDL
MODEL 7
REMARK VINA RESULT:      -6.7      1.937      2.669
REMARK  Name = 
REMARK  8 active torsions:
REMARK  status: ('A' for Active; 'I' for Inactive)
REMARK    1  A    between atoms: N_13  and  C_14
REMARK    2  A    between atoms: C_14  and  C_15
REMARK    3  A    between atoms: C_15  and  C_16
REMARK    4  A    between atoms: C_16  and  N_17
REMARK    5  A    between atoms: N_17  and  S_18
REMARK    6  A    between atoms: S_18  and  C_21
REMARK    7  A    between atoms: C_21  and  C_22
REMARK    8  A    between atoms: C_21  and  C_23
REMARK                            x       y       z     vdW  Elec       q    Type
REMARK                         _______ _______ _______ _____ _____    ______ ____
ROOT
ATOM      1  C   UNL     1       8.134  -4.175  23.611  0.00  0.00    +0.105 C 
ATOM      2  C   UNL     1       6.708  -3.623  24.698  0.00  0.00    +0.048 A 
ATOM      3  N   UNL     1       6.815  -2.872  25.847  0.00  0.00    -0.342 N 
ATOM      4  C   UNL     1       5.535  -2.548  26.288  0.00  0.00    +0.050 A 
ATOM      5  C   UNL     1       5.104  -1.715  27.334  0.00  0.00    +0.026 A 
ATOM      6  C   UNL     1       3.739  -1.566  27.588  0.00  0.00    +0.002 A 
ATOM      7  C   UNL     1       2.797  -2.210  26.800  0.00  0.00    +0.001 A 
ATOM      8  C   UNL     1       3.205  -3.016  25.737  0.00  0.00    +0.011 A 
ATOM      9  C   UNL     1       4.578  -3.193  25.463  0.00  0.00    +0.011 A 
ATOM     10  C   UNL     1       5.269  -3.900  24.439  0.00  0.00    +0.049 A 
ATOM     11  C   UNL     1       4.605  -4.821  23.124  0.00  0.00    +0.179 C 
ATOM     12  O   UNL     1       3.387  -4.916  22.985  0.00  0.00    -0.291 OA
ATOM     13  C   UNL     1       5.808  -5.647  21.872  0.00  0.00    +0.164 C 
ATOM     14  N   UNL     1       7.560  -5.438  22.404  0.00  0.00    -0.287 NA
ATOM     15  C   UNL     1       6.703  -5.340  23.417  0.00  0.00    +0.085 C 
ATOM     16  C   UNL     1       6.495  -3.659  22.284  0.00  0.00    +0.015 C 
ATOM     17  C   UNL     1       7.371  -2.390  22.441  0.00  0.00    +0.003 C 
ATOM     18  C   UNL     1       8.653  -2.928  22.948  0.00  0.00    +0.025 C 
ENDROOT
BRANCH   3  19
ATOM     19  C   UNL     1       8.095  -2.413  26.365  0.00  0.00    +0.123 C 
BRANCH  19  20
ATOM     20  C   UNL     1       8.395  -0.918  26.514  0.00  0.00    +0.038 C 
BRANCH  20  21
ATOM     21  C   UNL     1       8.207  -0.092  25.246  0.00  0.00    +0.107 C 
BRANCH  21  22
ATOM     22  N   UNL     1       8.809   1.242  25.426  0.00  0.00    -0.194 NA
ATOM     23  H   UNL     1       9.420   1.322  26.244  0.00  0.00    +0.148 HD
BRANCH  22  24
ATOM     24  S   UNL     1       9.664   1.870  24.109  0.00  0.00    +0.032 S 
ATOM     25  O   UNL     1      11.001   1.321  24.192  0.00  0.00    -0.158 OA
ATOM     26  O   UNL     1       9.438   3.297  24.150  0.00  0.00    -0.158 OA
BRANCH  24  27
ATOM     27  C   UNL     1       8.819   1.161  22.678  0.00  0.00    +0.142 C 
ATOM     28  C   UNL     1       9.818   0.384  21.830  0.00  0.00    +0.033 C 
ATOM     29  C   UNL     1       8.113   2.230  21.859  0.00  0.00    +0.033 C 
ENDBRANCH  24  27
ENDBRANCH  22  24
ENDBRANCH  21  22
ENDBRANCH  20  21
ENDBRANCH  19  20
ENDBRANCH   3  19
TORSDOF 6
ENDMDL
MODEL 8
REMARK VINA RESULT:      -6.7      2.470      5.904
REMARK  Name = 
REMARK  8 active torsions:
REMARK  status: ('A' for Active; 'I' for Inactive)
REMARK    1  A    between atoms: N_13  and  C_14
REMARK    2  A    between atoms: C_14  and  C_15
REMARK    3  A    between atoms: C_15  and  C_16
REMARK    4  A    between atoms: C_16  and  N_17
REMARK    5  A    between atoms: N_17  and  S_18
REMARK    6  A    between atoms: S_18  and  C_21
REMARK    7  A    between atoms: C_21  and  C_22
REMARK    8  A    between atoms: C_21  and  C_23
REMARK                            x       y       z     vdW  Elec       q    Type
REMARK                         _______ _______ _______ _____ _____    ______ ____
ROOT
ATOM      1  C   UNL     1       7.559   0.597  25.263  0.00  0.00    +0.105 C 
ATOM      2  C   UNL     1       7.118  -1.035  24.450  0.00  0.00    +0.048 A 
ATOM      3  N   UNL     1       5.977  -1.769  24.685  0.00  0.00    -0.342 N 
ATOM      4  C   UNL     1       5.944  -2.838  23.793  0.00  0.00    +0.050 A 
ATOM      5  C   UNL     1       4.953  -3.803  23.546  0.00  0.00    +0.026 A 
ATOM      6  C   UNL     1       5.173  -4.800  22.595  0.00  0.00    +0.002 A 
ATOM      7  C   UNL     1       6.352  -4.836  21.866  0.00  0.00    +0.001 A 
ATOM      8  C   UNL     1       7.336  -3.868  22.075  0.00  0.00    +0.011 A 
ATOM      9  C   UNL     1       7.144  -2.855  23.037  0.00  0.00    +0.011 A 
ATOM     10  C   UNL     1       7.934  -1.735  23.421  0.00  0.00    +0.049 A 
ATOM     11  C   UNL     1       9.470  -1.228  22.789  0.00  0.00    +0.179 C 
ATOM     12  O   UNL     1      10.010  -1.862  21.884  0.00  0.00    -0.291 OA
ATOM     13  C   UNL     1      10.286   0.363  23.499  0.00  0.00    +0.164 C 
ATOM     14  N   UNL     1       9.314   1.024  24.918  0.00  0.00    -0.287 NA
ATOM     15  C   UNL     1       9.103  -0.274  24.715  0.00  0.00    +0.085 C 
ATOM     16  C   UNL     1       8.197   0.732  23.192  0.00  0.00    +0.015 C 
ATOM     17  C   UNL     1       6.762   1.314  23.266  0.00  0.00    +0.003 C 
ATOM     18  C   UNL     1       6.593   1.608  24.706  0.00  0.00    +0.025 C 
ENDROOT
BRANCH   3  19
ATOM     19  C   UNL     1       4.953  -1.345  25.628  0.00  0.00    +0.123 C 
BRANCH  19  20
ATOM     20  C   UNL     1       4.767  -2.065  26.967  0.00  0.00    +0.038 C 
BRANCH  20  21
ATOM     21  C   UNL     1       5.011  -3.569  26.930  0.00  0.00    +0.107 C 
BRANCH  21  22
ATOM     22  N   UNL     1       6.358  -3.869  27.454  0.00  0.00    -0.194 NA
ATOM     23  H   UNL     1       6.440  -3.793  28.471  0.00  0.00    +0.148 HD
BRANCH  22  24
ATOM     24  S   UNL     1       7.026  -5.358  27.013  0.00  0.00    +0.032 S 
ATOM     25  O   UNL     1       6.216  -5.861  25.923  0.00  0.00    -0.158 OA
ATOM     26  O   UNL     1       7.161  -6.099  28.247  0.00  0.00    -0.158 OA
BRANCH  24  27
ATOM     27  C   UNL     1       8.661  -4.920  26.383  0.00  0.00    +0.142 C 
ATOM     28  C   UNL     1       8.868  -3.415  26.503  0.00  0.00    +0.033 C 
ATOM     29  C   UNL     1       8.854  -5.391  24.950  0.00  0.00    +0.033 C 
ENDBRANCH  24  27
ENDBRANCH  22  24
ENDBRANCH  21  22
ENDBRANCH  20  21
ENDBRANCH  19  20
ENDBRANCH   3  19
TORSDOF 6
ENDMDL
MODEL 9
REMARK VINA RESULT:      -6.4      2.924      6.161
REMARK  Name = 
REMARK  8 active torsions:
REMARK  status: ('A' for Active; 'I' for Inactive)
REMARK    1  A    between atoms: N_13  and  C_14
REMARK    2  A    between atoms: C_14  and  C_15
REMARK    3  A    between atoms: C_15  and  C_16
REMARK    4  A    between atoms: C_16  and  N_17
REMARK    5  A    between atoms: N_17  and  S_18
REMARK    6  A    between atoms: S_18  and  C_21
REMARK    7  A    between atoms: C_21  and  C_22
REMARK    8  A    between atoms: C_21  and  C_23
REMARK                            x       y       z     vdW  Elec       q    Type
REMARK                         _______ _______ _______ _____ _____    ______ ____
ROOT
ATOM      1  C   UNL     1       8.439  -1.025  22.640  0.00  0.00    +0.105 C 
ATOM      2  C   UNL     1       7.721  -0.035  24.063  0.00  0.00    +0.048 A 
ATOM      3  N   UNL     1       6.809  -0.496  24.985  0.00  0.00    -0.342 N 
ATOM      4  C   UNL     1       6.629   0.481  25.961  0.00  0.00    +0.050 A 
ATOM      5  C   UNL     1       5.903   0.461  27.163  0.00  0.00    +0.026 A 
ATOM      6  C   UNL     1       5.866   1.597  27.974  0.00  0.00    +0.002 A 
ATOM      7  C   UNL     1       6.563   2.742  27.621  0.00  0.00    +0.001 A 
ATOM      8  C   UNL     1       7.316   2.771  26.446  0.00  0.00    +0.011 A 
ATOM      9  C   UNL     1       7.363   1.641  25.603  0.00  0.00    +0.011 A 
ATOM     10  C   UNL     1       8.070   1.373  24.397  0.00  0.00    +0.049 A 
ATOM     11  C   UNL     1       9.164   2.408  23.532  0.00  0.00    +0.179 C 
ATOM     12  O   UNL     1       9.420   3.534  23.956  0.00  0.00    -0.291 OA
ATOM     13  C   UNL     1       9.995   1.745  21.929  0.00  0.00    +0.164 C 
ATOM     14  N   UNL     1       9.328   0.088  21.478  0.00  0.00    -0.287 NA
ATOM     15  C   UNL     1       8.489   0.786  22.240  0.00  0.00    +0.085 C 
ATOM     16  C   UNL     1      10.045   0.209  23.423  0.00  0.00    +0.015 C 
ATOM     17  C   UNL     1      10.125  -1.158  24.149  0.00  0.00    +0.003 C 
ATOM     18  C   UNL     1       9.342  -2.052  23.269  0.00  0.00    +0.025 C 
ENDROOT
BRANCH   3  19
ATOM     19  C   UNL     1       6.279  -1.851  24.952  0.00  0.00    +0.123 C 
BRANCH  19  20
ATOM     20  C   UNL     1       6.860  -2.947  25.851  0.00  0.00    +0.038 C 
BRANCH  20  21
ATOM     21  C   UNL     1       6.499  -4.372  25.447  0.00  0.00    +0.107 C 
BRANCH  21  22
ATOM     22  N   UNL     1       5.134  -4.403  24.890  0.00  0.00    -0.194 NA
ATOM     23  H   UNL     1       4.713  -3.480  24.755  0.00  0.00    +0.148 HD
BRANCH  22  24
ATOM     24  S   UNL     1       4.925  -5.258  23.446  0.00  0.00    +0.032 S 
ATOM     25  O   UNL     1       3.704  -4.759  22.851  0.00  0.00    -0.158 OA
ATOM     26  O   UNL     1       5.069  -6.651  23.801  0.00  0.00    -0.158 OA
BRANCH  24  27
ATOM     27  C   UNL     1       6.331  -4.737  22.438  0.00  0.00    +0.142 C 
ATOM     28  C   UNL     1       5.955  -3.493  21.642  0.00  0.00    +0.033 C 
ATOM     29  C   UNL     1       6.808  -5.854  21.523  0.00  0.00    +0.033 C 
ENDBRANCH  24  27
ENDBRANCH  22  24
ENDBRANCH  21  22
ENDBRANCH  20  21
ENDBRANCH  19  20
ENDBRANCH   3  19
TORSDOF 6
ENDMDL
