MODEL 1
REMARK VINA RESULT:      -6.3      0.000      0.000
REMARK  Name = 
REMARK  5 active torsions:
REMARK  status: ('A' for Active; 'I' for Inactive)
REMARK    1  A    between atoms: C_1  and  C_2
REMARK    2  A    between atoms: C_2  and  O_4
REMARK    3  A    between atoms: C_2  and  C_5
REMARK    4  A    between atoms: C_5  and  O_7
REMARK    5  A    between atoms: C_5  and  C_8
REMARK                            x       y       z     vdW  Elec       q    Type
REMARK                         _______ _______ _______ _____ _____    ______ ____
ROOT
ATOM      1  C   UNL     1       8.806  -0.101  22.321  0.00  0.00    +0.091 A 
ATOM      2  N   UNL     1       7.965  -0.678  23.220  0.00  0.00    -0.239 NA
ATOM      3  C   UNL     1       8.418  -1.836  23.767  0.00  0.00    +0.172 A 
ATOM      4  C   UNL     1       9.651  -2.408  23.477  0.00  0.00    +0.187 A 
ATOM      5  N   UNL     1      10.140  -3.566  24.097  0.00  0.00    -0.195 NA
ATOM      6  C   UNL     1       9.386  -4.142  24.972  0.00  0.00    +0.195 A 
ATOM      7  N   UNL     1       8.140  -3.685  25.288  0.00  0.00    -0.293 N 
ATOM      8  H   UNL     1       7.591  -4.148  25.994  0.00  0.00    +0.172 HD
ATOM      9  N   UNL     1       9.810  -5.248  25.627  0.00  0.00    -0.329 N 
ATOM     10  H   UNL     1       9.122  -5.923  25.929  0.00  0.00    +0.145 HD
ATOM     11  H   UNL     1      10.634  -5.665  25.202  0.00  0.00    +0.145 HD
ATOM     12  N   UNL     1      10.483  -1.838  22.577  0.00  0.00    -0.232 NA
ATOM     13  C   UNL     1       7.582  -2.545  24.752  0.00  0.00    +0.280 A 
ATOM     14  O   UNL     1       6.470  -2.163  25.100  0.00  0.00    -0.265 OA
ATOM     15  C   UNL     1      10.032  -0.690  22.005  0.00  0.00    +0.139 A 
ENDROOT
BRANCH   1  16
ATOM     16  C   UNL     1       8.380   1.217  21.714  0.00  0.00    +0.192 C 
BRANCH  16  18
ATOM     17  C   UNL     1       7.260   3.481  22.177  0.00  0.00    +0.040 C 
ATOM     18  C   UNL     1       7.362   2.013  22.574  0.00  0.00    +0.146 C 
BRANCH  18  19
ATOM     19  O   UNL     1       6.059   1.421  22.523  0.00  0.00    -0.389 OA
ATOM     20  H   UNL     1       5.552   1.739  23.291  0.00  0.00    +0.210 HD
ENDBRANCH  18  19
ENDBRANCH  16  18
BRANCH  16  21
ATOM     21  O   UNL     1       9.546   2.003  21.437  0.00  0.00    -0.383 OA
ATOM     22  H   UNL     1      10.309   1.402  21.464  0.00  0.00    +0.210 HD
ENDBRANCH  16  21
ENDBRANCH   1  16
TORSDOF 4
ENDMDL
MODEL 2
REMARK VINA RESULT:      -6.2      2.247      3.393
REMARK  Name = 
REMARK  5 active torsions:
REMARK  status: ('A' for Active; 'I' for Inactive)
REMARK    1  A    between atoms: C_1  and  C_2
REMARK    2  A    between atoms: C_2  and  O_4
REMARK    3  A    between atoms: C_2  and  C_5
REMARK    4  A    between atoms: C_5  and  O_7
REMARK    5  A    between atoms: C_5  and  C_8
REMARK                            x       y       z     vdW  Elec       q    Type
REMARK                         _______ _______ _______ _____ _____    ______ ____
ROOT
ATOM      1  C   UNL     1       8.576  -2.155  23.173  0.00  0.00    +0.091 A 
ATOM      2  N   UNL     1       9.316  -3.151  23.728  0.00  0.00    -0.239 NA
ATOM      3  C   UNL     1       8.694  -3.844  24.718  0.00  0.00    +0.172 A 
ATOM      4  C   UNL     1       7.394  -3.602  25.144  0.00  0.00    +0.187 A 
ATOM      5  N   UNL     1       6.735  -4.366  26.117  0.00  0.00    -0.195 NA
ATOM      6  C   UNL     1       7.391  -5.335  26.662  0.00  0.00    +0.195 A 
ATOM      7  N   UNL     1       8.686  -5.620  26.348  0.00  0.00    -0.293 N 
ATOM      8  H   UNL     1       9.156  -6.401  26.777  0.00  0.00    +0.172 HD
ATOM      9  N   UNL     1       6.803  -6.129  27.589  0.00  0.00    -0.329 N 
ATOM     10  H   UNL     1       7.384  -6.544  28.305  0.00  0.00    +0.145 HD
ATOM     11  H   UNL     1       5.932  -5.743  27.941  0.00  0.00    +0.145 HD
ATOM     12  N   UNL     1       6.662  -2.606  24.597  0.00  0.00    -0.232 NA
ATOM     13  C   UNL     1       9.410  -4.944  25.388  0.00  0.00    +0.280 A 
ATOM     14  O   UNL     1      10.562  -5.267  25.123  0.00  0.00    -0.265 OA
ATOM     15  C   UNL     1       7.279  -1.890  23.620  0.00  0.00    +0.139 A 
ENDROOT
BRANCH   1  16
ATOM     16  C   UNL     1       9.194  -1.380  22.032  0.00  0.00    +0.192 C 
BRANCH  16  18
ATOM     17  C   UNL     1      10.175   0.778  23.020  0.00  0.00    +0.040 C 
ATOM     18  C   UNL     1       9.071   0.161  22.170  0.00  0.00    +0.146 C 
BRANCH  18  19
ATOM     19  O   UNL     1       9.052   0.801  20.889  0.00  0.00    -0.389 OA
ATOM     20  H   UNL     1       8.140   0.771  20.549  0.00  0.00    +0.210 HD
ENDBRANCH  18  19
ENDBRANCH  16  18
BRANCH  16  21
ATOM     21  O   UNL     1      10.564  -1.776  21.886  0.00  0.00    -0.383 OA
ATOM     22  H   UNL     1      11.007  -1.586  22.730  0.00  0.00    +0.210 HD
ENDBRANCH  16  21
ENDBRANCH   1  16
TORSDOF 4
ENDMDL
MODEL 3
REMARK VINA RESULT:      -6.0      2.729      5.493
REMARK  Name = 
REMARK  5 active torsions:
REMARK  status: ('A' for Active; 'I' for Inactive)
REMARK    1  A    between atoms: C_1  and  C_2
REMARK    2  A    between atoms: C_2  and  O_4
REMARK    3  A    between atoms: C_2  and  C_5
REMARK    4  A    between atoms: C_5  and  O_7
REMARK    5  A    between atoms: C_5  and  C_8
REMARK                            x       y       z     vdW  Elec       q    Type
REMARK                         _______ _______ _______ _____ _____    ______ ____
ROOT
ATOM      1  C   UNL     1       8.706  -1.872  23.916  0.00  0.00    +0.091 A 
ATOM      2  N   UNL     1       8.687  -1.128  22.778  0.00  0.00    -0.239 NA
ATOM      3  C   UNL     1       9.257   0.101  22.888  0.00  0.00    +0.172 A 
ATOM      4  C   UNL     1       9.847   0.588  24.048  0.00  0.00    +0.187 A 
ATOM      5  N   UNL     1      10.494   1.829  24.133  0.00  0.00    -0.195 NA
ATOM      6  C   UNL     1      10.519   2.566  23.074  0.00  0.00    +0.195 A 
ATOM      7  N   UNL     1       9.925   2.197  21.903  0.00  0.00    -0.293 N 
ATOM      8  H   UNL     1       9.988   2.789  21.090  0.00  0.00    +0.172 HD
ATOM      9  N   UNL     1      11.151   3.763  23.082  0.00  0.00    -0.329 N 
ATOM     10  H   UNL     1      10.806   4.495  22.475  0.00  0.00    +0.145 HD
ATOM     11  H   UNL     1      11.378   4.082  24.020  0.00  0.00    +0.145 HD
ATOM     12  N   UNL     1       9.857  -0.149  25.180  0.00  0.00    -0.232 NA
ATOM     13  C   UNL     1       9.289   0.990  21.712  0.00  0.00    +0.280 A 
ATOM     14  O   UNL     1       8.802   0.697  20.625  0.00  0.00    -0.265 OA
ATOM     15  C   UNL     1       9.271  -1.372  25.091  0.00  0.00    +0.139 A 
ENDROOT
BRANCH   1  16
ATOM     16  C   UNL     1       8.132  -3.269  23.844  0.00  0.00    +0.192 C 
BRANCH  16  18
ATOM     17  C   UNL     1       7.178  -5.103  22.320  0.00  0.00    +0.040 C 
ATOM     18  C   UNL     1       7.475  -3.617  22.481  0.00  0.00    +0.146 C 
BRANCH  18  19
ATOM     19  O   UNL     1       6.268  -2.873  22.277  0.00  0.00    -0.389 OA
ATOM     20  H   UNL     1       5.728  -3.347  21.621  0.00  0.00    +0.210 HD
ENDBRANCH  18  19
ENDBRANCH  16  18
BRANCH  16  21
ATOM     21  O   UNL     1       9.156  -4.214  24.178  0.00  0.00    -0.383 OA
ATOM     22  H   UNL     1       8.840  -4.718  24.947  0.00  0.00    +0.210 HD
ENDBRANCH  16  21
ENDBRANCH   1  16
TORSDOF 4
ENDMDL
MODEL 4
REMARK VINA RESULT:      -5.8      3.013      4.175
REMARK  Name = 
REMARK  5 active torsions:
REMARK  status: ('A' for Active; 'I' for Inactive)
REMARK    1  A    between atoms: C_1  and  C_2
REMARK    2  A    between atoms: C_2  and  O_4
REMARK    3  A    between atoms: C_2  and  C_5
REMARK    4  A    between atoms: C_5  and  O_7
REMARK    5  A    between atoms: C_5  and  C_8
REMARK                            x       y       z     vdW  Elec       q    Type
REMARK                         _______ _______ _______ _____ _____    ______ ____
ROOT
ATOM      1  C   UNL     1       8.668  -2.703  23.924  0.00  0.00    +0.091 A 
ATOM      2  N   UNL     1       7.756  -2.933  22.941  0.00  0.00    -0.239 NA
ATOM      3  C   UNL     1       6.923  -3.983  23.168  0.00  0.00    +0.172 A 
ATOM      4  C   UNL     1       6.950  -4.770  24.312  0.00  0.00    +0.187 A 
ATOM      5  N   UNL     1       6.043  -5.807  24.569  0.00  0.00    -0.195 NA
ATOM      6  C   UNL     1       5.146  -6.054  23.674  0.00  0.00    +0.195 A 
ATOM      7  N   UNL     1       5.069  -5.369  22.497  0.00  0.00    -0.293 N 
ATOM      8  H   UNL     1       4.339  -5.575  21.834  0.00  0.00    +0.172 HD
ATOM      9  N   UNL     1       4.222  -7.023  23.873  0.00  0.00    -0.329 N 
ATOM     10  H   UNL     1       3.852  -7.508  23.067  0.00  0.00    +0.145 HD
ATOM     11  H   UNL     1       4.457  -7.637  24.648  0.00  0.00    +0.145 HD
ATOM     12  N   UNL     1       7.862  -4.545  25.284  0.00  0.00    -0.232 NA
ATOM     13  C   UNL     1       5.898  -4.320  22.164  0.00  0.00    +0.280 A 
ATOM     14  O   UNL     1       5.760  -3.719  21.104  0.00  0.00    -0.265 OA
ATOM     15  C   UNL     1       8.717  -3.512  25.061  0.00  0.00    +0.139 A 
ENDROOT
BRANCH   1  16
ATOM     16  C   UNL     1       9.591  -1.517  23.754  0.00  0.00    +0.192 C 
BRANCH  16  18
ATOM     17  C   UNL     1      10.040   0.612  22.391  0.00  0.00    +0.040 C 
ATOM     18  C   UNL     1       9.449  -0.793  22.389  0.00  0.00    +0.146 C 
BRANCH  18  19
ATOM     19  O   UNL     1      10.044  -1.550  21.330  0.00  0.00    -0.389 OA
ATOM     20  H   UNL     1       9.358  -1.729  20.663  0.00  0.00    +0.210 HD
ENDBRANCH  18  19
ENDBRANCH  16  18
BRANCH  16  21
ATOM     21  O   UNL     1       9.390  -0.608  24.844  0.00  0.00    -0.383 OA
ATOM     22  H   UNL     1       9.164  -1.143  25.623  0.00  0.00    +0.210 HD
ENDBRANCH  16  21
ENDBRANCH   1  16
TORSDOF 4
ENDMDL
MODEL 5
REMARK VINA RESULT:      -5.8      2.160      2.396
REMARK  Name = 
REMARK  5 active torsions:
REMARK  status: ('A' for Active; 'I' for Inactive)
REMARK    1  A    between atoms: C_1  and  C_2
REMARK    2  A    between atoms: C_2  and  O_4
REMARK    3  A    between atoms: C_2  and  C_5
REMARK    4  A    between atoms: C_5  and  O_7
REMARK    5  A    between atoms: C_5  and  C_8
REMARK                            x       y       z     vdW  Elec       q    Type
REMARK                         _______ _______ _______ _____ _____    ______ ____
ROOT
ATOM      1  C   UNL     1       8.797   0.593  22.554  0.00  0.00    +0.091 A 
ATOM      2  N   UNL     1       7.696   0.252  23.275  0.00  0.00    -0.239 NA
ATOM      3  C   UNL     1       7.368  -1.066  23.232  0.00  0.00    +0.172 A 
ATOM      4  C   UNL     1       8.090  -2.029  22.538  0.00  0.00    +0.187 A 
ATOM      5  N   UNL     1       7.786  -3.397  22.555  0.00  0.00    -0.195 NA
ATOM      6  C   UNL     1       6.758  -3.774  23.240  0.00  0.00    +0.195 A 
ATOM      7  N   UNL     1       5.959  -2.899  23.915  0.00  0.00    -0.293 N 
ATOM      8  H   UNL     1       5.181  -3.234  24.459  0.00  0.00    +0.172 HD
ATOM      9  N   UNL     1       6.426  -5.084  23.321  0.00  0.00    -0.329 N 
ATOM     10  H   UNL     1       5.453  -5.328  23.439  0.00  0.00    +0.145 HD
ATOM     11  H   UNL     1       6.911  -5.655  22.634  0.00  0.00    +0.145 HD
ATOM     12  N   UNL     1       9.179  -1.687  21.815  0.00  0.00    -0.232 NA
ATOM     13  C   UNL     1       6.189  -1.541  23.979  0.00  0.00    +0.280 A 
ATOM     14  O   UNL     1       5.455  -0.807  24.630  0.00  0.00    -0.265 OA
ATOM     15  C   UNL     1       9.506  -0.368  21.830  0.00  0.00    +0.139 A 
ENDROOT
BRANCH   1  16
ATOM     16  C   UNL     1       9.242   2.037  22.602  0.00  0.00    +0.192 C 
BRANCH  16  18
ATOM     17  C   UNL     1       8.871   3.586  24.616  0.00  0.00    +0.040 C 
ATOM     18  C   UNL     1       9.743   2.501  23.996  0.00  0.00    +0.146 C 
BRANCH  18  19
ATOM     19  O   UNL     1       9.845   1.402  24.908  0.00  0.00    -0.389 OA
ATOM     20  H   UNL     1      10.319   1.710  25.700  0.00  0.00    +0.210 HD
ENDBRANCH  18  19
ENDBRANCH  16  18
BRANCH  16  21
ATOM     21  O   UNL     1      10.241   2.252  21.597  0.00  0.00    -0.383 OA
ATOM     22  H   UNL     1      10.773   1.441  21.545  0.00  0.00    +0.210 HD
ENDBRANCH  16  21
ENDBRANCH   1  16
TORSDOF 4
ENDMDL
MODEL 6
REMARK VINA RESULT:      -5.8      2.677      5.822
REMARK  Name = 
REMARK  5 active torsions:
REMARK  status: ('A' for Active; 'I' for Inactive)
REMARK    1  A    between atoms: C_1  and  C_2
REMARK    2  A    between atoms: C_2  and  O_4
REMARK    3  A    between atoms: C_2  and  C_5
REMARK    4  A    between atoms: C_5  and  O_7
REMARK    5  A    between atoms: C_5  and  C_8
REMARK                            x       y       z     vdW  Elec       q    Type
REMARK                         _______ _______ _______ _____ _____    ______ ____
ROOT
ATOM      1  C   UNL     1       8.845  -3.415  25.403  0.00  0.00    +0.091 A 
ATOM      2  N   UNL     1       9.410  -2.983  24.243  0.00  0.00    -0.239 NA
ATOM      3  C   UNL     1       9.592  -1.639  24.161  0.00  0.00    +0.172 A 
ATOM      4  C   UNL     1       9.263  -0.742  25.170  0.00  0.00    +0.187 A 
ATOM      5  N   UNL     1       9.518   0.635  25.105  0.00  0.00    -0.195 NA
ATOM      6  C   UNL     1      10.070   1.092  24.031  0.00  0.00    +0.195 A 
ATOM      7  N   UNL     1      10.383   0.299  22.966  0.00  0.00    -0.293 N 
ATOM      8  H   UNL     1      10.836   0.690  22.156  0.00  0.00    +0.172 HD
ATOM      9  N   UNL     1      10.368   2.408  23.915  0.00  0.00    -0.329 N 
ATOM     10  H   UNL     1      10.357   2.825  22.995  0.00  0.00    +0.145 HD
ATOM     11  H   UNL     1       9.920   2.976  24.629  0.00  0.00    +0.145 HD
ATOM     12  N   UNL     1       8.695  -1.171  26.318  0.00  0.00    -0.232 NA
ATOM     13  C   UNL     1      10.195  -1.066  22.944  0.00  0.00    +0.280 A 
ATOM     14  O   UNL     1      10.529  -1.733  21.971  0.00  0.00    -0.265 OA
ATOM     15  C   UNL     1       8.486  -2.512  26.406  0.00  0.00    +0.139 A 
ENDROOT
BRANCH   1  16
ATOM     16  C   UNL     1       8.663  -4.906  25.576  0.00  0.00    +0.192 C 
BRANCH  16  18
ATOM     17  C   UNL     1       6.263  -5.570  26.201  0.00  0.00    +0.040 C 
ATOM     18  C   UNL     1       7.291  -5.439  25.083  0.00  0.00    +0.146 C 
BRANCH  18  19
ATOM     19  O   UNL     1       6.751  -4.615  24.044  0.00  0.00    -0.389 OA
ATOM     20  H   UNL     1       6.530  -3.749  24.429  0.00  0.00    +0.210 HD
ENDBRANCH  18  19
ENDBRANCH  16  18
BRANCH  16  21
ATOM     21  O   UNL     1       9.743  -5.588  24.927  0.00  0.00    -0.383 OA
ATOM     22  H   UNL     1       9.685  -5.378  23.980  0.00  0.00    +0.210 HD
ENDBRANCH  16  21
ENDBRANCH   1  16
TORSDOF 4
ENDMDL
MODEL 7
REMARK VINA RESULT:      -5.8      2.260      3.035
REMARK  Name = 
REMARK  5 active torsions:
REMARK  status: ('A' for Active; 'I' for Inactive)
REMARK    1  A    between atoms: C_1  and  C_2
REMARK    2  A    between atoms: C_2  and  O_4
REMARK    3  A    between atoms: C_2  and  C_5
REMARK    4  A    between atoms: C_5  and  O_7
REMARK    5  A    between atoms: C_5  and  C_8
REMARK                            x       y       z     vdW  Elec       q    Type
REMARK                         _______ _______ _______ _____ _____    ______ ____
ROOT
ATOM      1  C   UNL     1       9.255  -0.623  23.414  0.00  0.00    +0.091 A 
ATOM      2  N   UNL     1       9.638  -1.849  23.860  0.00  0.00    -0.239 NA
ATOM      3  C   UNL     1       8.645  -2.774  23.917  0.00  0.00    +0.172 A 
ATOM      4  C   UNL     1       7.331  -2.535  23.535  0.00  0.00    +0.187 A 
ATOM      5  N   UNL     1       6.328  -3.514  23.531  0.00  0.00    -0.195 NA
ATOM      6  C   UNL     1       6.647  -4.701  23.929  0.00  0.00    +0.195 A 
ATOM      7  N   UNL     1       7.897  -5.020  24.370  0.00  0.00    -0.293 N 
ATOM      8  H   UNL     1       8.113  -5.964  24.649  0.00  0.00    +0.172 HD
ATOM      9  N   UNL     1       5.732  -5.698  23.924  0.00  0.00    -0.329 N 
ATOM     10  H   UNL     1       5.817  -6.434  24.612  0.00  0.00    +0.145 HD
ATOM     11  H   UNL     1       4.781  -5.360  23.802  0.00  0.00    +0.145 HD
ATOM     12  N   UNL     1       6.949  -1.314  23.100  0.00  0.00    -0.232 NA
ATOM     13  C   UNL     1       8.954  -4.137  24.388  0.00  0.00    +0.280 A 
ATOM     14  O   UNL     1      10.066  -4.491  24.763  0.00  0.00    -0.265 OA
ATOM     15  C   UNL     1       7.928  -0.372  23.059  0.00  0.00    +0.139 A 
ENDROOT
BRANCH   1  16
ATOM     16  C   UNL     1      10.325   0.437  23.281  0.00  0.00    +0.192 C 
BRANCH  16  18
ATOM     17  C   UNL     1      10.395   2.981  23.616  0.00  0.00    +0.040 C 
ATOM     18  C   UNL     1       9.794   1.823  22.828  0.00  0.00    +0.146 C 
BRANCH  18  19
ATOM     19  O   UNL     1      10.019   2.039  21.431  0.00  0.00    -0.389 OA
ATOM     20  H   UNL     1      10.161   2.992  21.291  0.00  0.00    +0.210 HD
ENDBRANCH  18  19
ENDBRANCH  16  18
BRANCH  16  21
ATOM     21  O   UNL     1      11.041   0.537  24.519  0.00  0.00    -0.383 OA
ATOM     22  H   UNL     1      10.554   0.008  25.173  0.00  0.00    +0.210 HD
ENDBRANCH  16  21
ENDBRANCH   1  16
TORSDOF 4
ENDMDL
MODEL 8
REMARK VINA RESULT:      -5.7      1.641      2.172
REMARK  Name = 
REMARK  5 active torsions:
REMARK  status: ('A' for Active; 'I' for Inactive)
REMARK    1  A    between atoms: C_1  and  C_2
REMARK    2  A    between atoms: C_2  and  O_4
REMARK    3  A    between atoms: C_2  and  C_5
REMARK    4  A    between atoms: C_5  and  O_7
REMARK    5  A    between atoms: C_5  and  C_8
REMARK                            x       y       z     vdW  Elec       q    Type
REMARK                         _______ _______ _______ _____ _____    ______ ____
ROOT
ATOM      1  C   UNL     1       8.765  -1.819  22.966  0.00  0.00    +0.091 A 
ATOM      2  N   UNL     1       7.559  -2.193  23.471  0.00  0.00    -0.239 NA
ATOM      3  C   UNL     1       7.610  -3.176  24.407  0.00  0.00    +0.172 A 
ATOM      4  C   UNL     1       8.785  -3.764  24.861  0.00  0.00    +0.187 A 
ATOM      5  N   UNL     1       8.834  -4.728  25.877  0.00  0.00    -0.195 NA
ATOM      6  C   UNL     1       7.716  -5.104  26.401  0.00  0.00    +0.195 A 
ATOM      7  N   UNL     1       6.508  -4.623  25.990  0.00  0.00    -0.293 N 
ATOM      8  H   UNL     1       5.659  -4.922  26.441  0.00  0.00    +0.172 HD
ATOM      9  N   UNL     1       7.696  -6.012  27.406  0.00  0.00    -0.329 N 
ATOM     10  H   UNL     1       6.891  -6.617  27.493  0.00  0.00    +0.145 HD
ATOM     11  H   UNL     1       8.584  -6.493  27.518  0.00  0.00    +0.145 HD
ATOM     12  N   UNL     1       9.982  -3.397  24.352  0.00  0.00    -0.232 NA
ATOM     13  C   UNL     1       6.357  -3.657  25.018  0.00  0.00    +0.280 A 
ATOM     14  O   UNL     1       5.247  -3.237  24.713  0.00  0.00    -0.265 OA
ATOM     15  C   UNL     1       9.944  -2.430  23.398  0.00  0.00    +0.139 A 
ENDROOT
BRANCH   1  16
ATOM     16  C   UNL     1       8.779  -0.694  21.956  0.00  0.00    +0.192 C 
BRANCH  16  18
ATOM     17  C   UNL     1       8.195   1.789  21.664  0.00  0.00    +0.040 C 
ATOM     18  C   UNL     1       8.778   0.725  22.585  0.00  0.00    +0.146 C 
BRANCH  18  19
ATOM     19  O   UNL     1       8.073   0.744  23.831  0.00  0.00    -0.389 OA
ATOM     20  H   UNL     1       7.952   1.673  24.095  0.00  0.00    +0.210 HD
ENDBRANCH  18  19
ENDBRANCH  16  18
BRANCH  16  21
ATOM     21  O   UNL     1       9.898  -0.868  21.077  0.00  0.00    -0.383 OA
ATOM     22  H   UNL     1       9.928  -1.809  20.837  0.00  0.00    +0.210 HD
ENDBRANCH  16  21
ENDBRANCH   1  16
TORSDOF 4
ENDMDL
MODEL 9
REMARK VINA RESULT:      -5.5      3.112      4.398
REMARK  Name = 
REMARK  5 active torsions:
REMARK  status: ('A' for Active; 'I' for Inactive)
REMARK    1  A    between atoms: C_1  and  C_2
REMARK    2  A    between atoms: C_2  and  O_4
REMARK    3  A    between atoms: C_2  and  C_5
REMARK    4  A    between atoms: C_5  and  O_7
REMARK    5  A    between atoms: C_5  and  C_8
REMARK                            x       y       z     vdW  Elec       q    Type
REMARK                         _______ _______ _______ _____ _____    ______ ____
ROOT
ATOM      1  C   UNL     1       8.031  -3.297  23.644  0.00  0.00    +0.091 A 
ATOM      2  N   UNL     1       8.089  -3.880  24.872  0.00  0.00    -0.239 NA
ATOM      3  C   UNL     1       7.071  -4.736  25.148  0.00  0.00    +0.172 A 
ATOM      4  C   UNL     1       6.043  -5.039  24.265  0.00  0.00    +0.187 A 
ATOM      5  N   UNL     1       5.035  -5.976  24.531  0.00  0.00    -0.195 NA
ATOM      6  C   UNL     1       5.057  -6.571  25.677  0.00  0.00    +0.195 A 
ATOM      7  N   UNL     1       5.996  -6.304  26.629  0.00  0.00    -0.293 N 
ATOM      8  H   UNL     1       5.994  -6.808  27.502  0.00  0.00    +0.172 HD
ATOM      9  N   UNL     1       4.128  -7.506  25.986  0.00  0.00    -0.329 N 
ATOM     10  H   UNL     1       3.865  -7.622  26.955  0.00  0.00    +0.145 HD
ATOM     11  H   UNL     1       3.340  -7.504  25.345  0.00  0.00    +0.145 HD
ATOM     12  N   UNL     1       5.981  -4.453  23.049  0.00  0.00    -0.232 NA
ATOM     13  C   UNL     1       7.039  -5.421  26.453  0.00  0.00    +0.280 A 
ATOM     14  O   UNL     1       7.874  -5.247  27.334  0.00  0.00    -0.265 OA
ATOM     15  C   UNL     1       6.981  -3.577  22.767  0.00  0.00    +0.139 A 
ENDROOT
BRANCH   1  16
ATOM     16  C   UNL     1       9.162  -2.371  23.258  0.00  0.00    +0.192 C 
BRANCH  16  18
ATOM     17  C   UNL     1       8.475   0.030  22.665  0.00  0.00    +0.040 C 
ATOM     18  C   UNL     1       8.802  -1.361  22.136  0.00  0.00    +0.146 C 
BRANCH  18  19
ATOM     19  O   UNL     1       9.850  -1.260  21.166  0.00  0.00    -0.389 OA
ATOM     20  H   UNL     1       9.752  -0.409  20.703  0.00  0.00    +0.210 HD
ENDBRANCH  18  19
ENDBRANCH  16  18
BRANCH  16  21
ATOM     21  O   UNL     1       9.634  -1.694  24.430  0.00  0.00    -0.383 OA
ATOM     22  H   UNL     1      10.577  -1.911  24.524  0.00  0.00    +0.210 HD
ENDBRANCH  16  21
ENDBRANCH   1  16
TORSDOF 4
ENDMDL
