MODEL 1
REMARK VINA RESULT:      -4.5      0.000      0.000
REMARK  Name = 
REMARK  3 active torsions:
REMARK  status: ('A' for Active; 'I' for Inactive)
REMARK    1  A    between atoms: O_1  and  C_2
REMARK    2  A    between atoms: C_7  and  C_8
REMARK    3  A    between atoms: C_8  and  C_9
REMARK                            x       y       z     vdW  Elec       q    Type
REMARK                         _______ _______ _______ _____ _____    ______ ____
ROOT
ATOM      1  C   UNL     1       9.846  -0.080  22.054  0.00  0.00    +0.120 A 
ATOM      2  C   UNL     1      10.125  -0.683  23.286  0.00  0.00    -0.002 A 
ATOM      3  C   UNL     1      10.422   0.147  24.380  0.00  0.00    +0.007 A 
ATOM      4  C   UNL     1      10.477   1.534  24.232  0.00  0.00    +0.001 A 
ATOM      5  C   UNL     1      10.220   2.114  22.992  0.00  0.00    +0.004 A 
ATOM      6  C   UNL     1       9.895   1.308  21.901  0.00  0.00    +0.046 A 
ENDROOT
BRANCH   1   7
ATOM      7  O   UNL     1       9.534  -0.869  20.981  0.00  0.00    -0.506 OA
ATOM      8  H   UNL     1       8.639  -1.220  21.104  0.00  0.00    +0.292 HD
ENDBRANCH   1   7
BRANCH   2   9
ATOM      9  C   UNL     1      10.143  -2.183  23.461  0.00  0.00    +0.065 C 
BRANCH   9  10
ATOM     10  C   UNL     1       8.824  -2.759  23.899  0.00  0.00    -0.030 C 
ATOM     11  C   UNL     1       7.903  -3.259  23.064  0.00  0.00    +0.004 C 
ENDBRANCH   9  10
ENDBRANCH   2   9
TORSDOF 3
ENDMDL
MODEL 2
REMARK VINA RESULT:      -4.4      1.972      4.299
REMARK  Name = 
REMARK  3 active torsions:
REMARK  status: ('A' for Active; 'I' for Inactive)
REMARK    1  A    between atoms: O_1  and  C_2
REMARK    2  A    between atoms: C_7  and  C_8
REMARK    3  A    between atoms: C_8  and  C_9
REMARK                            x       y       z     vdW  Elec       q    Type
REMARK                         _______ _______ _______ _____ _____    ______ ____
ROOT
ATOM      1  C   UNL     1      10.367   0.315  23.994  0.00  0.00    +0.120 A 
ATOM      2  C   UNL     1      10.233   1.407  23.129  0.00  0.00    -0.002 A 
ATOM      3  C   UNL     1       9.759   1.170  21.828  0.00  0.00    +0.007 A 
ATOM      4  C   UNL     1       9.466  -0.125  21.397  0.00  0.00    +0.001 A 
ATOM      5  C   UNL     1       9.629  -1.202  22.266  0.00  0.00    +0.004 A 
ATOM      6  C   UNL     1      10.071  -0.983  23.570  0.00  0.00    +0.046 A 
ENDROOT
BRANCH   1   7
ATOM      7  O   UNL     1      10.808   0.527  25.271  0.00  0.00    -0.506 OA
ATOM      8  H   UNL     1      10.231   1.182  25.694  0.00  0.00    +0.292 HD
ENDBRANCH   1   7
BRANCH   2   9
ATOM      9  C   UNL     1      10.608   2.811  23.542  0.00  0.00    +0.065 C 
BRANCH   9  10
ATOM     10  C   UNL     1       9.429   3.673  23.902  0.00  0.00    -0.030 C 
ATOM     11  C   UNL     1       8.534   3.372  24.852  0.00  0.00    +0.004 C 
ENDBRANCH   9  10
ENDBRANCH   2   9
TORSDOF 3
ENDMDL
MODEL 3
REMARK VINA RESULT:      -4.4      1.597      3.573
REMARK  Name = 
REMARK  3 active torsions:
REMARK  status: ('A' for Active; 'I' for Inactive)
REMARK    1  A    between atoms: O_1  and  C_2
REMARK    2  A    between atoms: C_7  and  C_8
REMARK    3  A    between atoms: C_8  and  C_9
REMARK                            x       y       z     vdW  Elec       q    Type
REMARK                         _______ _______ _______ _____ _____    ______ ____
ROOT
ATOM      1  C   UNL     1       9.711   0.926  21.998  0.00  0.00    +0.120 A 
ATOM      2  C   UNL     1      10.130   0.970  23.333  0.00  0.00    -0.002 A 
ATOM      3  C   UNL     1      10.322  -0.247  24.009  0.00  0.00    +0.007 A 
ATOM      4  C   UNL     1      10.065  -1.465  23.379  0.00  0.00    +0.001 A 
ATOM      5  C   UNL     1       9.625  -1.487  22.057  0.00  0.00    +0.004 A 
ATOM      6  C   UNL     1       9.456  -0.290  21.360  0.00  0.00    +0.046 A 
ENDROOT
BRANCH   1   7
ATOM      7  O   UNL     1       9.536   2.099  21.316  0.00  0.00    -0.506 OA
ATOM      8  H   UNL     1       9.484   2.825  21.956  0.00  0.00    +0.292 HD
ENDBRANCH   1   7
BRANCH   2   9
ATOM      9  C   UNL     1      10.349   2.273  24.065  0.00  0.00    +0.065 C 
BRANCH   9  10
ATOM     10  C   UNL     1       9.082   2.907  24.569  0.00  0.00    -0.030 C 
ATOM     11  C   UNL     1       8.087   2.237  25.167  0.00  0.00    +0.004 C 
ENDBRANCH   9  10
ENDBRANCH   2   9
TORSDOF 3
ENDMDL
MODEL 4
REMARK VINA RESULT:      -4.1      1.610      2.201
REMARK  Name = 
REMARK  3 active torsions:
REMARK  status: ('A' for Active; 'I' for Inactive)
REMARK    1  A    between atoms: O_1  and  C_2
REMARK    2  A    between atoms: C_7  and  C_8
REMARK    3  A    between atoms: C_8  and  C_9
REMARK                            x       y       z     vdW  Elec       q    Type
REMARK                         _______ _______ _______ _____ _____    ______ ____
ROOT
ATOM      1  C   UNL     1      10.217   0.477  24.128  0.00  0.00    +0.120 A 
ATOM      2  C   UNL     1       9.872  -0.687  23.431  0.00  0.00    -0.002 A 
ATOM      3  C   UNL     1       9.539  -0.573  22.070  0.00  0.00    +0.007 A 
ATOM      4  C   UNL     1       9.514   0.673  21.441  0.00  0.00    +0.001 A 
ATOM      5  C   UNL     1       9.837   1.823  22.159  0.00  0.00    +0.004 A 
ATOM      6  C   UNL     1      10.199   1.725  23.503  0.00  0.00    +0.046 A 
ENDROOT
BRANCH   1   7
ATOM      7  O   UNL     1      10.564   0.384  25.448  0.00  0.00    -0.506 OA
ATOM      8  H   UNL     1      11.182  -0.355  25.554  0.00  0.00    +0.292 HD
ENDBRANCH   1   7
BRANCH   2   9
ATOM      9  C   UNL     1       9.821  -2.041  24.100  0.00  0.00    +0.065 C 
BRANCH   9  10
ATOM     10  C   UNL     1       8.437  -2.623  24.185  0.00  0.00    -0.030 C 
ATOM     11  C   UNL     1       8.029  -3.705  23.509  0.00  0.00    +0.004 C 
ENDBRANCH   9  10
ENDBRANCH   2   9
TORSDOF 3
ENDMDL
MODEL 5
REMARK VINA RESULT:      -4.0      4.721      5.948
REMARK  Name = 
REMARK  3 active torsions:
REMARK  status: ('A' for Active; 'I' for Inactive)
REMARK    1  A    between atoms: O_1  and  C_2
REMARK    2  A    between atoms: C_7  and  C_8
REMARK    3  A    between atoms: C_8  and  C_9
REMARK                            x       y       z     vdW  Elec       q    Type
REMARK                         _______ _______ _______ _____ _____    ______ ____
ROOT
ATOM      1  C   UNL     1       8.793  -4.356  24.964  0.00  0.00    +0.120 A 
ATOM      2  C   UNL     1       7.634  -4.612  24.221  0.00  0.00    -0.002 A 
ATOM      3  C   UNL     1       6.529  -5.170  24.885  0.00  0.00    +0.007 A 
ATOM      4  C   UNL     1       6.598  -5.499  26.240  0.00  0.00    +0.001 A 
ATOM      5  C   UNL     1       7.768  -5.259  26.956  0.00  0.00    +0.004 A 
ATOM      6  C   UNL     1       8.866  -4.678  26.321  0.00  0.00    +0.046 A 
ENDROOT
BRANCH   1   7
ATOM      7  O   UNL     1       9.873  -3.795  24.341  0.00  0.00    -0.506 OA
ATOM      8  H   UNL     1      10.659  -3.945  24.889  0.00  0.00    +0.292 HD
ENDBRANCH   1   7
BRANCH   2   9
ATOM      9  C   UNL     1       7.551  -4.333  22.739  0.00  0.00    +0.065 C 
BRANCH   9  10
ATOM     10  C   UNL     1       6.307  -4.875  22.088  0.00  0.00    -0.030 C 
ATOM     11  C   UNL     1       6.304  -5.747  21.072  0.00  0.00    +0.004 C 
ENDBRANCH   9  10
ENDBRANCH   2   9
TORSDOF 3
ENDMDL
MODEL 6
REMARK VINA RESULT:      -4.0      1.786      2.183
REMARK  Name = 
REMARK  3 active torsions:
REMARK  status: ('A' for Active; 'I' for Inactive)
REMARK    1  A    between atoms: O_1  and  C_2
REMARK    2  A    between atoms: C_7  and  C_8
REMARK    3  A    between atoms: C_8  and  C_9
REMARK                            x       y       z     vdW  Elec       q    Type
REMARK                         _______ _______ _______ _____ _____    ______ ____
ROOT
ATOM      1  C   UNL     1       9.286  -0.671  21.861  0.00  0.00    +0.120 A 
ATOM      2  C   UNL     1       8.139  -1.094  22.541  0.00  0.00    -0.002 A 
ATOM      3  C   UNL     1       7.170  -0.131  22.873  0.00  0.00    +0.007 A 
ATOM      4  C   UNL     1       7.366   1.217  22.568  0.00  0.00    +0.001 A 
ATOM      5  C   UNL     1       8.527   1.621  21.912  0.00  0.00    +0.004 A 
ATOM      6  C   UNL     1       9.486   0.676  21.549  0.00  0.00    +0.046 A 
ENDROOT
BRANCH   1   7
ATOM      7  O   UNL     1      10.232  -1.595  21.511  0.00  0.00    -0.506 OA
ATOM      8  H   UNL     1      10.615  -1.967  22.320  0.00  0.00    +0.292 HD
ENDBRANCH   1   7
BRANCH   2   9
ATOM      9  C   UNL     1       7.929  -2.533  22.947  0.00  0.00    +0.065 C 
BRANCH   9  10
ATOM     10  C   UNL     1       8.407  -2.847  24.339  0.00  0.00    -0.030 C 
ATOM     11  C   UNL     1       9.425  -3.670  24.622  0.00  0.00    +0.004 C 
ENDBRANCH   9  10
ENDBRANCH   2   9
TORSDOF 3
ENDMDL
MODEL 7
REMARK VINA RESULT:      -3.9      2.607      5.004
REMARK  Name = 
REMARK  3 active torsions:
REMARK  status: ('A' for Active; 'I' for Inactive)
REMARK    1  A    between atoms: O_1  and  C_2
REMARK    2  A    between atoms: C_7  and  C_8
REMARK    3  A    between atoms: C_8  and  C_9
REMARK                            x       y       z     vdW  Elec       q    Type
REMARK                         _______ _______ _______ _____ _____    ______ ____
ROOT
ATOM      1  C   UNL     1       8.731   2.525  22.358  0.00  0.00    +0.120 A 
ATOM      2  C   UNL     1       9.343   2.766  23.594  0.00  0.00    -0.002 A 
ATOM      3  C   UNL     1      10.245   1.807  24.086  0.00  0.00    +0.007 A 
ATOM      4  C   UNL     1      10.493   0.628  23.381  0.00  0.00    +0.001 A 
ATOM      5  C   UNL     1       9.854   0.396  22.165  0.00  0.00    +0.004 A 
ATOM      6  C   UNL     1       8.978   1.349  21.646  0.00  0.00    +0.046 A 
ENDROOT
BRANCH   1   7
ATOM      7  O   UNL     1       7.865   3.455  21.852  0.00  0.00    -0.506 OA
ATOM      8  H   UNL     1       6.958   3.168  22.040  0.00  0.00    +0.292 HD
ENDBRANCH   1   7
BRANCH   2   9
ATOM      9  C   UNL     1       9.043   3.998  24.414  0.00  0.00    +0.065 C 
BRANCH   9  10
ATOM     10  C   UNL     1       9.928   5.171  24.093  0.00  0.00    -0.030 C 
ATOM     11  C   UNL     1       9.511   6.288  23.482  0.00  0.00    +0.004 C 
ENDBRANCH   9  10
ENDBRANCH   2   9
TORSDOF 3
ENDMDL
MODEL 8
REMARK VINA RESULT:      -3.9      2.053      4.196
REMARK  Name = 
REMARK  3 active torsions:
REMARK  status: ('A' for Active; 'I' for Inactive)
REMARK    1  A    between atoms: O_1  and  C_2
REMARK    2  A    between atoms: C_7  and  C_8
REMARK    3  A    between atoms: C_8  and  C_9
REMARK                            x       y       z     vdW  Elec       q    Type
REMARK                         _______ _______ _______ _____ _____    ______ ____
ROOT
ATOM      1  C   UNL     1       9.149  -0.666  25.346  0.00  0.00    +0.120 A 
ATOM      2  C   UNL     1       9.802  -1.014  24.157  0.00  0.00    -0.002 A 
ATOM      3  C   UNL     1       9.827  -2.369  23.786  0.00  0.00    +0.007 A 
ATOM      4  C   UNL     1       9.252  -3.346  24.600  0.00  0.00    +0.001 A 
ATOM      5  C   UNL     1       8.628  -2.982  25.791  0.00  0.00    +0.004 A 
ATOM      6  C   UNL     1       8.568  -1.639  26.163  0.00  0.00    +0.046 A 
ENDROOT
BRANCH   1   7
ATOM      7  O   UNL     1       9.096   0.650  25.716  0.00  0.00    -0.506 OA
ATOM      8  H   UNL     1       8.256   0.809  26.173  0.00  0.00    +0.292 HD
ENDBRANCH   1   7
BRANCH   2   9
ATOM      9  C   UNL     1      10.495   0.010  23.290  0.00  0.00    +0.065 C 
BRANCH   9  10
ATOM     10  C   UNL     1       9.853   0.198  21.942  0.00  0.00    -0.030 C 
ATOM     11  C   UNL     1       8.951   1.147  21.660  0.00  0.00    +0.004 C 
ENDBRANCH   9  10
ENDBRANCH   2   9
TORSDOF 3
ENDMDL
MODEL 9
REMARK VINA RESULT:      -3.9      1.889      2.318
REMARK  Name = 
REMARK  3 active torsions:
REMARK  status: ('A' for Active; 'I' for Inactive)
REMARK    1  A    between atoms: O_1  and  C_2
REMARK    2  A    between atoms: C_7  and  C_8
REMARK    3  A    between atoms: C_8  and  C_9
REMARK                            x       y       z     vdW  Elec       q    Type
REMARK                         _______ _______ _______ _____ _____    ______ ____
ROOT
ATOM      1  C   UNL     1       7.513   0.119  22.612  0.00  0.00    +0.120 A 
ATOM      2  C   UNL     1       8.736  -0.510  22.348  0.00  0.00    -0.002 A 
ATOM      3  C   UNL     1       9.824   0.290  21.960  0.00  0.00    +0.007 A 
ATOM      4  C   UNL     1       9.679   1.669  21.803  0.00  0.00    +0.001 A 
ATOM      5  C   UNL     1       8.448   2.273  22.047  0.00  0.00    +0.004 A 
ATOM      6  C   UNL     1       7.363   1.500  22.461  0.00  0.00    +0.046 A 
ENDROOT
BRANCH   1   7
ATOM      7  O   UNL     1       6.446  -0.639  23.011  0.00  0.00    -0.506 OA
ATOM      8  H   UNL     1       6.780  -1.456  23.412  0.00  0.00    +0.292 HD
ENDBRANCH   1   7
BRANCH   2   9
ATOM      9  C   UNL     1       8.906  -2.008  22.441  0.00  0.00    +0.065 C 
BRANCH   9  10
ATOM     10  C   UNL     1       9.640  -2.460  23.674  0.00  0.00    -0.030 C 
ATOM     11  C   UNL     1       9.044  -2.925  24.780  0.00  0.00    +0.004 C 
ENDBRANCH   9  10
ENDBRANCH   2   9
TORSDOF 3
ENDMDL
