MODEL 1
REMARK VINA RESULT:      -4.2      0.000      0.000
REMARK  Name = 
REMARK  9 active torsions:
REMARK  status: ('A' for Active; 'I' for Inactive)
REMARK    1  A    between atoms: N_1  and  C_2
REMARK    2  A    between atoms: C_2  and  C_3
REMARK    3  A    between atoms: C_3  and  C_4
REMARK    4  A    between atoms: N_6  and  C_7
REMARK    5  A    between atoms: C_7  and  C_8
REMARK    6  A    between atoms: C_8  and  CA_9
REMARK    7  A    between atoms: CA_9  and  N_11
REMARK    8  A    between atoms: CA_9  and  C_12
REMARK    9  A    between atoms: C_12  and  O_13
REMARK                            x       y       z     vdW  Elec       q    Type
REMARK                         _______ _______ _______ _____ _____    ______ ____
ROOT
ATOM      1  C   UNL     1      10.436  -0.019  24.512  0.00  0.00    +0.106 C 
ENDROOT
BRANCH   1   3
ATOM      2  C   UNL     1       9.829  -2.305  23.800  0.00  0.00    +0.214 C 
ATOM      3  N   UNL     1       9.619  -1.209  24.611  0.00  0.00    -0.315 N 
ATOM      4  H   UNL     1       8.948  -1.287  25.372  0.00  0.00    +0.149 HD
ATOM      5  O   UNL     1      10.679  -2.324  22.915  0.00  0.00    -0.276 OA
BRANCH   2   6
ATOM      6  C   UNL     1       8.913  -3.477  24.089  0.00  0.00    +0.110 C 
BRANCH   6   7
ATOM      7  C   UNL     1       7.689  -3.423  23.175  0.00  0.00    +0.087 C 
BRANCH   7   8
ATOM      8  N   UNL     1       7.807  -2.340  22.199  0.00  0.00    -0.330 NA
ATOM      9  H   UNL     1       7.192  -1.574  22.466  0.00  0.00    +0.118 HD
ATOM     10  H   UNL     1       8.756  -1.965  22.244  0.00  0.00    +0.118 HD
ENDBRANCH   7   8
ENDBRANCH   6   7
ENDBRANCH   2   6
ENDBRANCH   1   3
BRANCH   1  11
ATOM     11  C   UNL     1       9.625   1.274  24.397  0.00  0.00    +0.048 C 
BRANCH  11  12
ATOM     12  CA  UNL     1       8.682   1.402  23.193  0.00  0.00    +0.162 C 
BRANCH  12  13
ATOM     13  N   UNL     1       7.500   0.500  23.258  0.00  0.00    -0.318 NA
ATOM     14  H1  UNL     1       6.944   0.745  24.081  0.00  0.00    +0.119 HD
ATOM     15  H2  UNL     1       6.887   0.716  22.464  0.00  0.00    +0.119 HD
ENDBRANCH  12  13
BRANCH  12  16
ATOM     16  C   UNL     1       9.435   1.162  21.875  0.00  0.00    +0.322 C 
ATOM     17  OXT UNL     1       9.315   0.170  21.173  0.00  0.00    -0.249 OA
BRANCH  16  18
ATOM     18  O   UNL     1      10.231   2.215  21.553  0.00  0.00    -0.480 OA
ATOM     19  H   UNL     1      10.272   2.235  20.563  0.00  0.00    +0.295 HD
ENDBRANCH  16  18
ENDBRANCH  12  16
ENDBRANCH  11  12
ENDBRANCH   1  11
TORSDOF 9
ENDMDL
MODEL 2
REMARK VINA RESULT:      -4.1      2.104      2.829
REMARK  Name = 
REMARK  9 active torsions:
REMARK  status: ('A' for Active; 'I' for Inactive)
REMARK    1  A    between atoms: N_1  and  C_2
REMARK    2  A    between atoms: C_2  and  C_3
REMARK    3  A    between atoms: C_3  and  C_4
REMARK    4  A    between atoms: N_6  and  C_7
REMARK    5  A    between atoms: C_7  and  C_8
REMARK    6  A    between atoms: C_8  and  CA_9
REMARK    7  A    between atoms: CA_9  and  N_11
REMARK    8  A    between atoms: CA_9  and  C_12
REMARK    9  A    between atoms: C_12  and  O_13
REMARK                            x       y       z     vdW  Elec       q    Type
REMARK                         _______ _______ _______ _____ _____    ______ ____
ROOT
ATOM      1  C   UNL     1       7.662  -2.100  22.642  0.00  0.00    +0.106 C 
ENDROOT
BRANCH   1   3
ATOM      2  C   UNL     1       8.927  -3.120  24.501  0.00  0.00    +0.214 C 
ATOM      3  N   UNL     1       7.734  -2.684  23.963  0.00  0.00    -0.315 N 
ATOM      4  H   UNL     1       6.908  -2.668  24.557  0.00  0.00    +0.149 HD
ATOM      5  O   UNL     1       9.986  -3.091  23.882  0.00  0.00    -0.276 OA
BRANCH   2   6
ATOM      6  C   UNL     1       8.814  -3.648  25.917  0.00  0.00    +0.110 C 
BRANCH   6   7
ATOM      7  C   UNL     1       8.914  -5.173  25.917  0.00  0.00    +0.087 C 
BRANCH   7   8
ATOM      8  N   UNL     1      10.210  -5.617  25.407  0.00  0.00    -0.330 NA
ATOM      9  H   UNL     1      10.089  -6.027  24.484  0.00  0.00    +0.118 HD
ATOM     10  H   UNL     1      10.804  -4.796  25.272  0.00  0.00    +0.118 HD
ENDBRANCH   7   8
ENDBRANCH   6   7
ENDBRANCH   2   6
ENDBRANCH   1   3
BRANCH   1  11
ATOM     11  C   UNL     1       8.039  -0.617  22.603  0.00  0.00    +0.048 C 
BRANCH  11  12
ATOM     12  CA  UNL     1       9.240  -0.225  21.732  0.00  0.00    +0.162 C 
BRANCH  12  13
ATOM     13  N   UNL     1      10.185  -1.344  21.472  0.00  0.00    -0.318 NA
ATOM     14  H1  UNL     1      10.419  -1.352  20.476  0.00  0.00    +0.119 HD
ATOM     15  H2  UNL     1      11.073  -1.131  21.939  0.00  0.00    +0.119 HD
ENDBRANCH  12  13
BRANCH  12  16
ATOM     16  C   UNL     1      10.006   0.956  22.349  0.00  0.00    +0.322 C 
ATOM     17  OXT UNL     1      10.552   0.940  23.441  0.00  0.00    -0.249 OA
BRANCH  16  18
ATOM     18  O   UNL     1      10.043   2.024  21.510  0.00  0.00    -0.480 OA
ATOM     19  H   UNL     1       9.936   1.658  20.595  0.00  0.00    +0.295 HD
ENDBRANCH  16  18
ENDBRANCH  12  16
ENDBRANCH  11  12
ENDBRANCH   1  11
TORSDOF 9
ENDMDL
MODEL 3
REMARK VINA RESULT:      -4.0      2.015      2.665
REMARK  Name = 
REMARK  9 active torsions:
REMARK  status: ('A' for Active; 'I' for Inactive)
REMARK    1  A    between atoms: N_1  and  C_2
REMARK    2  A    between atoms: C_2  and  C_3
REMARK    3  A    between atoms: C_3  and  C_4
REMARK    4  A    between atoms: N_6  and  C_7
REMARK    5  A    between atoms: C_7  and  C_8
REMARK    6  A    between atoms: C_8  and  CA_9
REMARK    7  A    between atoms: CA_9  and  N_11
REMARK    8  A    between atoms: CA_9  and  C_12
REMARK    9  A    between atoms: C_12  and  O_13
REMARK                            x       y       z     vdW  Elec       q    Type
REMARK                         _______ _______ _______ _____ _____    ______ ____
ROOT
ATOM      1  C   UNL     1      10.220  -1.700  22.928  0.00  0.00    +0.106 C 
ENDROOT
BRANCH   1   3
ATOM      2  C   UNL     1       8.764  -3.167  24.279  0.00  0.00    +0.214 C 
ATOM      3  N   UNL     1       9.745  -2.200  24.199  0.00  0.00    -0.315 N 
ATOM      4  H   UNL     1      10.222  -1.918  25.052  0.00  0.00    +0.149 HD
ATOM      5  O   UNL     1       8.198  -3.624  23.290  0.00  0.00    -0.276 OA
BRANCH   2   6
ATOM      6  C   UNL     1       8.437  -3.605  25.693  0.00  0.00    +0.110 C 
BRANCH   6   7
ATOM      7  C   UNL     1       9.339  -4.769  26.101  0.00  0.00    +0.087 C 
BRANCH   7   8
ATOM      8  N   UNL     1      10.196  -5.186  24.993  0.00  0.00    -0.330 NA
ATOM      9  H   UNL     1       9.662  -5.768  24.351  0.00  0.00    +0.118 HD
ATOM     10  H   UNL     1      10.465  -4.357  24.460  0.00  0.00    +0.118 HD
ENDBRANCH   7   8
ENDBRANCH   6   7
ENDBRANCH   2   6
ENDBRANCH   1   3
BRANCH   1  11
ATOM     11  C   UNL     1       9.847  -0.239  22.663  0.00  0.00    +0.048 C 
BRANCH  11  12
ATOM     12  CA  UNL     1      10.500   0.821  23.560  0.00  0.00    +0.162 C 
BRANCH  12  13
ATOM     13  N   UNL     1       9.986   0.826  24.957  0.00  0.00    -0.318 NA
ATOM     14  H1  UNL     1       8.964   0.815  24.930  0.00  0.00    +0.119 HD
ATOM     15  H2  UNL     1      10.239  -0.065  25.396  0.00  0.00    +0.119 HD
ENDBRANCH  12  13
BRANCH  12  16
ATOM     16  C   UNL     1      10.345   2.225  22.955  0.00  0.00    +0.322 C 
ATOM     17  OXT UNL     1      10.475   3.270  23.573  0.00  0.00    -0.249 OA
BRANCH  16  18
ATOM     18  O   UNL     1      10.081   2.172  21.623  0.00  0.00    -0.480 OA
ATOM     19  H   UNL     1       9.993   3.113  21.324  0.00  0.00    +0.295 HD
ENDBRANCH  16  18
ENDBRANCH  12  16
ENDBRANCH  11  12
ENDBRANCH   1  11
TORSDOF 9
ENDMDL
MODEL 4
REMARK VINA RESULT:      -4.0      1.716      2.105
REMARK  Name = 
REMARK  9 active torsions:
REMARK  status: ('A' for Active; 'I' for Inactive)
REMARK    1  A    between atoms: N_1  and  C_2
REMARK    2  A    between atoms: C_2  and  C_3
REMARK    3  A    between atoms: C_3  and  C_4
REMARK    4  A    between atoms: N_6  and  C_7
REMARK    5  A    between atoms: C_7  and  C_8
REMARK    6  A    between atoms: C_8  and  CA_9
REMARK    7  A    between atoms: CA_9  and  N_11
REMARK    8  A    between atoms: CA_9  and  C_12
REMARK    9  A    between atoms: C_12  and  O_13
REMARK                            x       y       z     vdW  Elec       q    Type
REMARK                         _______ _______ _______ _____ _____    ______ ____
ROOT
ATOM      1  C   UNL     1      10.223  -0.250  24.745  0.00  0.00    +0.106 C 
ENDROOT
BRANCH   1   3
ATOM      2  C   UNL     1       9.571  -2.485  23.922  0.00  0.00    +0.214 C 
ATOM      3  N   UNL     1       9.346  -1.400  24.743  0.00  0.00    -0.315 N 
ATOM      4  H   UNL     1       8.609  -1.462  25.443  0.00  0.00    +0.149 HD
ATOM      5  O   UNL     1      10.492  -2.526  23.111  0.00  0.00    -0.276 OA
BRANCH   2   6
ATOM      6  C   UNL     1       8.579  -3.617  24.101  0.00  0.00    +0.110 C 
BRANCH   6   7
ATOM      7  C   UNL     1       9.008  -4.510  25.264  0.00  0.00    +0.087 C 
BRANCH   7   8
ATOM      8  N   UNL     1      10.291  -5.156  24.988  0.00  0.00    -0.330 NA
ATOM      9  H   UNL     1      10.493  -5.098  23.993  0.00  0.00    +0.118 HD
ATOM     10  H   UNL     1      11.028  -4.624  25.454  0.00  0.00    +0.118 HD
ENDBRANCH   7   8
ENDBRANCH   6   7
ENDBRANCH   2   6
ENDBRANCH   1   3
BRANCH   1  11
ATOM     11  C   UNL     1       9.637   0.972  24.032  0.00  0.00    +0.048 C 
BRANCH  11  12
ATOM     12  CA  UNL     1      10.169   1.280  22.626  0.00  0.00    +0.162 C 
BRANCH  12  13
ATOM     13  N   UNL     1      10.429   2.726  22.385  0.00  0.00    -0.318 NA
ATOM     14  H1  UNL     1       9.859   3.035  21.595  0.00  0.00    +0.119 HD
ATOM     15  H2  UNL     1      10.064   3.256  23.184  0.00  0.00    +0.119 HD
ENDBRANCH  12  13
BRANCH  12  16
ATOM     16  C   UNL     1       9.212   0.749  21.547  0.00  0.00    +0.322 C 
ATOM     17  OXT UNL     1       8.248   1.356  21.108  0.00  0.00    -0.249 OA
BRANCH  16  18
ATOM     18  O   UNL     1       9.591  -0.477  21.100  0.00  0.00    -0.480 OA
ATOM     19  H   UNL     1       8.753  -0.963  20.888  0.00  0.00    +0.295 HD
ENDBRANCH  16  18
ENDBRANCH  12  16
ENDBRANCH  11  12
ENDBRANCH   1  11
TORSDOF 9
ENDMDL
MODEL 5
REMARK VINA RESULT:      -3.9      5.468      6.443
REMARK  Name = 
REMARK  9 active torsions:
REMARK  status: ('A' for Active; 'I' for Inactive)
REMARK    1  A    between atoms: N_1  and  C_2
REMARK    2  A    between atoms: C_2  and  C_3
REMARK    3  A    between atoms: C_3  and  C_4
REMARK    4  A    between atoms: N_6  and  C_7
REMARK    5  A    between atoms: C_7  and  C_8
REMARK    6  A    between atoms: C_8  and  CA_9
REMARK    7  A    between atoms: CA_9  and  N_11
REMARK    8  A    between atoms: CA_9  and  C_12
REMARK    9  A    between atoms: C_12  and  O_13
REMARK                            x       y       z     vdW  Elec       q    Type
REMARK                         _______ _______ _______ _____ _____    ______ ____
ROOT
ATOM      1  C   UNL     1       6.766  -4.111  24.488  0.00  0.00    +0.106 C 
ENDROOT
BRANCH   1   3
ATOM      2  C   UNL     1       5.972  -5.891  26.004  0.00  0.00    +0.214 C 
ATOM      3  N   UNL     1       5.756  -5.043  24.939  0.00  0.00    -0.315 N 
ATOM      4  H   UNL     1       4.822  -4.994  24.536  0.00  0.00    +0.149 HD
ATOM      5  O   UNL     1       7.043  -5.949  26.602  0.00  0.00    -0.276 OA
BRANCH   2   6
ATOM      6  C   UNL     1       4.779  -6.753  26.366  0.00  0.00    +0.110 C 
BRANCH   6   7
ATOM      7  C   UNL     1       3.773  -6.764  25.215  0.00  0.00    +0.087 C 
BRANCH   7   8
ATOM      8  N   UNL     1       4.272  -7.547  24.086  0.00  0.00    -0.330 NA
ATOM      9  H   UNL     1       4.480  -8.494  24.395  0.00  0.00    +0.118 HD
ATOM     10  H   UNL     1       3.524  -7.636  23.397  0.00  0.00    +0.118 HD
ENDBRANCH   7   8
ENDBRANCH   6   7
ENDBRANCH   2   6
ENDBRANCH   1   3
BRANCH   1  11
ATOM     11  C   UNL     1       7.387  -4.484  23.139  0.00  0.00    +0.048 C 
BRANCH  11  12
ATOM     12  CA  UNL     1       6.521  -4.272  21.890  0.00  0.00    +0.162 C 
BRANCH  12  13
ATOM     13  N   UNL     1       5.261  -3.525  22.152  0.00  0.00    -0.318 NA
ATOM     14  H1  UNL     1       4.498  -3.979  21.643  0.00  0.00    +0.119 HD
ATOM     15  H2  UNL     1       5.013  -3.647  23.139  0.00  0.00    +0.119 HD
ENDBRANCH  12  13
BRANCH  12  16
ATOM     16  C   UNL     1       6.187  -5.613  21.217  0.00  0.00    +0.322 C 
ATOM     17  OXT UNL     1       5.965  -5.761  20.026  0.00  0.00    -0.249 OA
BRANCH  16  18
ATOM     18  O   UNL     1       6.207  -6.640  22.106  0.00  0.00    -0.480 OA
ATOM     19  H   UNL     1       5.776  -6.298  22.931  0.00  0.00    +0.295 HD
ENDBRANCH  16  18
ENDBRANCH  12  16
ENDBRANCH  11  12
ENDBRANCH   1  11
TORSDOF 9
ENDMDL
MODEL 6
REMARK VINA RESULT:      -3.9      2.301      2.957
REMARK  Name = 
REMARK  9 active torsions:
REMARK  status: ('A' for Active; 'I' for Inactive)
REMARK    1  A    between atoms: N_1  and  C_2
REMARK    2  A    between atoms: C_2  and  C_3
REMARK    3  A    between atoms: C_3  and  C_4
REMARK    4  A    between atoms: N_6  and  C_7
REMARK    5  A    between atoms: C_7  and  C_8
REMARK    6  A    between atoms: C_8  and  CA_9
REMARK    7  A    between atoms: CA_9  and  N_11
REMARK    8  A    between atoms: CA_9  and  C_12
REMARK    9  A    between atoms: C_12  and  O_13
REMARK                            x       y       z     vdW  Elec       q    Type
REMARK                         _______ _______ _______ _____ _____    ______ ____
ROOT
ATOM      1  C   UNL     1       8.362  -2.023  23.600  0.00  0.00    +0.106 C 
ENDROOT
BRANCH   1   3
ATOM      2  C   UNL     1       7.273  -4.225  23.350  0.00  0.00    +0.214 C 
ATOM      3  N   UNL     1       8.193  -3.290  22.923  0.00  0.00    -0.315 N 
ATOM      4  H   UNL     1       8.682  -3.452  22.045  0.00  0.00    +0.149 HD
ATOM      5  O   UNL     1       6.580  -4.068  24.351  0.00  0.00    -0.276 OA
BRANCH   2   6
ATOM      6  C   UNL     1       7.200  -5.466  22.483  0.00  0.00    +0.110 C 
BRANCH   6   7
ATOM      7  C   UNL     1       6.320  -5.201  21.262  0.00  0.00    +0.087 C 
BRANCH   7   8
ATOM      8  N   UNL     1       5.580  -3.948  21.408  0.00  0.00    -0.330 NA
ATOM      9  H   UNL     1       4.604  -4.152  21.611  0.00  0.00    +0.118 HD
ATOM     10  H   UNL     1       5.938  -3.453  22.226  0.00  0.00    +0.118 HD
ENDBRANCH   7   8
ENDBRANCH   6   7
ENDBRANCH   2   6
ENDBRANCH   1   3
BRANCH   1  11
ATOM     11  C   UNL     1       8.076  -0.809  22.711  0.00  0.00    +0.048 C 
BRANCH  11  12
ATOM     12  CA  UNL     1       9.192  -0.367  21.755  0.00  0.00    +0.162 C 
BRANCH  12  13
ATOM     13  N   UNL     1      10.216  -1.416  21.500  0.00  0.00    -0.318 NA
ATOM     14  H1  UNL     1      10.881  -1.064  20.807  0.00  0.00    +0.119 HD
ATOM     15  H2  UNL     1      10.776  -1.535  22.351  0.00  0.00    +0.119 HD
ENDBRANCH  12  13
BRANCH  12  16
ATOM     16  C   UNL     1       9.885   0.906  22.268  0.00  0.00    +0.322 C 
ATOM     17  OXT UNL     1      10.491   0.994  23.325  0.00  0.00    -0.249 OA
BRANCH  16  18
ATOM     18  O   UNL     1       9.779   1.928  21.380  0.00  0.00    -0.480 OA
ATOM     19  H   UNL     1       9.186   2.600  21.804  0.00  0.00    +0.295 HD
ENDBRANCH  16  18
ENDBRANCH  12  16
ENDBRANCH  11  12
ENDBRANCH   1  11
TORSDOF 9
ENDMDL
MODEL 7
REMARK VINA RESULT:      -3.9      4.096      5.783
REMARK  Name = 
REMARK  9 active torsions:
REMARK  status: ('A' for Active; 'I' for Inactive)
REMARK    1  A    between atoms: N_1  and  C_2
REMARK    2  A    between atoms: C_2  and  C_3
REMARK    3  A    between atoms: C_3  and  C_4
REMARK    4  A    between atoms: N_6  and  C_7
REMARK    5  A    between atoms: C_7  and  C_8
REMARK    6  A    between atoms: C_8  and  CA_9
REMARK    7  A    between atoms: CA_9  and  N_11
REMARK    8  A    between atoms: CA_9  and  C_12
REMARK    9  A    between atoms: C_12  and  O_13
REMARK                            x       y       z     vdW  Elec       q    Type
REMARK                         _______ _______ _______ _____ _____    ______ ____
ROOT
ATOM      1  C   UNL     1       9.275  -3.161  24.177  0.00  0.00    +0.106 C 
ENDROOT
BRANCH   1   3
ATOM      2  C   UNL     1       7.538  -4.202  22.764  0.00  0.00    +0.214 C 
ATOM      3  N   UNL     1       8.137  -3.075  23.289  0.00  0.00    -0.315 N 
ATOM      4  H   UNL     1       7.694  -2.172  23.138  0.00  0.00    +0.149 HD
ATOM      5  O   UNL     1       7.958  -5.336  22.970  0.00  0.00    -0.276 OA
BRANCH   2   6
ATOM      6  C   UNL     1       6.325  -3.916  21.901  0.00  0.00    +0.110 C 
BRANCH   6   7
ATOM      7  C   UNL     1       5.071  -3.839  22.771  0.00  0.00    +0.087 C 
BRANCH   7   8
ATOM      8  N   UNL     1       5.388  -4.086  24.177  0.00  0.00    -0.330 NA
ATOM      9  H   UNL     1       5.923  -4.948  24.258  0.00  0.00    +0.118 HD
ATOM     10  H   UNL     1       6.006  -3.342  24.506  0.00  0.00    +0.118 HD
ENDBRANCH   7   8
ENDBRANCH   6   7
ENDBRANCH   2   6
ENDBRANCH   1   3
BRANCH   1  11
ATOM     11  C   UNL     1       8.894  -3.320  25.651  0.00  0.00    +0.048 C 
BRANCH  11  12
ATOM     12  CA  UNL     1       9.109  -4.702  26.283  0.00  0.00    +0.162 C 
BRANCH  12  13
ATOM     13  N   UNL     1       9.803  -5.669  25.390  0.00  0.00    -0.318 NA
ATOM     14  H1  UNL     1       9.198  -5.870  24.590  0.00  0.00    +0.119 HD
ATOM     15  H2  UNL     1      10.618  -5.201  24.980  0.00  0.00    +0.119 HD
ENDBRANCH  12  13
BRANCH  12  16
ATOM     16  C   UNL     1       7.776  -5.307  26.751  0.00  0.00    +0.322 C 
ATOM     17  OXT UNL     1       7.333  -5.226  27.886  0.00  0.00    -0.249 OA
BRANCH  16  18
ATOM     18  O   UNL     1       7.116  -5.917  25.732  0.00  0.00    -0.480 OA
ATOM     19  H   UNL     1       7.340  -6.880  25.798  0.00  0.00    +0.295 HD
ENDBRANCH  16  18
ENDBRANCH  12  16
ENDBRANCH  11  12
ENDBRANCH   1  11
TORSDOF 9
ENDMDL
MODEL 8
REMARK VINA RESULT:      -3.9      2.340      5.335
REMARK  Name = 
REMARK  9 active torsions:
REMARK  status: ('A' for Active; 'I' for Inactive)
REMARK    1  A    between atoms: N_1  and  C_2
REMARK    2  A    between atoms: C_2  and  C_3
REMARK    3  A    between atoms: C_3  and  C_4
REMARK    4  A    between atoms: N_6  and  C_7
REMARK    5  A    between atoms: C_7  and  C_8
REMARK    6  A    between atoms: C_8  and  CA_9
REMARK    7  A    between atoms: CA_9  and  N_11
REMARK    8  A    between atoms: CA_9  and  C_12
REMARK    9  A    between atoms: C_12  and  O_13
REMARK                            x       y       z     vdW  Elec       q    Type
REMARK                         _______ _______ _______ _____ _____    ______ ____
ROOT
ATOM      1  C   UNL     1       7.860  -3.070  22.572  0.00  0.00    +0.106 C 
ENDROOT
BRANCH   1   3
ATOM      2  C   UNL     1       9.309  -1.094  22.259  0.00  0.00    +0.214 C 
ATOM      3  N   UNL     1       8.118  -1.650  22.677  0.00  0.00    -0.315 N 
ATOM      4  H   UNL     1       7.363  -1.030  22.960  0.00  0.00    +0.149 HD
ATOM      5  O   UNL     1      10.239  -1.766  21.823  0.00  0.00    -0.276 OA
BRANCH   2   6
ATOM      6  C   UNL     1       9.373   0.414  22.396  0.00  0.00    +0.110 C 
BRANCH   6   7
ATOM      7  C   UNL     1      10.198   0.793  23.625  0.00  0.00    +0.087 C 
BRANCH   7   8
ATOM      8  N   UNL     1      10.253  -0.308  24.585  0.00  0.00    -0.330 NA
ATOM      9  H   UNL     1      10.293  -1.193  24.084  0.00  0.00    +0.118 HD
ATOM     10  H   UNL     1      11.129  -0.242  25.105  0.00  0.00    +0.118 HD
ENDBRANCH   7   8
ENDBRANCH   6   7
ENDBRANCH   2   6
ENDBRANCH   1   3
BRANCH   1  11
ATOM     11  C   UNL     1       7.594  -3.748  23.919  0.00  0.00    +0.048 C 
BRANCH  11  12
ATOM     12  CA  UNL     1       8.774  -3.847  24.895  0.00  0.00    +0.162 C 
BRANCH  12  13
ATOM     13  N   UNL     1      10.091  -3.523  24.281  0.00  0.00    -0.318 NA
ATOM     14  H1  UNL     1      10.176  -4.035  23.400  0.00  0.00    +0.119 HD
ATOM     15  H2  UNL     1      10.082  -2.537  24.002  0.00  0.00    +0.119 HD
ENDBRANCH  12  13
BRANCH  12  16
ATOM     16  C   UNL     1       8.841  -5.240  25.539  0.00  0.00    +0.322 C 
ATOM     17  OXT UNL     1       7.950  -5.746  26.203  0.00  0.00    -0.249 OA
BRANCH  16  18
ATOM     18  O   UNL     1      10.007  -5.873  25.246  0.00  0.00    -0.480 OA
ATOM     19  H   UNL     1       9.781  -6.834  25.150  0.00  0.00    +0.295 HD
ENDBRANCH  16  18
ENDBRANCH  12  16
ENDBRANCH  11  12
ENDBRANCH   1  11
TORSDOF 9
ENDMDL
MODEL 9
REMARK VINA RESULT:      -3.8      1.935      4.105
REMARK  Name = 
REMARK  9 active torsions:
REMARK  status: ('A' for Active; 'I' for Inactive)
REMARK    1  A    between atoms: N_1  and  C_2
REMARK    2  A    between atoms: C_2  and  C_3
REMARK    3  A    between atoms: C_3  and  C_4
REMARK    4  A    between atoms: N_6  and  C_7
REMARK    5  A    between atoms: C_7  and  C_8
REMARK    6  A    between atoms: C_8  and  CA_9
REMARK    7  A    between atoms: CA_9  and  N_11
REMARK    8  A    between atoms: CA_9  and  C_12
REMARK    9  A    between atoms: C_12  and  O_13
REMARK                            x       y       z     vdW  Elec       q    Type
REMARK                         _______ _______ _______ _____ _____    ______ ____
ROOT
ATOM      1  C   UNL     1       9.969  -0.350  24.928  0.00  0.00    +0.106 C 
ENDROOT
BRANCH   1   3
ATOM      2  C   UNL     1       9.678   1.809  23.765  0.00  0.00    +0.214 C 
ATOM      3  N   UNL     1       9.137   0.678  24.342  0.00  0.00    -0.315 N 
ATOM      4  H   UNL     1       8.138   0.513  24.249  0.00  0.00    +0.149 HD
ATOM      5  O   UNL     1      10.883   2.040  23.756  0.00  0.00    -0.276 OA
BRANCH   2   6
ATOM      6  C   UNL     1       8.654   2.744  23.153  0.00  0.00    +0.110 C 
BRANCH   6   7
ATOM      7  C   UNL     1       8.215   2.218  21.787  0.00  0.00    +0.087 C 
BRANCH   7   8
ATOM      8  N   UNL     1       9.132   1.190  21.298  0.00  0.00    -0.330 NA
ATOM      9  H   UNL     1       8.972   0.323  21.805  0.00  0.00    +0.118 HD
ATOM     10  H   UNL     1       8.905   0.989  20.323  0.00  0.00    +0.118 HD
ENDBRANCH   7   8
ENDBRANCH   6   7
ENDBRANCH   2   6
ENDBRANCH   1   3
BRANCH   1  11
ATOM     11  C   UNL     1       9.445  -1.770  24.696  0.00  0.00    +0.048 C 
BRANCH  11  12
ATOM     12  CA  UNL     1       9.534  -2.321  23.267  0.00  0.00    +0.162 C 
BRANCH  12  13
ATOM     13  N   UNL     1      10.451  -1.552  22.382  0.00  0.00    -0.318 NA
ATOM     14  H1  UNL     1      11.103  -2.204  21.940  0.00  0.00    +0.119 HD
ATOM     15  H2  UNL     1       9.903  -1.174  21.602  0.00  0.00    +0.119 HD
ENDBRANCH  12  13
BRANCH  12  16
ATOM     16  C   UNL     1       8.143  -2.397  22.618  0.00  0.00    +0.322 C 
ATOM     17  OXT UNL     1       7.608  -3.424  22.232  0.00  0.00    -0.249 OA
BRANCH  16  18
ATOM     18  O   UNL     1       7.550  -1.176  22.558  0.00  0.00    -0.480 OA
ATOM     19  H   UNL     1       6.985  -1.186  21.744  0.00  0.00    +0.295 HD
ENDBRANCH  16  18
ENDBRANCH  12  16
ENDBRANCH  11  12
ENDBRANCH   1  11
TORSDOF 9
ENDMDL
