MODEL 1
REMARK VINA RESULT:      -7.1      0.000      0.000
REMARK  Name = 
REMARK  16 active torsions:
REMARK  status: ('A' for Active; 'I' for Inactive)
REMARK    1  A    between atoms: C_2  and  C_4
REMARK    2  A    between atoms: N_8  and  C_10
REMARK    3  A    between atoms: C_13  and  C_15
REMARK    4  A    between atoms: C_15  and  O_16
REMARK    5  A    between atoms: O_16  and  P_17
REMARK    6  A    between atoms: P_17  and  O_20
REMARK    7  A    between atoms: O_20  and  P_21
REMARK    8  A    between atoms: P_21  and  O_22
REMARK    9  A    between atoms: P_21  and  O_24
REMARK   10  A    between atoms: O_24  and  C_25
REMARK   11  A    between atoms: C_25  and  C_26
REMARK   12  A    between atoms: C_29  and  N_37
REMARK   13  A    between atoms: C_31  and  O_33
REMARK   14  A    between atoms: C_34  and  O_36
REMARK   15  A    between atoms: C_47  and  O_49
REMARK   16  A    between atoms: C_50  and  O_52
REMARK                            x       y       z     vdW  Elec       q    Type
REMARK                         _______ _______ _______ _____ _____    ______ ____
ROOT
ATOM      1  P   UNL     1       4.531  -2.448  25.822  0.00  0.00    +0.480 P 
ATOM      2  O   UNL     1       3.009  -2.497  26.002  0.00  0.00    -0.227 OA
ENDROOT
BRANCH   1   3
ATOM      3  O   UNL     1       4.599  -2.414  24.175  0.00  0.00    -0.302 OA
ATOM      4  H   UNL     1       5.476  -2.014  24.012  0.00  0.00    +0.222 HD
ENDBRANCH   1   3
BRANCH   1   5
ATOM      5  O   UNL     1       4.413  -0.725  25.906  0.00  0.00    -0.284 OA
BRANCH   5   6
ATOM      6  C   UNL     1       4.389  -0.204  27.237  0.00  0.00    +0.206 C 
BRANCH   6   7
ATOM      7  C   UNL     1       4.625   1.307  27.225  0.00  0.00    +0.178 C 
ATOM      8  C   UNL     1       5.315   1.787  28.504  0.00  0.00    +0.178 C 
ATOM      9  C   UNL     1       6.797   1.934  28.134  0.00  0.00    +0.195 C 
ATOM     10  C   UNL     1       6.866   1.504  26.665  0.00  0.00    +0.253 C 
ATOM     11  O   UNL     1       5.529   1.669  26.161  0.00  0.00    -0.346 OA
BRANCH  10  12
ATOM     12  N   UNL     1       7.774   2.262  25.828  0.00  0.00    -0.286 N 
ATOM     13  C   UNL     1       8.939   1.813  25.261  0.00  0.00    +0.167 A 
ATOM     14  N   UNL     1       9.521   0.607  25.397  0.00  0.00    -0.216 NA
ATOM     15  C   UNL     1      10.678   0.558  24.697  0.00  0.00    +0.225 A 
ATOM     16  N   UNL     1      11.240   1.514  23.927  0.00  0.00    -0.219 NA
ATOM     17  C   UNL     1      10.613   2.707  23.828  0.00  0.00    +0.147 A 
ATOM     18  N   UNL     1      11.183   3.694  23.032  0.00  0.00    -0.341 N 
ATOM     19  H   UNL     1      10.515   4.403  22.743  0.00  0.00    +0.144 HD
ATOM     20  H   UNL     1      11.791   3.306  22.324  0.00  0.00    +0.144 HD
ATOM     21  C   UNL     1       9.401   2.885  24.512  0.00  0.00    +0.147 A 
ATOM     22  N   UNL     1       8.526   3.947  24.575  0.00  0.00    -0.231 NA
ATOM     23  C   UNL     1       7.554   3.533  25.360  0.00  0.00    +0.203 A 
ENDBRANCH  10  12
BRANCH   9  24
ATOM     24  O   UNL     1       7.622   1.106  28.958  0.00  0.00    -0.385 OA
ATOM     25  H   UNL     1       7.859   1.655  29.736  0.00  0.00    +0.210 HD
ENDBRANCH   9  24
BRANCH   8  26
ATOM     26  O   UNL     1       4.792   3.071  28.880  0.00  0.00    -0.386 OA
ATOM     27  H   UNL     1       3.878   2.945  29.195  0.00  0.00    +0.210 HD
ENDBRANCH   8  26
ENDBRANCH   6   7
ENDBRANCH   5   6
ENDBRANCH   1   5
BRANCH   1  28
ATOM     28  O   UNL     1       4.649  -4.173  25.738  0.00  0.00    -0.229 OA
BRANCH  28  29
ATOM     29  P   UNL     1       5.546  -4.846  26.899  0.00  0.00    +0.222 P 
ATOM     30  O   UNL     1       6.341  -3.764  27.579  0.00  0.00    -0.437 OA
ATOM     31  O   UNL     1       4.759  -5.900  27.639  0.00  0.00    -0.517 OA
BRANCH  29  32
ATOM     32  O   UNL     1       6.609  -5.695  25.991  0.00  0.00    -0.327 OA
BRANCH  32  33
ATOM     33  C   UNL     1       6.554  -5.437  24.593  0.00  0.00    +0.174 C 
BRANCH  33  37
ATOM     34  C   UNL     1       7.810  -2.737  23.758  0.00  0.00    +0.298 C 
ATOM     35  C   UNL     1       8.843  -3.021  24.867  0.00  0.00    +0.212 C 
ATOM     36  C   UNL     1       8.908  -4.552  25.020  0.00  0.00    +0.155 C 
ATOM     37  C   UNL     1       7.938  -5.121  23.987  0.00  0.00    +0.053 C 
ATOM     38  C   UNL     1       7.860  -4.015  22.933  0.00  0.00    +0.087 C 
BRANCH  34  41
ATOM     39  C   UNL     1       7.567   0.715  22.244  0.00  0.00    +0.100 A 
ATOM     40  C   UNL     1       7.284  -0.445  22.964  0.00  0.00    +0.322 A 
ATOM     41  N   UNL     1       8.136  -1.506  22.955  0.00  0.00    -0.198 N 
ATOM     42  C   UNL     1       9.223  -1.480  22.140  0.00  0.00    +0.309 A 
ATOM     43  C   UNL     1       9.523  -0.354  21.379  0.00  0.00    +0.071 A 
ATOM     44  C   UNL     1       8.700   0.763  21.439  0.00  0.00    +0.025 A 
BRANCH  39  48
ATOM     45  N   UNL     1       5.520   1.652  23.156  0.00  0.00    -0.325 N 
ATOM     46  H   UNL     1       5.218   0.760  23.521  0.00  0.00    +0.145 HD
ATOM     47  H   UNL     1       4.833   2.400  23.170  0.00  0.00    +0.145 HD
ATOM     48  C   UNL     1       6.614   1.835  22.364  0.00  0.00    +0.247 C 
ATOM     49  O   UNL     1       6.788   2.868  21.729  0.00  0.00    -0.270 OA
ENDBRANCH  39  48
ENDBRANCH  34  41
BRANCH  36  50
ATOM     50  O   UNL     1      10.262  -4.911  24.729  0.00  0.00    -0.389 OA
ATOM     51  H   UNL     1      10.279  -5.753  24.232  0.00  0.00    +0.210 HD
ENDBRANCH  36  50
BRANCH  35  52
ATOM     52  O   UNL     1       8.462  -2.389  26.087  0.00  0.00    -0.383 OA
ATOM     53  H   UNL     1       9.124  -2.644  26.762  0.00  0.00    +0.210 HD
ENDBRANCH  35  52
ENDBRANCH  33  37
ENDBRANCH  32  33
ENDBRANCH  29  32
ENDBRANCH  28  29
ENDBRANCH   1  28
TORSDOF 16
ENDMDL
MODEL 2
REMARK VINA RESULT:      -7.0      1.807      2.732
REMARK  Name = 
REMARK  16 active torsions:
REMARK  status: ('A' for Active; 'I' for Inactive)
REMARK    1  A    between atoms: C_2  and  C_4
REMARK    2  A    between atoms: N_8  and  C_10
REMARK    3  A    between atoms: C_13  and  C_15
REMARK    4  A    between atoms: C_15  and  O_16
REMARK    5  A    between atoms: O_16  and  P_17
REMARK    6  A    between atoms: P_17  and  O_20
REMARK    7  A    between atoms: O_20  and  P_21
REMARK    8  A    between atoms: P_21  and  O_22
REMARK    9  A    between atoms: P_21  and  O_24
REMARK   10  A    between atoms: O_24  and  C_25
REMARK   11  A    between atoms: C_25  and  C_26
REMARK   12  A    between atoms: C_29  and  N_37
REMARK   13  A    between atoms: C_31  and  O_33
REMARK   14  A    between atoms: C_34  and  O_36
REMARK   15  A    between atoms: C_47  and  O_49
REMARK   16  A    between atoms: C_50  and  O_52
REMARK                            x       y       z     vdW  Elec       q    Type
REMARK                         _______ _______ _______ _____ _____    ______ ____
ROOT
ATOM      1  P   UNL     1       4.189  -3.301  25.235  0.00  0.00    +0.480 P 
ATOM      2  O   UNL     1       4.729  -3.331  26.670  0.00  0.00    -0.227 OA
ENDROOT
BRANCH   1   3
ATOM      3  O   UNL     1       2.662  -2.762  25.540  0.00  0.00    -0.302 OA
ATOM      4  H   UNL     1       2.486  -3.130  26.430  0.00  0.00    +0.222 HD
ENDBRANCH   1   3
BRANCH   1   5
ATOM      5  O   UNL     1       4.794  -1.684  25.118  0.00  0.00    -0.284 OA
BRANCH   5   6
ATOM      6  C   UNL     1       5.091  -1.078  26.379  0.00  0.00    +0.206 C 
BRANCH   6   7
ATOM      7  C   UNL     1       4.504   0.332  26.445  0.00  0.00    +0.178 C 
ATOM      8  C   UNL     1       5.207   1.194  27.496  0.00  0.00    +0.178 C 
ATOM      9  C   UNL     1       6.205   2.056  26.712  0.00  0.00    +0.195 C 
ATOM     10  C   UNL     1       6.027   1.613  25.256  0.00  0.00    +0.253 C 
ATOM     11  O   UNL     1       4.715   1.027  25.198  0.00  0.00    -0.346 OA
BRANCH  10  12
ATOM     12  N   UNL     1       6.110   2.664  24.262  0.00  0.00    -0.286 N 
ATOM     13  C   UNL     1       7.123   3.574  24.109  0.00  0.00    +0.167 A 
ATOM     14  N   UNL     1       8.224   3.732  24.867  0.00  0.00    -0.216 NA
ATOM     15  C   UNL     1       8.975   4.758  24.406  0.00  0.00    +0.225 A 
ATOM     16  N   UNL     1       8.752   5.554  23.338  0.00  0.00    -0.219 NA
ATOM     17  C   UNL     1       7.630   5.353  22.613  0.00  0.00    +0.147 A 
ATOM     18  N   UNL     1       7.396   6.165  21.508  0.00  0.00    -0.341 N 
ATOM     19  H   UNL     1       6.747   5.752  20.845  0.00  0.00    +0.144 HD
ATOM     20  H   UNL     1       8.251   6.561  21.142  0.00  0.00    +0.144 HD
ATOM     21  C   UNL     1       6.764   4.316  22.993  0.00  0.00    +0.147 A 
ATOM     22  N   UNL     1       5.589   3.849  22.445  0.00  0.00    -0.231 NA
ATOM     23  C   UNL     1       5.233   2.848  23.222  0.00  0.00    +0.203 A 
ENDBRANCH  10  12
BRANCH   9  24
ATOM     24  O   UNL     1       7.545   1.835  27.162  0.00  0.00    -0.385 OA
ATOM     25  H   UNL     1       8.020   2.680  27.008  0.00  0.00    +0.210 HD
ENDBRANCH   9  24
BRANCH   8  26
ATOM     26  O   UNL     1       4.247   2.049  28.138  0.00  0.00    -0.386 OA
ATOM     27  H   UNL     1       4.345   1.944  29.102  0.00  0.00    +0.210 HD
ENDBRANCH   8  26
ENDBRANCH   6   7
ENDBRANCH   5   6
ENDBRANCH   1   5
BRANCH   1  28
ATOM     28  O   UNL     1       3.585  -4.918  25.350  0.00  0.00    -0.229 OA
BRANCH  28  29
ATOM     29  P   UNL     1       4.087  -5.913  24.182  0.00  0.00    +0.222 P 
ATOM     30  O   UNL     1       3.872  -7.331  24.635  0.00  0.00    -0.437 OA
ATOM     31  O   UNL     1       3.676  -5.395  22.826  0.00  0.00    -0.517 OA
BRANCH  29  32
ATOM     32  O   UNL     1       5.700  -5.650  24.247  0.00  0.00    -0.327 OA
BRANCH  32  33
ATOM     33  C   UNL     1       6.285  -5.174  23.042  0.00  0.00    +0.174 C 
BRANCH  33  37
ATOM     34  C   UNL     1       7.933  -2.788  24.117  0.00  0.00    +0.298 C 
ATOM     35  C   UNL     1       8.416  -3.774  25.199  0.00  0.00    +0.212 C 
ATOM     36  C   UNL     1       8.321  -5.181  24.579  0.00  0.00    +0.155 C 
ATOM     37  C   UNL     1       7.812  -4.980  23.154  0.00  0.00    +0.053 C 
ATOM     38  C   UNL     1       8.232  -3.544  22.831  0.00  0.00    +0.087 C 
BRANCH  34  41
ATOM     39  C   UNL     1       9.224   0.629  23.155  0.00  0.00    +0.100 A 
ATOM     40  C   UNL     1       8.604  -0.619  23.113  0.00  0.00    +0.322 A 
ATOM     41  N   UNL     1       8.628  -1.454  24.188  0.00  0.00    -0.198 N 
ATOM     42  C   UNL     1       9.363  -1.114  25.279  0.00  0.00    +0.309 A 
ATOM     43  C   UNL     1      10.026   0.108  25.347  0.00  0.00    +0.071 A 
ATOM     44  C   UNL     1       9.946   0.999  24.285  0.00  0.00    +0.025 A 
BRANCH  39  48
ATOM     45  N   UNL     1      10.146   2.296  21.647  0.00  0.00    -0.325 N 
ATOM     46  H   UNL     1      10.928   2.484  22.257  0.00  0.00    +0.145 HD
ATOM     47  H   UNL     1      10.015   2.937  20.871  0.00  0.00    +0.145 HD
ATOM     48  C   UNL     1       9.093   1.489  21.963  0.00  0.00    +0.247 C 
ATOM     49  O   UNL     1       8.051   1.502  21.319  0.00  0.00    -0.270 OA
ENDBRANCH  39  48
ENDBRANCH  34  41
BRANCH  36  50
ATOM     50  O   UNL     1       9.654  -5.701  24.599  0.00  0.00    -0.389 OA
ATOM     51  H   UNL     1       9.678  -6.559  24.131  0.00  0.00    +0.210 HD
ENDBRANCH  36  50
BRANCH  35  52
ATOM     52  O   UNL     1       7.617  -3.665  26.375  0.00  0.00    -0.383 OA
ATOM     53  H   UNL     1       7.131  -2.818  26.316  0.00  0.00    +0.210 HD
ENDBRANCH  35  52
ENDBRANCH  33  37
ENDBRANCH  32  33
ENDBRANCH  29  32
ENDBRANCH  28  29
ENDBRANCH   1  28
TORSDOF 16
ENDMDL
MODEL 3
REMARK VINA RESULT:      -7.0      2.959      6.946
REMARK  Name = 
REMARK  16 active torsions:
REMARK  status: ('A' for Active; 'I' for Inactive)
REMARK    1  A    between atoms: C_2  and  C_4
REMARK    2  A    between atoms: N_8  and  C_10
REMARK    3  A    between atoms: C_13  and  C_15
REMARK    4  A    between atoms: C_15  and  O_16
REMARK    5  A    between atoms: O_16  and  P_17
REMARK    6  A    between atoms: P_17  and  O_20
REMARK    7  A    between atoms: O_20  and  P_21
REMARK    8  A    between atoms: P_21  and  O_22
REMARK    9  A    between atoms: P_21  and  O_24
REMARK   10  A    between atoms: O_24  and  C_25
REMARK   11  A    between atoms: C_25  and  C_26
REMARK   12  A    between atoms: C_29  and  N_37
REMARK   13  A    between atoms: C_31  and  O_33
REMARK   14  A    between atoms: C_34  and  O_36
REMARK   15  A    between atoms: C_47  and  O_49
REMARK   16  A    between atoms: C_50  and  O_52
REMARK                            x       y       z     vdW  Elec       q    Type
REMARK                         _______ _______ _______ _____ _____    ______ ____
ROOT
ATOM      1  P   UNL     1       4.628   3.493  23.742  0.00  0.00    +0.480 P 
ATOM      2  O   UNL     1       4.631   4.691  22.785  0.00  0.00    -0.227 OA
ENDROOT
BRANCH   1   3
ATOM      3  O   UNL     1       3.396   2.626  23.073  0.00  0.00    -0.302 OA
ATOM      4  H   UNL     1       3.774   2.357  22.212  0.00  0.00    +0.222 HD
ENDBRANCH   1   3
BRANCH   1   5
ATOM      5  O   UNL     1       5.790   2.749  22.698  0.00  0.00    -0.284 OA
BRANCH   5   6
ATOM      6  C   UNL     1       7.148   2.952  23.094  0.00  0.00    +0.206 C 
BRANCH   6   7
ATOM      7  C   UNL     1       8.085   2.078  22.259  0.00  0.00    +0.178 C 
ATOM      8  C   UNL     1       9.545   2.231  22.693  0.00  0.00    +0.178 C 
ATOM      9  C   UNL     1       9.829   1.019  23.590  0.00  0.00    +0.195 C 
ATOM     10  C   UNL     1       8.501   0.257  23.632  0.00  0.00    +0.253 C 
ATOM     11  O   UNL     1       7.786   0.681  22.459  0.00  0.00    -0.346 OA
BRANCH  10  12
ATOM     12  N   UNL     1       8.600  -1.188  23.618  0.00  0.00    -0.286 N 
ATOM     13  C   UNL     1       7.600  -2.079  23.328  0.00  0.00    +0.167 A 
ATOM     14  N   UNL     1       6.309  -1.821  23.051  0.00  0.00    -0.216 NA
ATOM     15  C   UNL     1       5.629  -2.973  22.842  0.00  0.00    +0.225 A 
ATOM     16  N   UNL     1       6.091  -4.242  22.864  0.00  0.00    -0.219 NA
ATOM     17  C   UNL     1       7.396  -4.443  23.150  0.00  0.00    +0.147 A 
ATOM     18  N   UNL     1       7.881  -5.746  23.169  0.00  0.00    -0.341 N 
ATOM     19  H   UNL     1       8.889  -5.794  23.054  0.00  0.00    +0.144 HD
ATOM     20  H   UNL     1       7.315  -6.368  22.609  0.00  0.00    +0.144 HD
ATOM     21  C   UNL     1       8.210  -3.324  23.390  0.00  0.00    +0.147 A 
ATOM     22  N   UNL     1       9.555  -3.204  23.662  0.00  0.00    -0.231 NA
ATOM     23  C   UNL     1       9.757  -1.909  23.778  0.00  0.00    +0.203 A 
ENDBRANCH  10  12
BRANCH   9  24
ATOM     24  O   UNL     1      10.237   1.427  24.899  0.00  0.00    -0.385 OA
ATOM     25  H   UNL     1       9.422   1.425  25.444  0.00  0.00    +0.210 HD
ENDBRANCH   9  24
BRANCH   8  26
ATOM     26  O   UNL     1      10.398   2.175  21.539  0.00  0.00    -0.386 OA
ATOM     27  H   UNL     1      10.134   2.891  20.933  0.00  0.00    +0.210 HD
ENDBRANCH   8  26
ENDBRANCH   6   7
ENDBRANCH   5   6
ENDBRANCH   1   5
BRANCH   1  28
ATOM     28  O   UNL     1       3.467   4.238  24.787  0.00  0.00    -0.229 OA
BRANCH  28  29
ATOM     29  P   UNL     1       2.991   3.324  26.029  0.00  0.00    +0.222 P 
ATOM     30  O   UNL     1       1.991   4.102  26.841  0.00  0.00    -0.437 OA
ATOM     31  O   UNL     1       2.786   1.894  25.594  0.00  0.00    -0.517 OA
BRANCH  29  32
ATOM     32  O   UNL     1       4.369   3.288  26.910  0.00  0.00    -0.327 OA
BRANCH  32  33
ATOM     33  C   UNL     1       4.418   2.284  27.917  0.00  0.00    +0.174 C 
BRANCH  33  37
ATOM     34  C   UNL     1       5.011  -0.527  26.770  0.00  0.00    +0.298 C 
ATOM     35  C   UNL     1       5.956   0.209  25.798  0.00  0.00    +0.212 C 
ATOM     36  C   UNL     1       6.400   1.498  26.516  0.00  0.00    +0.155 C 
ATOM     37  C   UNL     1       5.729   1.470  27.887  0.00  0.00    +0.053 C 
ATOM     38  C   UNL     1       5.482  -0.021  28.126  0.00  0.00    +0.087 C 
BRANCH  34  41
ATOM     39  C   UNL     1       6.398  -4.039  26.658  0.00  0.00    +0.100 A 
ATOM     40  C   UNL     1       6.295  -2.651  26.755  0.00  0.00    +0.322 A 
ATOM     41  N   UNL     1       5.091  -2.025  26.642  0.00  0.00    -0.198 N 
ATOM     42  C   UNL     1       3.990  -2.751  26.316  0.00  0.00    +0.309 A 
ATOM     43  C   UNL     1       4.057  -4.135  26.176  0.00  0.00    +0.071 A 
ATOM     44  C   UNL     1       5.267  -4.792  26.364  0.00  0.00    +0.025 A 
BRANCH  39  48
ATOM     45  N   UNL     1       7.810  -5.985  27.003  0.00  0.00    -0.325 N 
ATOM     46  H   UNL     1       7.018  -6.589  27.168  0.00  0.00    +0.145 HD
ATOM     47  H   UNL     1       8.724  -6.373  27.213  0.00  0.00    +0.145 HD
ATOM     48  C   UNL     1       7.735  -4.632  26.854  0.00  0.00    +0.247 C 
ATOM     49  O   UNL     1       8.727  -3.916  26.926  0.00  0.00    -0.270 OA
ENDBRANCH  39  48
ENDBRANCH  34  41
BRANCH  36  50
ATOM     50  O   UNL     1       7.824   1.409  26.620  0.00  0.00    -0.389 OA
ATOM     51  H   UNL     1       8.160   2.147  27.166  0.00  0.00    +0.210 HD
ENDBRANCH  36  50
BRANCH  35  52
ATOM     52  O   UNL     1       5.293   0.497  24.569  0.00  0.00    -0.383 OA
ATOM     53  H   UNL     1       5.230   1.471  24.497  0.00  0.00    +0.210 HD
ENDBRANCH  35  52
ENDBRANCH  33  37
ENDBRANCH  32  33
ENDBRANCH  29  32
ENDBRANCH  28  29
ENDBRANCH   1  28
TORSDOF 16
ENDMDL
MODEL 4
REMARK VINA RESULT:      -6.8      4.088      8.106
REMARK  Name = 
REMARK  16 active torsions:
REMARK  status: ('A' for Active; 'I' for Inactive)
REMARK    1  A    between atoms: C_2  and  C_4
REMARK    2  A    between atoms: N_8  and  C_10
REMARK    3  A    between atoms: C_13  and  C_15
REMARK    4  A    between atoms: C_15  and  O_16
REMARK    5  A    between atoms: O_16  and  P_17
REMARK    6  A    between atoms: P_17  and  O_20
REMARK    7  A    between atoms: O_20  and  P_21
REMARK    8  A    between atoms: P_21  and  O_22
REMARK    9  A    between atoms: P_21  and  O_24
REMARK   10  A    between atoms: O_24  and  C_25
REMARK   11  A    between atoms: C_25  and  C_26
REMARK   12  A    between atoms: C_29  and  N_37
REMARK   13  A    between atoms: C_31  and  O_33
REMARK   14  A    between atoms: C_34  and  O_36
REMARK   15  A    between atoms: C_47  and  O_49
REMARK   16  A    between atoms: C_50  and  O_52
REMARK                            x       y       z     vdW  Elec       q    Type
REMARK                         _______ _______ _______ _____ _____    ______ ____
ROOT
ATOM      1  P   UNL     1       9.175  -1.376  22.643  0.00  0.00    +0.480 P 
ATOM      2  O   UNL     1      10.137  -2.371  23.304  0.00  0.00    -0.227 OA
ENDROOT
BRANCH   1   3
ATOM      3  O   UNL     1       9.819  -1.358  21.126  0.00  0.00    -0.302 OA
ATOM      4  H   UNL     1       9.447  -2.174  20.733  0.00  0.00    +0.222 HD
ENDBRANCH   1   3
BRANCH   1   5
ATOM      5  O   UNL     1       8.162  -2.723  22.256  0.00  0.00    -0.284 OA
BRANCH   5   6
ATOM      6  C   UNL     1       6.769  -2.410  22.197  0.00  0.00    +0.206 C 
BRANCH   6   7
ATOM      7  C   UNL     1       5.942  -3.682  22.003  0.00  0.00    +0.178 C 
ATOM      8  C   UNL     1       6.820  -4.885  21.651  0.00  0.00    +0.178 C 
ATOM      9  C   UNL     1       6.998  -5.655  22.966  0.00  0.00    +0.195 C 
ATOM     10  C   UNL     1       6.227  -4.827  23.999  0.00  0.00    +0.253 C 
ATOM     11  O   UNL     1       5.287  -4.052  23.234  0.00  0.00    -0.346 OA
BRANCH  10  12
ATOM     12  N   UNL     1       5.500  -5.582  24.999  0.00  0.00    -0.286 N 
ATOM     13  C   UNL     1       5.886  -5.821  26.292  0.00  0.00    +0.167 A 
ATOM     14  N   UNL     1       7.033  -5.462  26.899  0.00  0.00    -0.216 NA
ATOM     15  C   UNL     1       7.051  -5.904  28.177  0.00  0.00    +0.225 A 
ATOM     16  N   UNL     1       6.101  -6.593  28.846  0.00  0.00    -0.219 NA
ATOM     17  C   UNL     1       4.971  -6.929  28.187  0.00  0.00    +0.147 A 
ATOM     18  N   UNL     1       3.986  -7.633  28.871  0.00  0.00    -0.341 N 
ATOM     19  H   UNL     1       3.070  -7.551  28.439  0.00  0.00    +0.144 HD
ATOM     20  H   UNL     1       4.046  -7.495  29.870  0.00  0.00    +0.144 HD
ATOM     21  C   UNL     1       4.831  -6.529  26.849  0.00  0.00    +0.147 A 
ATOM     22  N   UNL     1       3.804  -6.682  25.944  0.00  0.00    -0.231 NA
ATOM     23  C   UNL     1       4.233  -6.089  24.850  0.00  0.00    +0.203 A 
ENDBRANCH  10  12
BRANCH   9  24
ATOM     24  O   UNL     1       8.380  -5.768  23.317  0.00  0.00    -0.385 OA
ATOM     25  H   UNL     1       8.821  -6.170  22.539  0.00  0.00    +0.210 HD
ENDBRANCH   9  24
BRANCH   8  26
ATOM     26  O   UNL     1       6.135  -5.720  20.704  0.00  0.00    -0.386 OA
ATOM     27  H   UNL     1       6.641  -6.547  20.608  0.00  0.00    +0.210 HD
ENDBRANCH   8  26
ENDBRANCH   6   7
ENDBRANCH   5   6
ENDBRANCH   1   5
BRANCH   1  28
ATOM     28  O   UNL     1      10.189  -0.028  23.031  0.00  0.00    -0.229 OA
BRANCH  28  29
ATOM     29  P   UNL     1       9.517   1.417  22.780  0.00  0.00    +0.222 P 
ATOM     30  O   UNL     1      10.613   2.424  22.557  0.00  0.00    -0.437 OA
ATOM     31  O   UNL     1       8.299   1.295  21.898  0.00  0.00    -0.517 OA
BRANCH  29  32
ATOM     32  O   UNL     1       8.912   1.721  24.269  0.00  0.00    -0.327 OA
BRANCH  32  33
ATOM     33  C   UNL     1       7.725   1.008  24.598  0.00  0.00    +0.174 C 
BRANCH  33  37
ATOM     34  C   UNL     1       6.216  -1.290  26.015  0.00  0.00    +0.298 C 
ATOM     35  C   UNL     1       7.618  -1.798  26.406  0.00  0.00    +0.212 C 
ATOM     36  C   UNL     1       8.536  -0.562  26.438  0.00  0.00    +0.155 C 
ATOM     37  C   UNL     1       7.648   0.632  26.093  0.00  0.00    +0.053 C 
ATOM     38  C   UNL     1       6.250   0.155  26.491  0.00  0.00    +0.087 C 
BRANCH  34  41
ATOM     39  C   UNL     1       2.899  -3.024  26.521  0.00  0.00    +0.100 A 
ATOM     40  C   UNL     1       3.938  -2.274  25.971  0.00  0.00    +0.322 A 
ATOM     41  N   UNL     1       5.106  -2.089  26.644  0.00  0.00    -0.198 N 
ATOM     42  C   UNL     1       5.220  -2.546  27.919  0.00  0.00    +0.309 A 
ATOM     43  C   UNL     1       4.192  -3.269  28.518  0.00  0.00    +0.071 A 
ATOM     44  C   UNL     1       3.025  -3.528  27.811  0.00  0.00    +0.025 A 
BRANCH  39  48
ATOM     45  N   UNL     1       1.408  -4.488  25.282  0.00  0.00    -0.325 N 
ATOM     46  H   UNL     1       2.044  -5.270  25.347  0.00  0.00    +0.145 HD
ATOM     47  H   UNL     1       0.621  -4.599  24.650  0.00  0.00    +0.145 HD
ATOM     48  C   UNL     1       1.694  -3.220  25.692  0.00  0.00    +0.247 C 
ATOM     49  O   UNL     1       1.012  -2.260  25.351  0.00  0.00    -0.270 OA
ENDBRANCH  39  48
ENDBRANCH  34  41
BRANCH  36  50
ATOM     50  O   UNL     1       9.030  -0.485  27.779  0.00  0.00    -0.389 OA
ATOM     51  H   UNL     1       8.749   0.359  28.185  0.00  0.00    +0.210 HD
ENDBRANCH  36  50
BRANCH  35  52
ATOM     52  O   UNL     1       8.082  -2.770  25.471  0.00  0.00    -0.383 OA
ATOM     53  H   UNL     1       9.026  -2.574  25.298  0.00  0.00    +0.210 HD
ENDBRANCH  35  52
ENDBRANCH  33  37
ENDBRANCH  32  33
ENDBRANCH  29  32
ENDBRANCH  28  29
ENDBRANCH   1  28
TORSDOF 16
ENDMDL
MODEL 5
REMARK VINA RESULT:      -6.8      3.747      8.043
REMARK  Name = 
REMARK  16 active torsions:
REMARK  status: ('A' for Active; 'I' for Inactive)
REMARK    1  A    between atoms: C_2  and  C_4
REMARK    2  A    between atoms: N_8  and  C_10
REMARK    3  A    between atoms: C_13  and  C_15
REMARK    4  A    between atoms: C_15  and  O_16
REMARK    5  A    between atoms: O_16  and  P_17
REMARK    6  A    between atoms: P_17  and  O_20
REMARK    7  A    between atoms: O_20  and  P_21
REMARK    8  A    between atoms: P_21  and  O_22
REMARK    9  A    between atoms: P_21  and  O_24
REMARK   10  A    between atoms: O_24  and  C_25
REMARK   11  A    between atoms: C_25  and  C_26
REMARK   12  A    between atoms: C_29  and  N_37
REMARK   13  A    between atoms: C_31  and  O_33
REMARK   14  A    between atoms: C_34  and  O_36
REMARK   15  A    between atoms: C_47  and  O_49
REMARK   16  A    between atoms: C_50  and  O_52
REMARK                            x       y       z     vdW  Elec       q    Type
REMARK                         _______ _______ _______ _____ _____    ______ ____
ROOT
ATOM      1  P   UNL     1       8.764  -1.837  23.552  0.00  0.00    +0.480 P 
ATOM      2  O   UNL     1       9.838  -2.924  23.675  0.00  0.00    -0.227 OA
ENDROOT
BRANCH   1   3
ATOM      3  O   UNL     1       9.582  -0.767  22.602  0.00  0.00    -0.302 OA
ATOM      4  H   UNL     1      10.423  -1.239  22.434  0.00  0.00    +0.222 HD
ENDBRANCH   1   3
BRANCH   1   5
ATOM      5  O   UNL     1       8.163  -2.687  22.171  0.00  0.00    -0.284 OA
BRANCH   5   6
ATOM      6  C   UNL     1       6.748  -2.593  21.997  0.00  0.00    +0.206 C 
BRANCH   6   7
ATOM      7  C   UNL     1       6.127  -3.988  21.904  0.00  0.00    +0.178 C 
ATOM      8  C   UNL     1       7.193  -5.085  21.865  0.00  0.00    +0.178 C 
ATOM      9  C   UNL     1       7.268  -5.628  23.298  0.00  0.00    +0.195 C 
ATOM     10  C   UNL     1       6.252  -4.787  24.077  0.00  0.00    +0.253 C 
ATOM     11  O   UNL     1       5.347  -4.274  23.084  0.00  0.00    -0.346 OA
BRANCH  10  12
ATOM     12  N   UNL     1       5.485  -5.493  25.083  0.00  0.00    -0.286 N 
ATOM     13  C   UNL     1       5.898  -5.833  26.345  0.00  0.00    +0.167 A 
ATOM     14  N   UNL     1       7.107  -5.642  26.906  0.00  0.00    -0.216 NA
ATOM     15  C   UNL     1       7.130  -6.139  28.164  0.00  0.00    +0.225 A 
ATOM     16  N   UNL     1       6.135  -6.738  28.853  0.00  0.00    -0.219 NA
ATOM     17  C   UNL     1       4.943  -6.906  28.240  0.00  0.00    +0.147 A 
ATOM     18  N   UNL     1       3.912  -7.517  28.945  0.00  0.00    -0.341 N 
ATOM     19  H   UNL     1       2.994  -7.307  28.564  0.00  0.00    +0.144 HD
ATOM     20  H   UNL     1       4.034  -7.432  29.945  0.00  0.00    +0.144 HD
ATOM     21  C   UNL     1       4.792  -6.434  26.927  0.00  0.00    +0.147 A 
ATOM     22  N   UNL     1       3.714  -6.423  26.070  0.00  0.00    -0.231 NA
ATOM     23  C   UNL     1       4.161  -5.837  24.979  0.00  0.00    +0.203 A 
ENDBRANCH  10  12
BRANCH   9  24
ATOM     24  O   UNL     1       8.585  -5.485  23.838  0.00  0.00    -0.385 OA
ATOM     25  H   UNL     1       9.122  -6.192  23.421  0.00  0.00    +0.210 HD
ENDBRANCH   9  24
BRANCH   8  26
ATOM     26  O   UNL     1       6.768  -6.137  20.983  0.00  0.00    -0.386 OA
ATOM     27  H   UNL     1       7.420  -6.860  21.038  0.00  0.00    +0.210 HD
ENDBRANCH   8  26
ENDBRANCH   6   7
ENDBRANCH   5   6
ENDBRANCH   1   5
BRANCH   1  28
ATOM     28  O   UNL     1       9.365  -0.987  24.935  0.00  0.00    -0.229 OA
BRANCH  28  29
ATOM     29  P   UNL     1       8.263  -0.683  26.074  0.00  0.00    +0.222 P 
ATOM     30  O   UNL     1       7.092  -1.606  25.867  0.00  0.00    -0.437 OA
ATOM     31  O   UNL     1       8.924  -0.454  27.411  0.00  0.00    -0.517 OA
BRANCH  29  32
ATOM     32  O   UNL     1       7.762   0.803  25.607  0.00  0.00    -0.327 OA
BRANCH  32  33
ATOM     33  C   UNL     1       6.884   0.823  24.489  0.00  0.00    +0.174 C 
BRANCH  33  37
ATOM     34  C   UNL     1       8.838   3.123  23.811  0.00  0.00    +0.298 C 
ATOM     35  C   UNL     1       8.321   2.966  22.367  0.00  0.00    +0.212 C 
ATOM     36  C   UNL     1       6.896   2.390  22.476  0.00  0.00    +0.155 C 
ATOM     37  C   UNL     1       6.610   2.250  23.969  0.00  0.00    +0.053 C 
ATOM     38  C   UNL     1       7.548   3.280  24.603  0.00  0.00    +0.087 C 
BRANCH  34  41
ATOM     39  C   UNL     1      11.880   5.342  23.506  0.00  0.00    +0.100 A 
ATOM     40  C   UNL     1      10.999   4.267  23.387  0.00  0.00    +0.322 A 
ATOM     41  N   UNL     1       9.772   4.293  23.975  0.00  0.00    -0.198 N 
ATOM     42  C   UNL     1       9.444   5.333  24.785  0.00  0.00    +0.309 A 
ATOM     43  C   UNL     1      10.308   6.410  24.959  0.00  0.00    +0.071 A 
ATOM     44  C   UNL     1      11.533   6.427  24.303  0.00  0.00    +0.025 A 
BRANCH  39  48
ATOM     45  N   UNL     1      13.166   5.557  21.456  0.00  0.00    -0.325 N 
ATOM     46  H   UNL     1      12.336   5.669  20.891  0.00  0.00    +0.145 HD
ATOM     47  H   UNL     1      14.036   5.415  20.954  0.00  0.00    +0.145 HD
ATOM     48  C   UNL     1      13.163   5.248  22.784  0.00  0.00    +0.247 C 
ATOM     49  O   UNL     1      14.172   4.858  23.360  0.00  0.00    -0.270 OA
ENDBRANCH  39  48
ENDBRANCH  34  41
BRANCH  36  50
ATOM     50  O   UNL     1       6.042   3.359  21.860  0.00  0.00    -0.389 OA
ATOM     51  H   UNL     1       6.533   4.194  21.728  0.00  0.00    +0.210 HD
ENDBRANCH  36  50
BRANCH  35  52
ATOM     52  O   UNL     1       9.176   2.109  21.615  0.00  0.00    -0.383 OA
ATOM     53  H   UNL     1       9.166   1.234  22.055  0.00  0.00    +0.210 HD
ENDBRANCH  35  52
ENDBRANCH  33  37
ENDBRANCH  32  33
ENDBRANCH  29  32
ENDBRANCH  28  29
ENDBRANCH   1  28
TORSDOF 16
ENDMDL
MODEL 6
REMARK VINA RESULT:      -6.8      1.994      3.809
REMARK  Name = 
REMARK  16 active torsions:
REMARK  status: ('A' for Active; 'I' for Inactive)
REMARK    1  A    between atoms: C_2  and  C_4
REMARK    2  A    between atoms: N_8  and  C_10
REMARK    3  A    between atoms: C_13  and  C_15
REMARK    4  A    between atoms: C_15  and  O_16
REMARK    5  A    between atoms: O_16  and  P_17
REMARK    6  A    between atoms: P_17  and  O_20
REMARK    7  A    between atoms: O_20  and  P_21
REMARK    8  A    between atoms: P_21  and  O_22
REMARK    9  A    between atoms: P_21  and  O_24
REMARK   10  A    between atoms: O_24  and  C_25
REMARK   11  A    between atoms: C_25  and  C_26
REMARK   12  A    between atoms: C_29  and  N_37
REMARK   13  A    between atoms: C_31  and  O_33
REMARK   14  A    between atoms: C_34  and  O_36
REMARK   15  A    between atoms: C_47  and  O_49
REMARK   16  A    between atoms: C_50  and  O_52
REMARK                            x       y       z     vdW  Elec       q    Type
REMARK                         _______ _______ _______ _____ _____    ______ ____
ROOT
ATOM      1  P   UNL     1       5.117  -6.053  27.781  0.00  0.00    +0.480 P 
ATOM      2  O   UNL     1       6.647  -6.119  27.855  0.00  0.00    -0.227 OA
ENDROOT
BRANCH   1   3
ATOM      3  O   UNL     1       4.753  -7.335  28.752  0.00  0.00    -0.302 OA
ATOM      4  H   UNL     1       5.626  -7.763  28.866  0.00  0.00    +0.222 HD
ENDBRANCH   1   3
BRANCH   1   5
ATOM      5  O   UNL     1       5.170  -4.975  29.133  0.00  0.00    -0.284 OA
BRANCH   5   6
ATOM      6  C   UNL     1       4.356  -3.810  28.984  0.00  0.00    +0.206 C 
BRANCH   6   7
ATOM      7  C   UNL     1       4.562  -3.186  27.603  0.00  0.00    +0.178 C 
ATOM      8  C   UNL     1       3.286  -2.522  27.081  0.00  0.00    +0.178 C 
ATOM      9  C   UNL     1       3.463  -1.024  27.366  0.00  0.00    +0.195 C 
ATOM     10  C   UNL     1       4.826  -0.928  28.059  0.00  0.00    +0.253 C 
ATOM     11  O   UNL     1       5.532  -2.119  27.670  0.00  0.00    -0.346 OA
BRANCH  10  12
ATOM     12  N   UNL     1       5.632   0.224  27.709  0.00  0.00    -0.286 N 
ATOM     13  C   UNL     1       5.836   0.736  26.454  0.00  0.00    +0.167 A 
ATOM     14  N   UNL     1       5.387   0.260  25.277  0.00  0.00    -0.216 NA
ATOM     15  C   UNL     1       5.822   1.034  24.256  0.00  0.00    +0.225 A 
ATOM     16  N   UNL     1       6.580   2.150  24.306  0.00  0.00    -0.219 NA
ATOM     17  C   UNL     1       7.005   2.582  25.514  0.00  0.00    +0.147 A 
ATOM     18  N   UNL     1       7.781   3.734  25.575  0.00  0.00    -0.341 N 
ATOM     19  H   UNL     1       7.771   4.169  26.493  0.00  0.00    +0.144 HD
ATOM     20  H   UNL     1       7.635   4.331  24.773  0.00  0.00    +0.144 HD
ATOM     21  C   UNL     1       6.621   1.861  26.656  0.00  0.00    +0.147 A 
ATOM     22  N   UNL     1       6.857   2.066  27.998  0.00  0.00    -0.231 NA
ATOM     23  C   UNL     1       6.236   1.075  28.601  0.00  0.00    +0.203 A 
ENDBRANCH  10  12
BRANCH   9  24
ATOM     24  O   UNL     1       2.416  -0.529  28.205  0.00  0.00    -0.385 OA
ATOM     25  H   UNL     1       1.701  -0.243  27.599  0.00  0.00    +0.210 HD
ENDBRANCH   9  24
BRANCH   8  26
ATOM     26  O   UNL     1       3.185  -2.724  25.662  0.00  0.00    -0.386 OA
ATOM     27  H   UNL     1       3.083  -3.680  25.499  0.00  0.00    +0.210 HD
ENDBRANCH   8  26
ENDBRANCH   6   7
ENDBRANCH   5   6
ENDBRANCH   1   5
BRANCH   1  28
ATOM     28  O   UNL     1       5.064  -7.131  26.429  0.00  0.00    -0.229 OA
BRANCH  28  29
ATOM     29  P   UNL     1       4.478  -6.484  25.071  0.00  0.00    +0.222 P 
ATOM     30  O   UNL     1       4.669  -7.469  23.949  0.00  0.00    -0.437 OA
ATOM     31  O   UNL     1       3.181  -5.760  25.339  0.00  0.00    -0.517 OA
BRANCH  29  32
ATOM     32  O   UNL     1       5.567  -5.289  24.823  0.00  0.00    -0.327 OA
BRANCH  32  33
ATOM     33  C   UNL     1       6.029  -5.159  23.484  0.00  0.00    +0.174 C 
BRANCH  33  37
ATOM     34  C   UNL     1       7.857  -2.822  24.357  0.00  0.00    +0.298 C 
ATOM     35  C   UNL     1       8.459  -3.833  25.353  0.00  0.00    +0.212 C 
ATOM     36  C   UNL     1       8.251  -5.229  24.735  0.00  0.00    +0.155 C 
ATOM     37  C   UNL     1       7.561  -4.997  23.393  0.00  0.00    +0.053 C 
ATOM     38  C   UNL     1       7.965  -3.565  23.034  0.00  0.00    +0.087 C 
BRANCH  34  41
ATOM     39  C   UNL     1       9.452   0.378  23.137  0.00  0.00    +0.100 A 
ATOM     40  C   UNL     1       8.797  -0.853  23.173  0.00  0.00    +0.322 A 
ATOM     41  N   UNL     1       8.584  -1.503  24.350  0.00  0.00    -0.198 N 
ATOM     42  C   UNL     1       9.120  -1.002  25.494  0.00  0.00    +0.309 A 
ATOM     43  C   UNL     1       9.811   0.206  25.495  0.00  0.00    +0.071 A 
ATOM     44  C   UNL     1       9.968   0.915  24.311  0.00  0.00    +0.025 A 
BRANCH  39  48
ATOM     45  N   UNL     1      10.208   2.246  21.780  0.00  0.00    -0.325 N 
ATOM     46  H   UNL     1      10.429   2.806  22.591  0.00  0.00    +0.145 HD
ATOM     47  H   UNL     1      10.224   2.723  20.885  0.00  0.00    +0.145 HD
ATOM     48  C   UNL     1       9.581   1.036  21.823  0.00  0.00    +0.247 C 
ATOM     49  O   UNL     1       9.095   0.524  20.821  0.00  0.00    -0.270 OA
ENDBRANCH  39  48
ENDBRANCH  34  41
BRANCH  36  50
ATOM     50  O   UNL     1       9.563  -5.776  24.570  0.00  0.00    -0.389 OA
ATOM     51  H   UNL     1       9.530  -6.522  23.939  0.00  0.00    +0.210 HD
ENDBRANCH  36  50
BRANCH  35  52
ATOM     52  O   UNL     1       7.828  -3.726  26.627  0.00  0.00    -0.383 OA
ATOM     53  H   UNL     1       7.084  -3.097  26.526  0.00  0.00    +0.210 HD
ENDBRANCH  35  52
ENDBRANCH  33  37
ENDBRANCH  32  33
ENDBRANCH  29  32
ENDBRANCH  28  29
ENDBRANCH   1  28
TORSDOF 16
ENDMDL
MODEL 7
REMARK VINA RESULT:      -6.7      2.651      5.121
REMARK  Name = 
REMARK  16 active torsions:
REMARK  status: ('A' for Active; 'I' for Inactive)
REMARK    1  A    between atoms: C_2  and  C_4
REMARK    2  A    between atoms: N_8  and  C_10
REMARK    3  A    between atoms: C_13  and  C_15
REMARK    4  A    between atoms: C_15  and  O_16
REMARK    5  A    between atoms: O_16  and  P_17
REMARK    6  A    between atoms: P_17  and  O_20
REMARK    7  A    between atoms: O_20  and  P_21
REMARK    8  A    between atoms: P_21  and  O_22
REMARK    9  A    between atoms: P_21  and  O_24
REMARK   10  A    between atoms: O_24  and  C_25
REMARK   11  A    between atoms: C_25  and  C_26
REMARK   12  A    between atoms: C_29  and  N_37
REMARK   13  A    between atoms: C_31  and  O_33
REMARK   14  A    between atoms: C_34  and  O_36
REMARK   15  A    between atoms: C_47  and  O_49
REMARK   16  A    between atoms: C_50  and  O_52
REMARK                            x       y       z     vdW  Elec       q    Type
REMARK                         _______ _______ _______ _____ _____    ______ ____
ROOT
ATOM      1  P   UNL     1       5.428  -5.365  22.577  0.00  0.00    +0.480 P 
ATOM      2  O   UNL     1       4.874  -4.009  22.121  0.00  0.00    -0.227 OA
ENDROOT
BRANCH   1   3
ATOM      3  O   UNL     1       5.612  -6.081  21.104  0.00  0.00    -0.302 OA
ATOM      4  H   UNL     1       5.121  -5.473  20.515  0.00  0.00    +0.222 HD
ENDBRANCH   1   3
BRANCH   1   5
ATOM      5  O   UNL     1       7.008  -4.665  22.494  0.00  0.00    -0.284 OA
BRANCH   5   6
ATOM      6  C   UNL     1       7.011  -3.241  22.368  0.00  0.00    +0.206 C 
BRANCH   6   7
ATOM      7  C   UNL     1       7.484  -2.590  23.669  0.00  0.00    +0.178 C 
ATOM      8  C   UNL     1       8.911  -3.008  24.031  0.00  0.00    +0.178 C 
ATOM      9  C   UNL     1       9.802  -1.847  23.571  0.00  0.00    +0.195 C 
ATOM     10  C   UNL     1       8.826  -0.843  22.949  0.00  0.00    +0.253 C 
ATOM     11  O   UNL     1       7.545  -1.156  23.524  0.00  0.00    -0.346 OA
BRANCH  10  12
ATOM     12  N   UNL     1       9.115   0.556  23.197  0.00  0.00    -0.286 N 
ATOM     13  C   UNL     1       8.358   1.633  22.818  0.00  0.00    +0.167 A 
ATOM     14  N   UNL     1       7.222   1.640  22.095  0.00  0.00    -0.216 NA
ATOM     15  C   UNL     1       6.786   2.907  21.910  0.00  0.00    +0.225 A 
ATOM     16  N   UNL     1       7.325   4.060  22.362  0.00  0.00    -0.219 NA
ATOM     17  C   UNL     1       8.467   3.994  23.081  0.00  0.00    +0.147 A 
ATOM     18  N   UNL     1       9.025   5.177  23.554  0.00  0.00    -0.341 N 
ATOM     19  H   UNL     1       9.655   5.030  24.337  0.00  0.00    +0.144 HD
ATOM     20  H   UNL     1       8.339   5.913  23.637  0.00  0.00    +0.144 HD
ATOM     21  C   UNL     1       9.023   2.732  23.340  0.00  0.00    +0.147 A 
ATOM     22  N   UNL     1      10.132   2.344  24.059  0.00  0.00    -0.231 NA
ATOM     23  C   UNL     1      10.148   1.031  23.965  0.00  0.00    +0.203 A 
ENDBRANCH  10  12
BRANCH   9  24
ATOM     24  O   UNL     1      10.774  -2.286  22.617  0.00  0.00    -0.385 OA
ATOM     25  H   UNL     1      11.606  -2.406  23.122  0.00  0.00    +0.210 HD
ENDBRANCH   9  24
BRANCH   8  26
ATOM     26  O   UNL     1       9.023  -3.154  25.456  0.00  0.00    -0.386 OA
ATOM     27  H   UNL     1       8.136  -3.343  25.811  0.00  0.00    +0.210 HD
ENDBRANCH   8  26
ENDBRANCH   6   7
ENDBRANCH   5   6
ENDBRANCH   1   5
BRANCH   1  28
ATOM     28  O   UNL     1       3.847  -6.064  22.660  0.00  0.00    -0.229 OA
BRANCH  28  29
ATOM     29  P   UNL     1       3.392  -6.533  24.136  0.00  0.00    +0.222 P 
ATOM     30  O   UNL     1       2.577  -5.432  24.759  0.00  0.00    -0.437 OA
ATOM     31  O   UNL     1       2.977  -7.984  24.132  0.00  0.00    -0.517 OA
BRANCH  29  32
ATOM     32  O   UNL     1       4.836  -6.525  24.904  0.00  0.00    -0.327 OA
BRANCH  32  33
ATOM     33  C   UNL     1       4.782  -6.794  26.300  0.00  0.00    +0.174 C 
BRANCH  33  37
ATOM     34  C   UNL     1       4.749  -3.799  27.072  0.00  0.00    +0.298 C 
ATOM     35  C   UNL     1       4.664  -4.306  28.525  0.00  0.00    +0.212 C 
ATOM     36  C   UNL     1       5.323  -5.698  28.539  0.00  0.00    +0.155 C 
ATOM     37  C   UNL     1       5.794  -5.957  27.110  0.00  0.00    +0.053 C 
ATOM     38  C   UNL     1       5.960  -4.547  26.536  0.00  0.00    +0.087 C 
BRANCH  34  41
ATOM     39  C   UNL     1       6.305  -0.366  26.829  0.00  0.00    +0.100 A 
ATOM     40  C   UNL     1       6.137  -1.746  26.930  0.00  0.00    +0.322 A 
ATOM     41  N   UNL     1       4.896  -2.303  26.982  0.00  0.00    -0.198 N 
ATOM     42  C   UNL     1       3.806  -1.495  27.051  0.00  0.00    +0.309 A 
ATOM     43  C   UNL     1       3.933  -0.110  26.988  0.00  0.00    +0.071 A 
ATOM     44  C   UNL     1       5.190   0.465  26.859  0.00  0.00    +0.025 A 
BRANCH  39  48
ATOM     45  N   UNL     1       7.855   1.478  26.514  0.00  0.00    -0.325 N 
ATOM     46  H   UNL     1       7.117   2.117  26.254  0.00  0.00    +0.145 HD
ATOM     47  H   UNL     1       8.805   1.803  26.363  0.00  0.00    +0.145 HD
ATOM     48  C   UNL     1       7.687   0.141  26.718  0.00  0.00    +0.247 C 
ATOM     49  O   UNL     1       8.636  -0.633  26.762  0.00  0.00    -0.270 OA
ENDBRANCH  39  48
ENDBRANCH  34  41
BRANCH  36  50
ATOM     50  O   UNL     1       6.422  -5.596  29.450  0.00  0.00    -0.389 OA
ATOM     51  H   UNL     1       6.747  -4.674  29.469  0.00  0.00    +0.210 HD
ENDBRANCH  36  50
BRANCH  35  52
ATOM     52  O   UNL     1       3.308  -4.364  28.963  0.00  0.00    -0.383 OA
ATOM     53  H   UNL     1       2.879  -5.094  28.471  0.00  0.00    +0.210 HD
ENDBRANCH  35  52
ENDBRANCH  33  37
ENDBRANCH  32  33
ENDBRANCH  29  32
ENDBRANCH  28  29
ENDBRANCH   1  28
TORSDOF 16
ENDMDL
MODEL 8
REMARK VINA RESULT:      -6.7      3.229      5.854
REMARK  Name = 
REMARK  16 active torsions:
REMARK  status: ('A' for Active; 'I' for Inactive)
REMARK    1  A    between atoms: C_2  and  C_4
REMARK    2  A    between atoms: N_8  and  C_10
REMARK    3  A    between atoms: C_13  and  C_15
REMARK    4  A    between atoms: C_15  and  O_16
REMARK    5  A    between atoms: O_16  and  P_17
REMARK    6  A    between atoms: P_17  and  O_20
REMARK    7  A    between atoms: O_20  and  P_21
REMARK    8  A    between atoms: P_21  and  O_22
REMARK    9  A    between atoms: P_21  and  O_24
REMARK   10  A    between atoms: O_24  and  C_25
REMARK   11  A    between atoms: C_25  and  C_26
REMARK   12  A    between atoms: C_29  and  N_37
REMARK   13  A    between atoms: C_31  and  O_33
REMARK   14  A    between atoms: C_34  and  O_36
REMARK   15  A    between atoms: C_47  and  O_49
REMARK   16  A    between atoms: C_50  and  O_52
REMARK                            x       y       z     vdW  Elec       q    Type
REMARK                         _______ _______ _______ _____ _____    ______ ____
ROOT
ATOM      1  P   UNL     1       3.924  -5.340  23.598  0.00  0.00    +0.480 P 
ATOM      2  O   UNL     1       2.495  -5.206  23.060  0.00  0.00    -0.227 OA
ENDROOT
BRANCH   1   3
ATOM      3  O   UNL     1       3.959  -4.019  24.583  0.00  0.00    -0.302 OA
ATOM      4  H   UNL     1       3.639  -3.309  23.990  0.00  0.00    +0.222 HD
ENDBRANCH   1   3
BRANCH   1   5
ATOM      5  O   UNL     1       3.280  -6.331  24.860  0.00  0.00    -0.284 OA
BRANCH   5   6
ATOM      6  C   UNL     1       4.244  -6.744  25.832  0.00  0.00    +0.206 C 
BRANCH   6   7
ATOM      7  C   UNL     1       3.680  -6.590  27.245  0.00  0.00    +0.178 C 
ATOM      8  C   UNL     1       4.695  -7.003  28.313  0.00  0.00    +0.178 C 
ATOM      9  C   UNL     1       5.304  -5.690  28.822  0.00  0.00    +0.195 C 
ATOM     10  C   UNL     1       4.613  -4.603  27.992  0.00  0.00    +0.253 C 
ATOM     11  O   UNL     1       3.392  -5.204  27.526  0.00  0.00    -0.346 OA
BRANCH  10  12
ATOM     12  N   UNL     1       4.288  -3.380  28.697  0.00  0.00    -0.286 N 
ATOM     13  C   UNL     1       4.195  -2.122  28.163  0.00  0.00    +0.167 A 
ATOM     14  N   UNL     1       4.434  -1.734  26.896  0.00  0.00    -0.216 NA
ATOM     15  C   UNL     1       4.255  -0.400  26.766  0.00  0.00    +0.225 A 
ATOM     16  N   UNL     1       3.872   0.496  27.702  0.00  0.00    -0.219 NA
ATOM     17  C   UNL     1       3.648   0.052  28.959  0.00  0.00    +0.147 A 
ATOM     18  N   UNL     1       3.249   0.967  29.927  0.00  0.00    -0.341 N 
ATOM     19  H   UNL     1       2.787   0.529  30.718  0.00  0.00    +0.144 HD
ATOM     20  H   UNL     1       2.809   1.781  29.520  0.00  0.00    +0.144 HD
ATOM     21  C   UNL     1       3.803  -1.317  29.223  0.00  0.00    +0.147 A 
ATOM     22  N   UNL     1       3.614  -2.062  30.366  0.00  0.00    -0.231 NA
ATOM     23  C   UNL     1       3.899  -3.297  30.011  0.00  0.00    +0.203 A 
ENDBRANCH  10  12
BRANCH   9  24
ATOM     24  O   UNL     1       6.722  -5.668  28.630  0.00  0.00    -0.385 OA
ATOM     25  H   UNL     1       6.922  -6.421  28.035  0.00  0.00    +0.210 HD
ENDBRANCH   9  24
BRANCH   8  26
ATOM     26  O   UNL     1       4.015  -7.658  29.395  0.00  0.00    -0.386 OA
ATOM     27  H   UNL     1       3.926  -8.603  29.169  0.00  0.00    +0.210 HD
ENDBRANCH   8  26
ENDBRANCH   6   7
ENDBRANCH   5   6
ENDBRANCH   1   5
BRANCH   1  28
ATOM     28  O   UNL     1       4.570  -4.349  22.335  0.00  0.00    -0.229 OA
BRANCH  28  29
ATOM     29  P   UNL     1       6.109  -4.652  21.958  0.00  0.00    +0.222 P 
ATOM     30  O   UNL     1       6.156  -5.867  21.071  0.00  0.00    -0.437 OA
ATOM     31  O   UNL     1       6.850  -3.370  21.662  0.00  0.00    -0.517 OA
BRANCH  29  32
ATOM     32  O   UNL     1       6.680  -5.125  23.415  0.00  0.00    -0.327 OA
BRANCH  32  33
ATOM     33  C   UNL     1       8.086  -4.989  23.589  0.00  0.00    +0.174 C 
BRANCH  33  37
ATOM     34  C   UNL     1       8.445  -1.935  23.919  0.00  0.00    +0.298 C 
ATOM     35  C   UNL     1       7.240  -2.026  24.878  0.00  0.00    +0.212 C 
ATOM     36  C   UNL     1       7.245  -3.457  25.447  0.00  0.00    +0.155 C 
ATOM     37  C   UNL     1       8.457  -4.152  24.832  0.00  0.00    +0.053 C 
ATOM     38  C   UNL     1       9.387  -2.989  24.481  0.00  0.00    +0.087 C 
BRANCH  34  41
ATOM     39  C   UNL     1       8.996   1.715  23.118  0.00  0.00    +0.100 A 
ATOM     40  C   UNL     1       8.460   0.428  23.160  0.00  0.00    +0.322 A 
ATOM     41  N   UNL     1       9.058  -0.560  23.879  0.00  0.00    -0.198 N 
ATOM     42  C   UNL     1      10.257  -0.321  24.472  0.00  0.00    +0.309 A 
ATOM     43  C   UNL     1      10.843   0.941  24.424  0.00  0.00    +0.071 A 
ATOM     44  C   UNL     1      10.203   1.977  23.756  0.00  0.00    +0.025 A 
BRANCH  39  48
ATOM     45  N   UNL     1       8.512   4.045  22.629  0.00  0.00    -0.325 N 
ATOM     46  H   UNL     1       9.046   4.372  23.422  0.00  0.00    +0.145 HD
ATOM     47  H   UNL     1       7.936   4.736  22.159  0.00  0.00    +0.145 HD
ATOM     48  C   UNL     1       8.245   2.736  22.362  0.00  0.00    +0.247 C 
ATOM     49  O   UNL     1       7.380   2.402  21.560  0.00  0.00    -0.270 OA
ENDBRANCH  39  48
ENDBRANCH  34  41
BRANCH  36  50
ATOM     50  O   UNL     1       7.382  -3.307  26.864  0.00  0.00    -0.389 OA
ATOM     51  H   UNL     1       6.509  -3.114  27.260  0.00  0.00    +0.210 HD
ENDBRANCH  36  50
BRANCH  35  52
ATOM     52  O   UNL     1       6.024  -1.740  24.190  0.00  0.00    -0.383 OA
ATOM     53  H   UNL     1       5.827  -2.513  23.623  0.00  0.00    +0.210 HD
ENDBRANCH  35  52
ENDBRANCH  33  37
ENDBRANCH  32  33
ENDBRANCH  29  32
ENDBRANCH  28  29
ENDBRANCH   1  28
TORSDOF 16
ENDMDL
MODEL 9
REMARK VINA RESULT:      -6.6      2.605      5.139
REMARK  Name = 
REMARK  16 active torsions:
REMARK  status: ('A' for Active; 'I' for Inactive)
REMARK    1  A    between atoms: C_2  and  C_4
REMARK    2  A    between atoms: N_8  and  C_10
REMARK    3  A    between atoms: C_13  and  C_15
REMARK    4  A    between atoms: C_15  and  O_16
REMARK    5  A    between atoms: O_16  and  P_17
REMARK    6  A    between atoms: P_17  and  O_20
REMARK    7  A    between atoms: O_20  and  P_21
REMARK    8  A    between atoms: P_21  and  O_22
REMARK    9  A    between atoms: P_21  and  O_24
REMARK   10  A    between atoms: O_24  and  C_25
REMARK   11  A    between atoms: C_25  and  C_26
REMARK   12  A    between atoms: C_29  and  N_37
REMARK   13  A    between atoms: C_31  and  O_33
REMARK   14  A    between atoms: C_34  and  O_36
REMARK   15  A    between atoms: C_47  and  O_49
REMARK   16  A    between atoms: C_50  and  O_52
REMARK                            x       y       z     vdW  Elec       q    Type
REMARK                         _______ _______ _______ _____ _____    ______ ____
ROOT
ATOM      1  P   UNL     1       3.786  -5.075  24.218  0.00  0.00    +0.480 P 
ATOM      2  O   UNL     1       2.304  -5.215  23.849  0.00  0.00    -0.227 OA
ENDROOT
BRANCH   1   3
ATOM      3  O   UNL     1       3.790  -3.497  24.694  0.00  0.00    -0.302 OA
ATOM      4  H   UNL     1       4.641  -3.426  25.171  0.00  0.00    +0.222 HD
ENDBRANCH   1   3
BRANCH   1   5
ATOM      5  O   UNL     1       3.366  -5.610  25.809  0.00  0.00    -0.284 OA
BRANCH   5   6
ATOM      6  C   UNL     1       4.395  -6.351  26.468  0.00  0.00    +0.206 C 
BRANCH   6   7
ATOM      7  C   UNL     1       4.956  -5.555  27.647  0.00  0.00    +0.178 C 
ATOM      8  C   UNL     1       6.297  -6.115  28.127  0.00  0.00    +0.178 C 
ATOM      9  C   UNL     1       7.363  -5.208  27.497  0.00  0.00    +0.195 C 
ATOM     10  C   UNL     1       6.562  -4.196  26.672  0.00  0.00    +0.253 C 
ATOM     11  O   UNL     1       5.245  -4.198  27.249  0.00  0.00    -0.346 OA
BRANCH  10  12
ATOM     12  N   UNL     1       7.068  -2.838  26.675  0.00  0.00    -0.286 N 
ATOM     13  C   UNL     1       6.328  -1.684  26.670  0.00  0.00    +0.167 A 
ATOM     14  N   UNL     1       4.990  -1.553  26.605  0.00  0.00    -0.216 NA
ATOM     15  C   UNL     1       4.642  -0.245  26.599  0.00  0.00    +0.225 A 
ATOM     16  N   UNL     1       5.441   0.842  26.667  0.00  0.00    -0.219 NA
ATOM     17  C   UNL     1       6.777   0.651  26.728  0.00  0.00    +0.147 A 
ATOM     18  N   UNL     1       7.606   1.765  26.804  0.00  0.00    -0.341 N 
ATOM     19  H   UNL     1       8.525   1.548  27.178  0.00  0.00    +0.144 HD
ATOM     20  H   UNL     1       7.125   2.570  27.180  0.00  0.00    +0.144 HD
ATOM     21  C   UNL     1       7.266  -0.665  26.739  0.00  0.00    +0.147 A 
ATOM     22  N   UNL     1       8.544  -1.172  26.832  0.00  0.00    -0.231 NA
ATOM     23  C   UNL     1       8.386  -2.479  26.806  0.00  0.00    +0.203 A 
ENDBRANCH  10  12
BRANCH   9  24
ATOM     24  O   UNL     1       8.260  -5.959  26.672  0.00  0.00    -0.385 OA
ATOM     25  H   UNL     1       8.064  -5.686  25.750  0.00  0.00    +0.210 HD
ENDBRANCH   9  24
BRANCH   8  26
ATOM     26  O   UNL     1       6.377  -6.013  29.558  0.00  0.00    -0.386 OA
ATOM     27  H   UNL     1       7.280  -6.260  29.829  0.00  0.00    +0.210 HD
ENDBRANCH   8  26
ENDBRANCH   6   7
ENDBRANCH   5   6
ENDBRANCH   1   5
BRANCH   1  28
ATOM     28  O   UNL     1       4.207  -4.541  22.627  0.00  0.00    -0.229 OA
BRANCH  28  29
ATOM     29  P   UNL     1       5.790  -4.527  22.315  0.00  0.00    +0.222 P 
ATOM     30  O   UNL     1       6.452  -5.595  23.142  0.00  0.00    -0.437 OA
ATOM     31  O   UNL     1       6.043  -4.332  20.840  0.00  0.00    -0.517 OA
BRANCH  29  32
ATOM     32  O   UNL     1       6.209  -3.098  22.992  0.00  0.00    -0.327 OA
BRANCH  32  33
ATOM     33  C   UNL     1       7.593  -2.948  23.284  0.00  0.00    +0.174 C 
BRANCH  33  37
ATOM     34  C   UNL     1       8.182   0.088  23.272  0.00  0.00    +0.298 C 
ATOM     35  C   UNL     1       9.665  -0.329  23.334  0.00  0.00    +0.212 C 
ATOM     36  C   UNL     1       9.751  -1.726  22.689  0.00  0.00    +0.155 C 
ATOM     37  C   UNL     1       8.332  -2.075  22.248  0.00  0.00    +0.053 C 
ATOM     38  C   UNL     1       7.671  -0.705  22.078  0.00  0.00    +0.087 C 
BRANCH  34  41
ATOM     39  C   UNL     1       8.845   3.806  23.366  0.00  0.00    +0.100 A 
ATOM     40  C   UNL     1       8.979   2.426  23.517  0.00  0.00    +0.322 A 
ATOM     41  N   UNL     1       7.999   1.574  23.111  0.00  0.00    -0.198 N 
ATOM     42  C   UNL     1       6.823   2.080  22.657  0.00  0.00    +0.309 A 
ATOM     43  C   UNL     1       6.635   3.453  22.523  0.00  0.00    +0.071 A 
ATOM     44  C   UNL     1       7.658   4.328  22.864  0.00  0.00    +0.025 A 
BRANCH  39  48
ATOM     45  N   UNL     1      11.204   4.371  23.233  0.00  0.00    -0.325 N 
ATOM     46  H   UNL     1      11.423   3.536  22.710  0.00  0.00    +0.145 HD
ATOM     47  H   UNL     1      11.994   4.905  23.582  0.00  0.00    +0.145 HD
ATOM     48  C   UNL     1       9.986   4.645  23.780  0.00  0.00    +0.247 C 
ATOM     49  O   UNL     1       9.837   5.522  24.623  0.00  0.00    -0.270 OA
ENDBRANCH  39  48
ENDBRANCH  34  41
BRANCH  36  50
ATOM     50  O   UNL     1      10.634  -1.580  21.572  0.00  0.00    -0.389 OA
ATOM     51  H   UNL     1      11.024  -0.684  21.577  0.00  0.00    +0.210 HD
ENDBRANCH  36  50
BRANCH  35  52
ATOM     52  O   UNL     1      10.130  -0.346  24.682  0.00  0.00    -0.383 OA
ATOM     53  H   UNL     1       9.555  -0.965  25.177  0.00  0.00    +0.210 HD
ENDBRANCH  35  52
ENDBRANCH  33  37
ENDBRANCH  32  33
ENDBRANCH  29  32
ENDBRANCH  28  29
ENDBRANCH   1  28
TORSDOF 16
ENDMDL
