MODEL 1
REMARK VINA RESULT:      -4.5      0.000      0.000
REMARK  Name = 
REMARK  8 active torsions:
REMARK  status: ('A' for Active; 'I' for Inactive)
REMARK    1  A    between atoms: O_1  and  N_2
REMARK    2  A    between atoms: C_3  and  C_5
REMARK    3  A    between atoms: C_5  and  O_7
REMARK    4  A    between atoms: C_5  and  C_8
REMARK    5  A    between atoms: C_8  and  O_10
REMARK    6  A    between atoms: C_8  and  C_11
REMARK    7  A    between atoms: C_11  and  O_13
REMARK    8  A    between atoms: C_11  and  C_14
REMARK                            x       y       z     vdW  Elec       q    Type
REMARK                         _______ _______ _______ _____ _____    ______ ____
ROOT
ATOM      1  C   UNL     1       9.159  -1.419  21.798  0.00  0.00    +0.233 C 
ENDROOT
BRANCH   1   4
ATOM      2  N   UNL     1       9.574  -2.527  23.882  0.00  0.00    -0.195 N 
ATOM      3  H   UNL     1      10.197  -1.729  24.017  0.00  0.00    +0.182 HD
ATOM      4  C   UNL     1       8.623  -2.351  22.888  0.00  0.00    +0.267 C 
ATOM      5  O   UNL     1       7.512  -2.876  22.873  0.00  0.00    -0.271 OA
BRANCH   2   6
ATOM      6  O   UNL     1       9.153  -3.264  25.014  0.00  0.00    -0.295 OA
ATOM      7  H   UNL     1       8.482  -3.865  24.644  0.00  0.00    +0.241 HD
ENDBRANCH   2   6
ENDBRANCH   1   4
BRANCH   1   8
ATOM      8  O   UNL     1      10.590  -1.612  21.715  0.00  0.00    -0.380 OA
ATOM      9  H   UNL     1      10.680  -2.581  21.541  0.00  0.00    +0.211 HD
ENDBRANCH   1   8
BRANCH   1  10
ATOM     10  C   UNL     1       8.779   0.057  22.065  0.00  0.00    +0.186 C 
BRANCH  10  11
ATOM     11  O   UNL     1       7.998   0.165  23.284  0.00  0.00    -0.386 OA
ATOM     12  H   UNL     1       8.098  -0.701  23.724  0.00  0.00    +0.210 HD
ENDBRANCH  10  11
BRANCH  10  13
ATOM     13  C   UNL     1      10.021   0.935  22.248  0.00  0.00    +0.191 C 
BRANCH  13  14
ATOM     14  C   UNL     1      10.321   1.186  23.754  0.00  0.00    +0.073 C 
ATOM     15  O   UNL     1      10.854   0.226  24.379  0.00  0.00    -0.547 OA
ATOM     16  O   UNL     1       9.973   2.322  24.195  0.00  0.00    -0.547 OA
ENDBRANCH  13  14
BRANCH  13  17
ATOM     17  O   UNL     1       9.830   2.172  21.498  0.00  0.00    -0.383 OA
ATOM     18  H   UNL     1       9.018   2.556  21.870  0.00  0.00    +0.210 HD
ENDBRANCH  13  17
ENDBRANCH  10  13
ENDBRANCH   1  10
TORSDOF 8
ENDMDL
MODEL 2
REMARK VINA RESULT:      -4.3      2.806      3.941
REMARK  Name = 
REMARK  8 active torsions:
REMARK  status: ('A' for Active; 'I' for Inactive)
REMARK    1  A    between atoms: O_1  and  N_2
REMARK    2  A    between atoms: C_3  and  C_5
REMARK    3  A    between atoms: C_5  and  O_7
REMARK    4  A    between atoms: C_5  and  C_8
REMARK    5  A    between atoms: C_8  and  O_10
REMARK    6  A    between atoms: C_8  and  C_11
REMARK    7  A    between atoms: C_11  and  O_13
REMARK    8  A    between atoms: C_11  and  C_14
REMARK                            x       y       z     vdW  Elec       q    Type
REMARK                         _______ _______ _______ _____ _____    ______ ____
ROOT
ATOM      1  C   UNL     1       8.610  -4.874  24.418  0.00  0.00    +0.233 C 
ENDROOT
BRANCH   1   4
ATOM      2  N   UNL     1       8.394  -5.624  26.683  0.00  0.00    -0.195 N 
ATOM      3  H   UNL     1       9.201  -5.011  26.811  0.00  0.00    +0.182 HD
ATOM      4  C   UNL     1       7.680  -5.398  25.516  0.00  0.00    +0.267 C 
ATOM      5  O   UNL     1       6.477  -5.600  25.374  0.00  0.00    -0.271 OA
BRANCH   2   6
ATOM      6  O   UNL     1       7.625  -5.987  27.815  0.00  0.00    -0.295 OA
ATOM      7  H   UNL     1       7.314  -6.881  27.588  0.00  0.00    +0.241 HD
ENDBRANCH   2   6
ENDBRANCH   1   4
BRANCH   1   8
ATOM      8  O   UNL     1       9.973  -5.100  24.846  0.00  0.00    -0.380 OA
ATOM      9  H   UNL     1      10.318  -4.187  25.001  0.00  0.00    +0.211 HD
ENDBRANCH   1   8
BRANCH   1  10
ATOM     10  C   UNL     1       8.335  -3.387  24.091  0.00  0.00    +0.186 C 
BRANCH  10  11
ATOM     11  O   UNL     1       7.306  -2.860  24.970  0.00  0.00    -0.386 OA
ATOM     12  H   UNL     1       6.469  -3.226  24.625  0.00  0.00    +0.210 HD
ENDBRANCH  10  11
BRANCH  10  13
ATOM     13  C   UNL     1       9.584  -2.525  24.293  0.00  0.00    +0.191 C 
BRANCH  13  14
ATOM     14  C   UNL     1       9.209  -1.051  24.625  0.00  0.00    +0.073 C 
ATOM     15  O   UNL     1       9.374  -0.695  25.827  0.00  0.00    -0.547 OA
ATOM     16  O   UNL     1       8.753  -0.375  23.655  0.00  0.00    -0.547 OA
ENDBRANCH  13  14
BRANCH  13  17
ATOM     17  O   UNL     1      10.424  -2.638  23.106  0.00  0.00    -0.383 OA
ATOM     18  H   UNL     1      10.094  -3.434  22.654  0.00  0.00    +0.210 HD
ENDBRANCH  13  17
ENDBRANCH  10  13
ENDBRANCH   1  10
TORSDOF 8
ENDMDL
MODEL 3
REMARK VINA RESULT:      -4.2      5.146      5.959
REMARK  Name = 
REMARK  8 active torsions:
REMARK  status: ('A' for Active; 'I' for Inactive)
REMARK    1  A    between atoms: O_1  and  N_2
REMARK    2  A    between atoms: C_3  and  C_5
REMARK    3  A    between atoms: C_5  and  O_7
REMARK    4  A    between atoms: C_5  and  C_8
REMARK    5  A    between atoms: C_8  and  O_10
REMARK    6  A    between atoms: C_8  and  C_11
REMARK    7  A    between atoms: C_11  and  O_13
REMARK    8  A    between atoms: C_11  and  C_14
REMARK                            x       y       z     vdW  Elec       q    Type
REMARK                         _______ _______ _______ _____ _____    ______ ____
ROOT
ATOM      1  C   UNL     1       7.404  -4.777  22.610  0.00  0.00    +0.233 C 
ENDROOT
BRANCH   1   4
ATOM      2  N   UNL     1       5.399  -6.089  22.554  0.00  0.00    -0.195 N 
ATOM      3  H   UNL     1       5.896  -6.617  23.272  0.00  0.00    +0.182 HD
ATOM      4  C   UNL     1       5.898  -4.815  22.328  0.00  0.00    +0.267 C 
ATOM      5  O   UNL     1       5.236  -3.854  21.944  0.00  0.00    -0.271 OA
BRANCH   2   6
ATOM      6  O   UNL     1       3.993  -6.225  22.455  0.00  0.00    -0.295 OA
ATOM      7  H   UNL     1       3.665  -5.503  23.019  0.00  0.00    +0.241 HD
ENDBRANCH   2   6
ENDBRANCH   1   4
BRANCH   1   8
ATOM      8  O   UNL     1       7.933  -6.100  22.363  0.00  0.00    -0.380 OA
ATOM      9  H   UNL     1       7.168  -6.582  21.964  0.00  0.00    +0.211 HD
ENDBRANCH   1   8
BRANCH   1  10
ATOM     10  C   UNL     1       7.708  -4.280  24.043  0.00  0.00    +0.186 C 
BRANCH  10  11
ATOM     11  O   UNL     1       6.479  -3.915  24.723  0.00  0.00    -0.386 OA
ATOM     12  H   UNL     1       5.771  -4.081  24.070  0.00  0.00    +0.210 HD
ENDBRANCH  10  11
BRANCH  10  13
ATOM     13  C   UNL     1       8.383  -5.366  24.885  0.00  0.00    +0.191 C 
BRANCH  13  14
ATOM     14  C   UNL     1       8.051  -5.200  26.397  0.00  0.00    +0.073 C 
ATOM     15  O   UNL     1       7.206  -6.012  26.870  0.00  0.00    -0.547 OA
ATOM     16  O   UNL     1       8.647  -4.248  26.982  0.00  0.00    -0.547 OA
ENDBRANCH  13  14
BRANCH  13  17
ATOM     17  O   UNL     1       9.817  -5.338  24.617  0.00  0.00    -0.383 OA
ATOM     18  H   UNL     1       9.963  -6.088  24.015  0.00  0.00    +0.210 HD
ENDBRANCH  13  17
ENDBRANCH  10  13
ENDBRANCH   1  10
TORSDOF 8
ENDMDL
MODEL 4
REMARK VINA RESULT:      -4.2      2.191      4.513
REMARK  Name = 
REMARK  8 active torsions:
REMARK  status: ('A' for Active; 'I' for Inactive)
REMARK    1  A    between atoms: O_1  and  N_2
REMARK    2  A    between atoms: C_3  and  C_5
REMARK    3  A    between atoms: C_5  and  O_7
REMARK    4  A    between atoms: C_5  and  C_8
REMARK    5  A    between atoms: C_8  and  O_10
REMARK    6  A    between atoms: C_8  and  C_11
REMARK    7  A    between atoms: C_11  and  O_13
REMARK    8  A    between atoms: C_11  and  C_14
REMARK                            x       y       z     vdW  Elec       q    Type
REMARK                         _______ _______ _______ _____ _____    ______ ____
ROOT
ATOM      1  C   UNL     1      10.081   1.176  22.108  0.00  0.00    +0.233 C 
ENDROOT
BRANCH   1   4
ATOM      2  N   UNL     1       8.767   3.176  22.229  0.00  0.00    -0.195 N 
ATOM      3  H   UNL     1       8.016   2.525  21.997  0.00  0.00    +0.182 HD
ATOM      4  C   UNL     1       9.920   2.575  22.710  0.00  0.00    +0.267 C 
ATOM      5  O   UNL     1      10.711   3.091  23.495  0.00  0.00    -0.271 OA
BRANCH   2   6
ATOM      6  O   UNL     1       8.435   4.424  22.809  0.00  0.00    -0.295 OA
ATOM      7  H   UNL     1       7.750   4.185  23.459  0.00  0.00    +0.241 HD
ENDBRANCH   2   6
ENDBRANCH   1   4
BRANCH   1   8
ATOM      8  O   UNL     1       9.072   1.016  21.084  0.00  0.00    -0.380 OA
ATOM      9  H   UNL     1       9.102   1.876  20.598  0.00  0.00    +0.211 HD
ENDBRANCH   1   8
BRANCH   1  10
ATOM     10  C   UNL     1      10.001   0.072  23.189  0.00  0.00    +0.186 C 
BRANCH  10  11
ATOM     11  O   UNL     1       9.157   0.503  24.289  0.00  0.00    -0.386 OA
ATOM     12  H   UNL     1       8.854  -0.324  24.713  0.00  0.00    +0.210 HD
ENDBRANCH  10  11
BRANCH  10  13
ATOM     13  C   UNL     1       9.391  -1.218  22.634  0.00  0.00    +0.191 C 
BRANCH  13  14
ATOM     14  C   UNL     1       9.258  -2.305  23.740  0.00  0.00    +0.073 C 
ATOM     15  O   UNL     1      10.233  -3.102  23.853  0.00  0.00    -0.547 OA
ATOM     16  O   UNL     1       8.171  -2.288  24.391  0.00  0.00    -0.547 OA
ENDBRANCH  13  14
BRANCH  13  17
ATOM     17  O   UNL     1      10.197  -1.663  21.502  0.00  0.00    -0.383 OA
ATOM     18  H   UNL     1      11.049  -1.209  21.620  0.00  0.00    +0.210 HD
ENDBRANCH  13  17
ENDBRANCH  10  13
ENDBRANCH   1  10
TORSDOF 8
ENDMDL
MODEL 5
REMARK VINA RESULT:      -4.1      1.672      4.441
REMARK  Name = 
REMARK  8 active torsions:
REMARK  status: ('A' for Active; 'I' for Inactive)
REMARK    1  A    between atoms: O_1  and  N_2
REMARK    2  A    between atoms: C_3  and  C_5
REMARK    3  A    between atoms: C_5  and  O_7
REMARK    4  A    between atoms: C_5  and  C_8
REMARK    5  A    between atoms: C_8  and  O_10
REMARK    6  A    between atoms: C_8  and  C_11
REMARK    7  A    between atoms: C_11  and  O_13
REMARK    8  A    between atoms: C_11  and  C_14
REMARK                            x       y       z     vdW  Elec       q    Type
REMARK                         _______ _______ _______ _____ _____    ______ ____
ROOT
ATOM      1  C   UNL     1       8.046  -0.441  22.402  0.00  0.00    +0.233 C 
ENDROOT
BRANCH   1   4
ATOM      2  N   UNL     1       9.427   1.271  21.452  0.00  0.00    -0.195 N 
ATOM      3  H   UNL     1       8.636   1.352  20.811  0.00  0.00    +0.182 HD
ATOM      4  C   UNL     1       9.143   0.602  22.633  0.00  0.00    +0.267 C 
ATOM      5  O   UNL     1       9.698   0.804  23.710  0.00  0.00    -0.271 OA
BRANCH   2   6
ATOM      6  O   UNL     1      10.333   2.353  21.559  0.00  0.00    -0.295 OA
ATOM      7  H   UNL     1      10.691   2.248  22.459  0.00  0.00    +0.241 HD
ENDBRANCH   2   6
ENDBRANCH   1   4
BRANCH   1   8
ATOM      8  O   UNL     1       7.136  -0.381  23.523  0.00  0.00    -0.380 OA
ATOM      9  H   UNL     1       6.275  -0.673  23.135  0.00  0.00    +0.211 HD
ENDBRANCH   1   8
BRANCH   1  10
ATOM     10  C   UNL     1       8.633  -1.858  22.195  0.00  0.00    +0.186 C 
BRANCH  10  11
ATOM     11  O   UNL     1      10.082  -1.821  22.276  0.00  0.00    -0.386 OA
ATOM     12  H   UNL     1      10.290  -0.948  22.663  0.00  0.00    +0.210 HD
ENDBRANCH  10  11
BRANCH  10  13
ATOM     13  C   UNL     1       8.147  -2.832  23.272  0.00  0.00    +0.191 C 
BRANCH  13  14
ATOM     14  C   UNL     1       9.179  -2.957  24.431  0.00  0.00    +0.073 C 
ATOM     15  O   UNL     1       9.155  -2.035  25.295  0.00  0.00    -0.547 OA
ATOM     16  O   UNL     1       9.949  -3.961  24.366  0.00  0.00    -0.547 OA
ENDBRANCH  13  14
BRANCH  13  17
ATOM     17  O   UNL     1       7.852  -4.113  22.640  0.00  0.00    -0.383 OA
ATOM     18  H   UNL     1       8.675  -4.349  22.179  0.00  0.00    +0.210 HD
ENDBRANCH  13  17
ENDBRANCH  10  13
ENDBRANCH   1  10
TORSDOF 8
ENDMDL
MODEL 6
REMARK VINA RESULT:      -4.1      1.662      4.548
REMARK  Name = 
REMARK  8 active torsions:
REMARK  status: ('A' for Active; 'I' for Inactive)
REMARK    1  A    between atoms: O_1  and  N_2
REMARK    2  A    between atoms: C_3  and  C_5
REMARK    3  A    between atoms: C_5  and  O_7
REMARK    4  A    between atoms: C_5  and  C_8
REMARK    5  A    between atoms: C_8  and  O_10
REMARK    6  A    between atoms: C_8  and  C_11
REMARK    7  A    between atoms: C_11  and  O_13
REMARK    8  A    between atoms: C_11  and  C_14
REMARK                            x       y       z     vdW  Elec       q    Type
REMARK                         _______ _______ _______ _____ _____    ______ ____
ROOT
ATOM      1  C   UNL     1      10.448  -0.915  22.761  0.00  0.00    +0.233 C 
ENDROOT
BRANCH   1   4
ATOM      2  N   UNL     1       9.575   0.919  21.488  0.00  0.00    -0.195 N 
ATOM      3  H   UNL     1       9.046   0.169  21.041  0.00  0.00    +0.182 HD
ATOM      4  C   UNL     1      10.124   0.582  22.716  0.00  0.00    +0.267 C 
ATOM      5  O   UNL     1      10.335   1.369  23.636  0.00  0.00    -0.271 OA
BRANCH   2   6
ATOM      6  O   UNL     1       9.111   2.250  21.366  0.00  0.00    -0.295 OA
ATOM      7  H   UNL     1       8.703   2.256  20.482  0.00  0.00    +0.241 HD
ENDBRANCH   2   6
ENDBRANCH   1   4
BRANCH   1   8
ATOM      8  O   UNL     1      10.076  -1.486  21.486  0.00  0.00    -0.380 OA
ATOM      9  H   UNL     1       9.312  -2.070  21.711  0.00  0.00    +0.211 HD
ENDBRANCH   1   8
BRANCH   1  10
ATOM     10  C   UNL     1       9.748  -1.619  23.948  0.00  0.00    +0.186 C 
BRANCH  10  11
ATOM     11  O   UNL     1       8.597  -0.850  24.384  0.00  0.00    -0.386 OA
ATOM     12  H   UNL     1       8.420  -0.226  23.654  0.00  0.00    +0.210 HD
ENDBRANCH  10  11
BRANCH  10  13
ATOM     13  C   UNL     1       9.239  -3.009  23.558  0.00  0.00    +0.191 C 
BRANCH  13  14
ATOM     14  C   UNL     1       7.689  -3.028  23.420  0.00  0.00    +0.073 C 
ATOM     15  O   UNL     1       7.224  -2.561  22.341  0.00  0.00    -0.547 OA
ATOM     16  O   UNL     1       7.060  -3.487  24.419  0.00  0.00    -0.547 OA
ENDBRANCH  13  14
BRANCH  13  17
ATOM     17  O   UNL     1       9.729  -3.975  24.535  0.00  0.00    -0.383 OA
ATOM     18  H   UNL     1      10.442  -3.505  25.002  0.00  0.00    +0.210 HD
ENDBRANCH  13  17
ENDBRANCH  10  13
ENDBRANCH   1  10
TORSDOF 8
ENDMDL
MODEL 7
REMARK VINA RESULT:      -4.1      3.935      5.230
REMARK  Name = 
REMARK  8 active torsions:
REMARK  status: ('A' for Active; 'I' for Inactive)
REMARK    1  A    between atoms: O_1  and  N_2
REMARK    2  A    between atoms: C_3  and  C_5
REMARK    3  A    between atoms: C_5  and  O_7
REMARK    4  A    between atoms: C_5  and  C_8
REMARK    5  A    between atoms: C_8  and  O_10
REMARK    6  A    between atoms: C_8  and  C_11
REMARK    7  A    between atoms: C_11  and  O_13
REMARK    8  A    between atoms: C_11  and  C_14
REMARK                            x       y       z     vdW  Elec       q    Type
REMARK                         _______ _______ _______ _____ _____    ______ ____
ROOT
ATOM      1  C   UNL     1       8.828  -4.798  24.586  0.00  0.00    +0.233 C 
ENDROOT
BRANCH   1   4
ATOM      2  N   UNL     1       7.985  -5.921  26.528  0.00  0.00    -0.195 N 
ATOM      3  H   UNL     1       8.551  -6.685  26.155  0.00  0.00    +0.182 HD
ATOM      4  C   UNL     1       8.299  -4.670  26.018  0.00  0.00    +0.267 C 
ATOM      5  O   UNL     1       8.163  -3.608  26.619  0.00  0.00    -0.271 OA
BRANCH   2   6
ATOM      6  O   UNL     1       7.609  -5.953  27.892  0.00  0.00    -0.295 OA
ATOM      7  H   UNL     1       6.663  -5.726  27.861  0.00  0.00    +0.241 HD
ENDBRANCH   2   6
ENDBRANCH   1   4
BRANCH   1   8
ATOM      8  O   UNL     1       9.830  -3.775  24.391  0.00  0.00    -0.380 OA
ATOM      9  H   UNL     1       9.313  -3.013  24.032  0.00  0.00    +0.211 HD
ENDBRANCH   1   8
BRANCH   1  10
ATOM     10  C   UNL     1       7.688  -4.712  23.542  0.00  0.00    +0.186 C 
BRANCH  10  11
ATOM     11  O   UNL     1       6.515  -5.423  24.016  0.00  0.00    -0.386 OA
ATOM     12  H   UNL     1       6.266  -4.972  24.846  0.00  0.00    +0.210 HD
ENDBRANCH  10  11
BRANCH  10  13
ATOM     13  C   UNL     1       7.265  -3.263  23.289  0.00  0.00    +0.191 C 
BRANCH  13  14
ATOM     14  C   UNL     1       5.730  -3.153  23.054  0.00  0.00    +0.073 C 
ATOM     15  O   UNL     1       5.326  -3.445  21.892  0.00  0.00    -0.547 OA
ATOM     16  O   UNL     1       5.055  -2.756  24.050  0.00  0.00    -0.547 OA
ENDBRANCH  13  14
BRANCH  13  17
ATOM     17  O   UNL     1       8.044  -2.739  22.172  0.00  0.00    -0.383 OA
ATOM     18  H   UNL     1       8.597  -2.045  22.570  0.00  0.00    +0.210 HD
ENDBRANCH  13  17
ENDBRANCH  10  13
ENDBRANCH   1  10
TORSDOF 8
ENDMDL
MODEL 8
REMARK VINA RESULT:      -4.1      2.743      4.619
REMARK  Name = 
REMARK  8 active torsions:
REMARK  status: ('A' for Active; 'I' for Inactive)
REMARK    1  A    between atoms: O_1  and  N_2
REMARK    2  A    between atoms: C_3  and  C_5
REMARK    3  A    between atoms: C_5  and  O_7
REMARK    4  A    between atoms: C_5  and  C_8
REMARK    5  A    between atoms: C_8  and  O_10
REMARK    6  A    between atoms: C_8  and  C_11
REMARK    7  A    between atoms: C_11  and  O_13
REMARK    8  A    between atoms: C_11  and  C_14
REMARK                            x       y       z     vdW  Elec       q    Type
REMARK                         _______ _______ _______ _____ _____    ______ ____
ROOT
ATOM      1  C   UNL     1       9.211   2.245  22.657  0.00  0.00    +0.233 C 
ENDROOT
BRANCH   1   4
ATOM      2  N   UNL     1       8.060   4.311  22.277  0.00  0.00    -0.195 N 
ATOM      3  H   UNL     1       9.009   4.639  22.089  0.00  0.00    +0.182 HD
ATOM      4  C   UNL     1       7.909   2.933  22.239  0.00  0.00    +0.267 C 
ATOM      5  O   UNL     1       6.877   2.344  21.926  0.00  0.00    -0.271 OA
BRANCH   2   6
ATOM      6  O   UNL     1       6.967   5.065  21.786  0.00  0.00    -0.295 OA
ATOM      7  H   UNL     1       6.929   4.804  20.849  0.00  0.00    +0.241 HD
ENDBRANCH   2   6
ENDBRANCH   1   4
BRANCH   1   8
ATOM      8  O   UNL     1      10.000   2.026  21.465  0.00  0.00    -0.380 OA
ATOM      9  H   UNL     1       9.514   1.303  20.999  0.00  0.00    +0.211 HD
ENDBRANCH   1   8
BRANCH   1  10
ATOM     10  C   UNL     1       8.945   0.934  23.435  0.00  0.00    +0.186 C 
BRANCH  10  11
ATOM     11  O   UNL     1       8.153   0.021  22.630  0.00  0.00    -0.386 OA
ATOM     12  H   UNL     1       7.310   0.489  22.475  0.00  0.00    +0.210 HD
ENDBRANCH  10  11
BRANCH  10  13
ATOM     13  C   UNL     1      10.248   0.210  23.784  0.00  0.00    +0.191 C 
BRANCH  13  14
ATOM     14  C   UNL     1      10.144  -1.316  23.500  0.00  0.00    +0.073 C 
ATOM     15  O   UNL     1      10.610  -1.706  22.392  0.00  0.00    -0.547 OA
ATOM     16  O   UNL     1       9.576  -1.999  24.404  0.00  0.00    -0.547 OA
ENDBRANCH  13  14
BRANCH  13  17
ATOM     17  O   UNL     1      10.584   0.503  25.173  0.00  0.00    -0.383 OA
ATOM     18  H   UNL     1      11.519   0.771  25.143  0.00  0.00    +0.210 HD
ENDBRANCH  13  17
ENDBRANCH  10  13
ENDBRANCH   1  10
TORSDOF 8
ENDMDL
MODEL 9
REMARK VINA RESULT:      -4.0      1.503      2.412
REMARK  Name = 
REMARK  8 active torsions:
REMARK  status: ('A' for Active; 'I' for Inactive)
REMARK    1  A    between atoms: O_1  and  N_2
REMARK    2  A    between atoms: C_3  and  C_5
REMARK    3  A    between atoms: C_5  and  O_7
REMARK    4  A    between atoms: C_5  and  C_8
REMARK    5  A    between atoms: C_8  and  O_10
REMARK    6  A    between atoms: C_8  and  C_11
REMARK    7  A    between atoms: C_11  and  O_13
REMARK    8  A    between atoms: C_11  and  C_14
REMARK                            x       y       z     vdW  Elec       q    Type
REMARK                         _______ _______ _______ _____ _____    ______ ____
ROOT
ATOM      1  C   UNL     1      10.509  -0.601  23.785  0.00  0.00    +0.233 C 
ENDROOT
BRANCH   1   4
ATOM      2  N   UNL     1       8.517  -1.593  24.674  0.00  0.00    -0.195 N 
ATOM      3  H   UNL     1       8.128  -0.680  24.435  0.00  0.00    +0.182 HD
ATOM      4  C   UNL     1       9.720  -1.887  24.050  0.00  0.00    +0.267 C 
ATOM      5  O   UNL     1      10.109  -3.016  23.760  0.00  0.00    -0.271 OA
BRANCH   2   6
ATOM      6  O   UNL     1       7.635  -2.685  24.856  0.00  0.00    -0.295 OA
ATOM      7  H   UNL     1       6.802  -2.357  24.475  0.00  0.00    +0.241 HD
ENDBRANCH   2   6
ENDBRANCH   1   4
BRANCH   1   8
ATOM      8  O   UNL     1      10.265   0.303  24.887  0.00  0.00    -0.380 OA
ATOM      9  H   UNL     1       9.289   0.239  25.023  0.00  0.00    +0.211 HD
ENDBRANCH   1   8
BRANCH   1  10
ATOM     10  C   UNL     1      10.144   0.027  22.418  0.00  0.00    +0.186 C 
BRANCH  10  11
ATOM     11  O   UNL     1       9.098  -0.744  21.772  0.00  0.00    -0.386 OA
ATOM     12  H   UNL     1       9.448  -0.949  20.883  0.00  0.00    +0.210 HD
ENDBRANCH  10  11
BRANCH  10  13
ATOM     13  C   UNL     1       9.619   1.456  22.576  0.00  0.00    +0.191 C 
BRANCH  13  14
ATOM     14  C   UNL     1       8.063   1.495  22.543  0.00  0.00    +0.073 C 
ATOM     15  O   UNL     1       7.476   1.038  23.565  0.00  0.00    -0.547 OA
ATOM     16  O   UNL     1       7.554   1.958  21.479  0.00  0.00    -0.547 OA
ENDBRANCH  13  14
BRANCH  13  17
ATOM     17  O   UNL     1      10.225   2.291  21.545  0.00  0.00    -0.383 OA
ATOM     18  H   UNL     1      11.182   2.187  21.684  0.00  0.00    +0.210 HD
ENDBRANCH  13  17
ENDBRANCH  10  13
ENDBRANCH   1  10
TORSDOF 8
ENDMDL
