MODEL 1
REMARK VINA RESULT:       7.7      0.000      0.000
REMARK  Name = 
REMARK  43 active torsions:
REMARK  status: ('A' for Active; 'I' for Inactive)
REMARK    1  A    between atoms: C_2  and  C_90
REMARK    2  A    between atoms: C_6  and  C_8
REMARK    3  A    between atoms: C_8  and  C_9
REMARK    4  A    between atoms: C_9  and  N_10
REMARK    5  A    between atoms: C_14  and  C_16
REMARK    6  A    between atoms: C_16  and  C_17
REMARK    7  A    between atoms: C_17  and  N_18
REMARK    8  A    between atoms: C_22  and  C_24
REMARK    9  A    between atoms: C_24  and  C_25
REMARK   10  A    between atoms: C_25  and  C_26
REMARK   11  A    between atoms: C_25  and  C_27
REMARK   12  A    between atoms: C_31  and  C_33
REMARK   13  A    between atoms: C_33  and  C_34
REMARK   14  A    between atoms: C_34  and  C_35
REMARK   15  A    between atoms: C_34  and  C_36
REMARK   16  A    between atoms: C_40  and  C_42
REMARK   17  A    between atoms: C_42  and  C_43
REMARK   18  A    between atoms: C_43  and  N_44
REMARK   19  A    between atoms: C_48  and  N_55
REMARK   20  A    between atoms: C_56  and  C_58
REMARK   21  A    between atoms: C_58  and  C_60
REMARK   22  A    between atoms: C_58  and  N_63
REMARK   23  A    between atoms: C_60  and  C_61
REMARK   24  A    between atoms: C_61  and  N_62
REMARK   25  A    between atoms: C_64  and  C_66
REMARK   26  A    between atoms: C_66  and  N_68
REMARK   27  A    between atoms: C_66  and  C_86
REMARK   28  A    between atoms: C_69  and  C_71
REMARK   29  A    between atoms: C_71  and  C_73
REMARK   30  A    between atoms: C_71  and  N_76
REMARK   31  A    between atoms: C_73  and  C_74
REMARK   32  A    between atoms: C_74  and  N_75
REMARK   33  A    between atoms: C_77  and  C_79
REMARK   34  A    between atoms: C_79  and  C_80
REMARK   35  A    between atoms: C_80  and  C_81
REMARK   36  A    between atoms: C_81  and  C_82
REMARK   37  A    between atoms: C_82  and  C_83
REMARK   38  A    between atoms: C_82  and  C_84
REMARK   39  A    between atoms: C_84  and  C_85
REMARK   40  A    between atoms: C_86  and  C_88
REMARK   41  A    between atoms: C_86  and  O_89
REMARK   42  A    between atoms: C_90  and  C_92
REMARK   43  A    between atoms: C_90  and  O_93
REMARK                            x       y       z     vdW  Elec       q    Type
REMARK                         _______ _______ _______ _____ _____    ______ ____
ROOT
ATOM      1  C   UNL     1       1.209  -7.315  25.594  0.00  0.00    +0.187 C 
ATOM      2  C   UNL     1       1.627  -5.225  25.126  0.00  0.00    +0.236 C 
ATOM      3  O   UNL     1       1.968  -5.281  23.898  0.00  0.00    -0.274 OA
ATOM      4  N   UNL     1       1.763  -3.205  25.332  0.00  0.00    -0.314 N 
ATOM      5  H   UNL     1       1.889  -3.347  24.306  0.00  0.00    +0.149 HD
ATOM      6  C   UNL     1       2.148  -1.209  24.947  0.00  0.00    +0.106 C 
ATOM      7  C   UNL     1       2.432   0.929  25.110  0.00  0.00    +0.050 C 
ATOM      8  C   UNL     1       3.148   2.978  25.127  0.00  0.00    +0.160 C 
ATOM      9  C   UNL     1       3.111   4.391  26.374  0.00  0.00    +0.234 C 
ATOM     10  O   UNL     1       2.575   5.521  26.250  0.00  0.00    -0.274 OA
ATOM     11  N   UNL     1       4.162   4.494  27.265  0.00  0.00    -0.302 N 
ATOM     12  H   UNL     1       5.029   4.272  26.760  0.00  0.00    +0.150 HD
ATOM     13  C   UNL     1       3.816   3.581  28.272  0.00  0.00    +0.160 C 
ATOM     14  C   UNL     1       4.163   2.256  27.504  0.00  0.00    +0.234 C 
ATOM     15  O   UNL     1       4.853   2.178  26.492  0.00  0.00    -0.274 OA
ATOM     16  N   UNL     1       3.558   1.204  28.055  0.00  0.00    -0.302 N 
ATOM     17  H   UNL     1       3.819   1.172  29.031  0.00  0.00    +0.150 HD
ATOM     18  C   UNL     1       3.230  -0.081  27.480  0.00  0.00    +0.159 C 
ATOM     19  C   UNL     1       3.828  -1.181  28.306  0.00  0.00    +0.234 C 
ATOM     20  O   UNL     1       4.121  -1.003  29.485  0.00  0.00    -0.274 OA
ATOM     21  N   UNL     1       3.691  -2.408  27.712  0.00  0.00    -0.302 N 
ATOM     22  H   UNL     1       3.546  -2.532  26.704  0.00  0.00    +0.150 HD
ATOM     23  C   UNL     1       3.384  -3.556  28.535  0.00  0.00    +0.159 C 
ATOM     24  C   UNL     1       3.591  -4.738  27.634  0.00  0.00    +0.234 C 
ATOM     25  O   UNL     1       3.812  -4.646  26.433  0.00  0.00    -0.274 OA
ATOM     26  N   UNL     1       3.588  -5.908  28.318  0.00  0.00    -0.302 N 
ATOM     27  H   UNL     1       3.229  -5.933  29.261  0.00  0.00    +0.150 HD
ATOM     28  C   UNL     1       3.372  -7.147  27.678  0.00  0.00    +0.160 C 
ATOM     29  C   UNL     1       3.298  -8.162  28.843  0.00  0.00    +0.234 C 
ATOM     30  O   UNL     1       2.922  -7.780  29.950  0.00  0.00    -0.274 OA
ATOM     31  N   UNL     1       3.462  -9.485  28.548  0.00  0.00    -0.302 N 
ATOM     32  H   UNL     1       3.726  -9.664  27.584  0.00  0.00    +0.150 HD
ATOM     33  C   UNL     1       2.399 -10.390  28.881  0.00  0.00    +0.160 C 
ATOM     34  C   UNL     1       1.326  -9.991  27.705  0.00  0.00    +0.234 C 
ATOM     35  O   UNL     1       0.443 -10.834  27.526  0.00  0.00    -0.274 OA
ATOM     36  N   UNL     1       1.586  -8.629  26.942  0.00  0.00    -0.300 N 
ATOM     37  H   UNL     1       2.276  -9.148  26.367  0.00  0.00    +0.150 HD
ENDROOT
BRANCH   8  38
ATOM     38  N   UNL     1       4.155   4.576  24.580  0.00  0.00    -0.302 N 
ATOM     39  H   UNL     1       5.155   4.499  24.942  0.00  0.00    +0.150 HD
ATOM     40  C   UNL     1       4.608   5.531  23.288  0.00  0.00    +0.234 C 
ATOM     41  O   UNL     1       3.963   5.348  22.236  0.00  0.00    -0.274 OA
BRANCH  40  42
ATOM     42  C   UNL     1       6.008   6.823  22.967  0.00  0.00    +0.160 C 
BRANCH  42  43
ATOM     43  N   UNL     1       7.250   6.681  23.999  0.00  0.00    -0.302 N 
ATOM     44  H   UNL     1       8.143   7.042  23.667  0.00  0.00    +0.150 HD
ATOM     45  C   UNL     1       7.248   6.364  25.365  0.00  0.00    +0.236 C 
ATOM     46  O   UNL     1       6.233   6.380  26.066  0.00  0.00    -0.274 OA
BRANCH  45  47
ATOM     47  C   UNL     1       8.656   5.966  26.015  0.00  0.00    +0.187 C 
BRANCH  47  48
ATOM     48  N   UNL     1       9.139   4.610  25.674  0.00  0.00    -0.300 N 
ATOM     49  H   UNL     1       9.140   3.924  26.426  0.00  0.00    +0.150 HD
ATOM     50  C   UNL     1       9.436   4.247  24.379  0.00  0.00    +0.234 C 
ATOM     51  O   UNL     1       9.376   5.063  23.458  0.00  0.00    -0.274 OA
BRANCH  50  52
ATOM     52  C   UNL     1       9.908   2.783  24.145  0.00  0.00    +0.160 C 
BRANCH  52  53
ATOM     53  N   UNL     1       9.050   1.892  24.944  0.00  0.00    -0.304 N 
ATOM     54  H   UNL     1       9.442   1.540  25.814  0.00  0.00    +0.149 HD
ATOM     55  C   UNL     1       7.766   1.563  24.577  0.00  0.00    +0.214 C 
ATOM     56  O   UNL     1       7.261   1.918  23.515  0.00  0.00    -0.276 OA
BRANCH  55  57
ATOM     57  C   UNL     1       6.980   0.732  25.576  0.00  0.00    +0.096 C 
BRANCH  57  58
ATOM     58  C   UNL     1       6.769  -0.703  25.116  0.00  0.00    +0.009 C 
BRANCH  58  59
ATOM     59  C   UNL     1       8.038  -1.327  24.522  0.00  0.00    +0.004 C 
BRANCH  59  60
ATOM     60  C   UNL     1       8.746  -2.260  25.521  0.00  0.00    -0.014 C 
ATOM     61  C   UNL     1       7.935  -2.384  26.818  0.00  0.00    +0.007 C 
BRANCH  60  62
ATOM     62  C   UNL     1       8.966  -3.641  24.878  0.00  0.00    -0.000 C 
ATOM     63  C   UNL     1       7.673  -4.435  24.756  0.00  0.00    +0.004 C 
ENDBRANCH  60  62
ENDBRANCH  59  60
ENDBRANCH  58  59
ENDBRANCH  57  58
ENDBRANCH  55  57
ENDBRANCH  52  53
BRANCH  52  64
ATOM     64  C   UNL     1       9.816   2.447  22.646  0.00  0.00    +0.046 C 
BRANCH  64  65
ATOM     65  C   UNL     1      10.278   1.027  22.334  0.00  0.00    +0.080 C 
BRANCH  65  66
ATOM     66  N   UNL     1      11.028   0.482  23.457  0.00  0.00    -0.330 NA
ATOM     67  H   UNL     1      10.400   0.353  24.250  0.00  0.00    +0.118 HD
ATOM     68  H   UNL     1      11.381  -0.445  23.217  0.00  0.00    +0.118 HD
ENDBRANCH  65  66
ENDBRANCH  64  65
ENDBRANCH  52  64
ENDBRANCH  50  52
ENDBRANCH  47  48
BRANCH  47  69
ATOM     69  C   UNL     1       9.722   7.028  25.581  0.00  0.00    +0.141 C 
ATOM     70  C   UNL     1      11.139   6.726  26.078  0.00  0.00    +0.040 C 
BRANCH  69  71
ATOM     71  O   UNL     1       9.812   7.106  24.150  0.00  0.00    -0.390 OA
ATOM     72  H   UNL     1      10.758   6.956  23.934  0.00  0.00    +0.210 HD
ENDBRANCH  69  71
ENDBRANCH  47  69
ENDBRANCH  45  47
ENDBRANCH  42  43
BRANCH  42  73
ATOM     73  C   UNL     1       6.752   7.098  21.609  0.00  0.00    +0.046 C 
BRANCH  73  74
ATOM     74  C   UNL     1       7.386   5.834  21.052  0.00  0.00    +0.080 C 
BRANCH  74  75
ATOM     75  N   UNL     1       7.132   4.682  21.912  0.00  0.00    -0.330 NA
ATOM     76  H   UNL     1       8.026   4.254  22.152  0.00  0.00    +0.118 HD
ATOM     77  H   UNL     1       6.715   4.972  22.797  0.00  0.00    +0.118 HD
ENDBRANCH  74  75
ENDBRANCH  73  74
ENDBRANCH  42  73
ENDBRANCH  40  42
ENDBRANCH   8  38
BRANCH   1  78
ATOM     78  C   UNL     1       0.838  -9.208  24.826  0.00  0.00    +0.141 C 
ATOM     79  C   UNL     1       1.304 -10.877  23.868  0.00  0.00    +0.040 C 
BRANCH  78  80
ATOM     80  O   UNL     1       0.467  -8.839  23.194  0.00  0.00    -0.390 OA
ATOM     81  H   UNL     1      -0.370  -8.299  23.069  0.00  0.00    +0.210 HD
ENDBRANCH  78  80
ENDBRANCH   1  78
BRANCH  33  82
ATOM     82  C   UNL     1       1.478 -10.479  30.132  0.00  0.00    +0.046 C 
BRANCH  82  83
ATOM     83  C   UNL     1       0.443  -9.431  30.482  0.00  0.00    +0.080 C 
BRANCH  83  84
ATOM     84  N   UNL     1       0.890  -8.094  30.056  0.00  0.00    -0.330 NA
ATOM     85  H   UNL     1       1.874  -8.006  30.317  0.00  0.00    +0.118 HD
ATOM     86  H   UNL     1       0.897  -8.053  29.034  0.00  0.00    +0.118 HD
ENDBRANCH  83  84
ENDBRANCH  82  83
ENDBRANCH  33  82
BRANCH  28  87
ATOM     87  C   UNL     1       4.255  -7.466  26.474  0.00  0.00    +0.046 C 
BRANCH  87  88
ATOM     88  C   UNL     1       5.678  -7.192  26.862  0.00  0.00    +0.080 C 
BRANCH  88  89
ATOM     89  N   UNL     1       5.844  -7.333  28.290  0.00  0.00    -0.330 NA
ATOM     90  H   UNL     1       6.387  -8.176  28.459  0.00  0.00    +0.118 HD
ATOM     91  H   UNL     1       6.374  -6.551  28.668  0.00  0.00    +0.118 HD
ENDBRANCH  88  89
ENDBRANCH  87  88
ENDBRANCH  28  87
BRANCH  23  92
ATOM     92  C   UNL     1       1.969  -3.495  29.181  0.00  0.00    +0.034 C 
BRANCH  92  93
ATOM     93  C   UNL     1       0.723  -3.808  28.331  0.00  0.00    -0.015 C 
ATOM     94  C   UNL     1       0.597  -5.305  28.017  0.00  0.00    +0.007 C 
ATOM     95  C   UNL     1       0.783  -3.033  27.014  0.00  0.00    +0.007 C 
ENDBRANCH  92  93
ENDBRANCH  23  92
BRANCH  18  96
ATOM     96  C   UNL     1       1.663  -0.423  27.564  0.00  0.00    +0.034 C 
BRANCH  96  97
ATOM     97  C   UNL     1       0.881   0.074  28.783  0.00  0.00    -0.015 C 
ATOM     98  C   UNL     1       0.501   1.548  28.711  0.00  0.00    +0.007 C 
ATOM     99  C   UNL     1       1.601  -0.173  30.061  0.00  0.00    +0.007 C 
ENDBRANCH  96  97
ENDBRANCH  18  96
BRANCH  13 100
ATOM    100  C   UNL     1       2.324   3.928  28.815  0.00  0.00    +0.046 C 
BRANCH 100 101
ATOM    101  C   UNL     1       1.943   5.149  29.777  0.00  0.00    +0.080 C 
BRANCH 101 102
ATOM    102  N   UNL     1       0.680   5.791  29.400  0.00  0.00    -0.330 NA
ATOM    103  H   UNL     1      -0.039   5.081  29.246  0.00  0.00    +0.118 HD
ATOM    104  H   UNL     1       0.349   6.412  30.127  0.00  0.00    +0.118 HD
ENDBRANCH 101 102
ENDBRANCH 100 101
ENDBRANCH  13 100
TORSDOF 35
ENDMDL
MODEL 2
REMARK VINA RESULT:      10.6      2.706     11.961
REMARK  Name = 
REMARK  43 active torsions:
REMARK  status: ('A' for Active; 'I' for Inactive)
REMARK    1  A    between atoms: C_2  and  C_90
REMARK    2  A    between atoms: C_6  and  C_8
REMARK    3  A    between atoms: C_8  and  C_9
REMARK    4  A    between atoms: C_9  and  N_10
REMARK    5  A    between atoms: C_14  and  C_16
REMARK    6  A    between atoms: C_16  and  C_17
REMARK    7  A    between atoms: C_17  and  N_18
REMARK    8  A    between atoms: C_22  and  C_24
REMARK    9  A    between atoms: C_24  and  C_25
REMARK   10  A    between atoms: C_25  and  C_26
REMARK   11  A    between atoms: C_25  and  C_27
REMARK   12  A    between atoms: C_31  and  C_33
REMARK   13  A    between atoms: C_33  and  C_34
REMARK   14  A    between atoms: C_34  and  C_35
REMARK   15  A    between atoms: C_34  and  C_36
REMARK   16  A    between atoms: C_40  and  C_42
REMARK   17  A    between atoms: C_42  and  C_43
REMARK   18  A    between atoms: C_43  and  N_44
REMARK   19  A    between atoms: C_48  and  N_55
REMARK   20  A    between atoms: C_56  and  C_58
REMARK   21  A    between atoms: C_58  and  C_60
REMARK   22  A    between atoms: C_58  and  N_63
REMARK   23  A    between atoms: C_60  and  C_61
REMARK   24  A    between atoms: C_61  and  N_62
REMARK   25  A    between atoms: C_64  and  C_66
REMARK   26  A    between atoms: C_66  and  N_68
REMARK   27  A    between atoms: C_66  and  C_86
REMARK   28  A    between atoms: C_69  and  C_71
REMARK   29  A    between atoms: C_71  and  C_73
REMARK   30  A    between atoms: C_71  and  N_76
REMARK   31  A    between atoms: C_73  and  C_74
REMARK   32  A    between atoms: C_74  and  N_75
REMARK   33  A    between atoms: C_77  and  C_79
REMARK   34  A    between atoms: C_79  and  C_80
REMARK   35  A    between atoms: C_80  and  C_81
REMARK   36  A    between atoms: C_81  and  C_82
REMARK   37  A    between atoms: C_82  and  C_83
REMARK   38  A    between atoms: C_82  and  C_84
REMARK   39  A    between atoms: C_84  and  C_85
REMARK   40  A    between atoms: C_86  and  C_88
REMARK   41  A    between atoms: C_86  and  O_89
REMARK   42  A    between atoms: C_90  and  C_92
REMARK   43  A    between atoms: C_90  and  O_93
REMARK                            x       y       z     vdW  Elec       q    Type
REMARK                         _______ _______ _______ _____ _____    ______ ____
ROOT
ATOM      1  C   UNL     1      12.304   1.708  24.453  0.00  0.00    +0.187 C 
ATOM      2  C   UNL     1      10.747   0.348  25.150  0.00  0.00    +0.236 C 
ATOM      3  O   UNL     1      11.144  -0.778  24.701  0.00  0.00    -0.274 OA
ATOM      4  N   UNL     1       9.093  -0.338  26.119  0.00  0.00    -0.314 N 
ATOM      5  H   UNL     1       9.578  -1.216  25.828  0.00  0.00    +0.149 HD
ATOM      6  C   UNL     1       7.587  -1.580  26.802  0.00  0.00    +0.106 C 
ATOM      7  C   UNL     1       5.789  -2.376  27.703  0.00  0.00    +0.050 C 
ATOM      8  C   UNL     1       3.898  -3.330  28.179  0.00  0.00    +0.160 C 
ATOM      9  C   UNL     1       2.332  -2.803  29.086  0.00  0.00    +0.234 C 
ATOM     10  O   UNL     1       1.826  -3.310  30.119  0.00  0.00    -0.274 OA
ATOM     11  N   UNL     1       1.328  -2.206  28.348  0.00  0.00    -0.302 N 
ATOM     12  H   UNL     1       1.264  -2.694  27.446  0.00  0.00    +0.150 HD
ATOM     13  C   UNL     1       1.745  -0.869  28.268  0.00  0.00    +0.160 C 
ATOM     14  C   UNL     1       2.878  -1.050  27.197  0.00  0.00    +0.234 C 
ATOM     15  O   UNL     1       3.019  -2.026  26.465  0.00  0.00    -0.274 OA
ATOM     16  N   UNL     1       3.728  -0.024  27.213  0.00  0.00    -0.302 N 
ATOM     17  H   UNL     1       3.195   0.824  27.080  0.00  0.00    +0.150 HD
ATOM     18  C   UNL     1       5.097   0.051  26.753  0.00  0.00    +0.159 C 
ATOM     19  C   UNL     1       5.244   1.164  25.758  0.00  0.00    +0.234 C 
ATOM     20  O   UNL     1       4.451   2.101  25.730  0.00  0.00    -0.274 OA
ATOM     21  N   UNL     1       6.480   1.169  25.165  0.00  0.00    -0.302 N 
ATOM     22  H   UNL     1       7.082   0.341  25.115  0.00  0.00    +0.150 HD
ATOM     23  C   UNL     1       7.129   2.434  24.909  0.00  0.00    +0.159 C 
ATOM     24  C   UNL     1       8.287   2.095  24.017  0.00  0.00    +0.234 C 
ATOM     25  O   UNL     1       8.625   0.949  23.749  0.00  0.00    -0.274 OA
ATOM     26  N   UNL     1       8.856   3.200  23.476  0.00  0.00    -0.302 N 
ATOM     27  H   UNL     1       8.652   4.107  23.867  0.00  0.00    +0.150 HD
ATOM     28  C   UNL     1      10.161   3.180  22.939  0.00  0.00    +0.160 C 
ATOM     29  C   UNL     1      10.445   4.662  22.593  0.00  0.00    +0.234 C 
ATOM     30  O   UNL     1       9.877   5.547  23.229  0.00  0.00    -0.274 OA
ATOM     31  N   UNL     1      11.467   4.929  21.727  0.00  0.00    -0.302 N 
ATOM     32  H   UNL     1      11.880   4.104  21.307  0.00  0.00    +0.150 HD
ATOM     33  C   UNL     1      12.539   5.767  22.184  0.00  0.00    +0.160 C 
ATOM     34  C   UNL     1      13.307   4.706  23.174  0.00  0.00    +0.234 C 
ATOM     35  O   UNL     1      14.462   5.032  23.456  0.00  0.00    -0.274 OA
ATOM     36  N   UNL     1      12.497   3.412  23.589  0.00  0.00    -0.300 N 
ATOM     37  H   UNL     1      12.774   3.012  22.672  0.00  0.00    +0.150 HD
ENDROOT
BRANCH   8  38
ATOM     38  N   UNL     1       2.435  -4.642  28.111  0.00  0.00    -0.302 N 
ATOM     39  H   UNL     1       2.158  -4.803  27.094  0.00  0.00    +0.150 HD
ATOM     40  C   UNL     1       1.945  -6.170  28.572  0.00  0.00    +0.234 C 
ATOM     41  O   UNL     1       2.634  -6.705  29.464  0.00  0.00    -0.274 OA
BRANCH  40  42
ATOM     42  C   UNL     1       0.592  -7.411  27.973  0.00  0.00    +0.160 C 
BRANCH  42  43
ATOM     43  N   UNL     1       0.472  -7.488  26.358  0.00  0.00    -0.302 N 
ATOM     44  H   UNL     1       0.099  -8.358  25.984  0.00  0.00    +0.150 HD
ATOM     45  C   UNL     1       0.572  -6.466  25.403  0.00  0.00    +0.236 C 
ATOM     46  O   UNL     1       0.528  -5.265  25.683  0.00  0.00    -0.274 OA
BRANCH  45  47
ATOM     47  C   UNL     1       0.751  -6.919  23.878  0.00  0.00    +0.187 C 
BRANCH  47  48
ATOM     48  N   UNL     1       2.016  -6.487  23.244  0.00  0.00    -0.300 N 
ATOM     49  H   UNL     1       2.073  -6.579  22.232  0.00  0.00    +0.150 HD
ATOM     50  C   UNL     1       3.012  -5.859  23.958  0.00  0.00    +0.234 C 
ATOM     51  O   UNL     1       2.916  -5.693  25.176  0.00  0.00    -0.274 OA
BRANCH  50  52
ATOM     52  C   UNL     1       4.283  -5.426  23.172  0.00  0.00    +0.160 C 
BRANCH  52  53
ATOM     53  N   UNL     1       4.966  -4.377  23.947  0.00  0.00    -0.304 N 
ATOM     54  H   UNL     1       5.076  -4.543  24.943  0.00  0.00    +0.149 HD
ATOM     55  C   UNL     1       5.473  -3.233  23.372  0.00  0.00    +0.214 C 
ATOM     56  O   UNL     1       5.326  -2.958  22.185  0.00  0.00    -0.276 OA
BRANCH  55  57
ATOM     57  C   UNL     1       6.253  -2.315  24.296  0.00  0.00    +0.096 C 
BRANCH  57  58
ATOM     58  C   UNL     1       7.734  -2.657  24.356  0.00  0.00    +0.009 C 
BRANCH  58  59
ATOM     59  C   UNL     1       8.059  -4.001  23.692  0.00  0.00    +0.004 C 
BRANCH  59  60
ATOM     60  C   UNL     1       9.138  -4.782  24.464  0.00  0.00    -0.014 C 
ATOM     61  C   UNL     1      10.513  -4.123  24.294  0.00  0.00    +0.007 C 
BRANCH  60  62
ATOM     62  C   UNL     1       8.752  -4.872  25.951  0.00  0.00    -0.000 C 
ATOM     63  C   UNL     1       7.430  -5.595  26.164  0.00  0.00    +0.004 C 
ENDBRANCH  60  62
ENDBRANCH  59  60
ENDBRANCH  58  59
ENDBRANCH  57  58
ENDBRANCH  55  57
ENDBRANCH  52  53
BRANCH  52  64
ATOM     64  C   UNL     1       5.197  -6.646  22.961  0.00  0.00    +0.046 C 
BRANCH  64  65
ATOM     65  C   UNL     1       6.100  -6.499  21.741  0.00  0.00    +0.080 C 
BRANCH  65  66
ATOM     66  N   UNL     1       7.470  -6.230  22.155  0.00  0.00    -0.330 NA
ATOM     67  H   UNL     1       7.501  -6.132  23.170  0.00  0.00    +0.118 HD
ATOM     68  H   UNL     1       8.061  -7.030  21.926  0.00  0.00    +0.118 HD
ENDBRANCH  65  66
ENDBRANCH  64  65
ENDBRANCH  52  64
ENDBRANCH  50  52
ENDBRANCH  47  48
BRANCH  47  69
ATOM     69  C   UNL     1       0.634  -8.479  23.805  0.00  0.00    +0.141 C 
ATOM     70  C   UNL     1       0.508  -9.028  22.380  0.00  0.00    +0.040 C 
BRANCH  69  71
ATOM     71  O   UNL     1       1.797  -9.106  24.369  0.00  0.00    -0.390 OA
ATOM     72  H   UNL     1       1.469  -9.907  24.833  0.00  0.00    +0.210 HD
ENDBRANCH  69  71
ENDBRANCH  47  69
ENDBRANCH  45  47
ENDBRANCH  42  43
BRANCH  42  73
ATOM     73  C   UNL     1       0.448  -8.924  28.375  0.00  0.00    +0.046 C 
BRANCH  73  74
ATOM     74  C   UNL     1       0.780  -9.847  27.213  0.00  0.00    +0.080 C 
BRANCH  74  75
ATOM     75  N   UNL     1       2.152  -9.658  26.753  0.00  0.00    -0.330 NA
ATOM     76  H   UNL     1       2.130  -9.135  25.877  0.00  0.00    +0.118 HD
ATOM     77  H   UNL     1       2.681  -9.081  27.409  0.00  0.00    +0.118 HD
ENDBRANCH  74  75
ENDBRANCH  73  74
ENDBRANCH  42  73
ENDBRANCH  40  42
ENDBRANCH   8  38
BRANCH   1  78
ATOM     78  C   UNL     1      14.227   1.874  23.689  0.00  0.00    +0.141 C 
ATOM     79  C   UNL     1      15.571   2.166  22.265  0.00  0.00    +0.040 C 
BRANCH  78  80
ATOM     80  O   UNL     1      14.467   0.302  23.049  0.00  0.00    -0.390 OA
ATOM     81  H   UNL     1      13.897  -0.411  23.469  0.00  0.00    +0.210 HD
ENDBRANCH  78  80
ENDBRANCH   1  78
BRANCH  33  82
ATOM     82  C   UNL     1      12.537   7.060  23.048  0.00  0.00    +0.046 C 
BRANCH  82  83
ATOM     83  C   UNL     1      12.719   7.060  24.551  0.00  0.00    +0.080 C 
BRANCH  83  84
ATOM     84  N   UNL     1      11.650   6.287  25.206  0.00  0.00    -0.330 NA
ATOM     85  H   UNL     1      12.067   5.414  25.536  0.00  0.00    +0.118 HD
ATOM     86  H   UNL     1      11.367   6.768  26.062  0.00  0.00    +0.118 HD
ENDBRANCH  83  84
ENDBRANCH  82  83
ENDBRANCH  33  82
BRANCH  28  87
ATOM     87  C   UNL     1      10.464   2.106  21.897  0.00  0.00    +0.046 C 
BRANCH  87  88
ATOM     88  C   UNL     1       9.812   0.832  22.349  0.00  0.00    +0.080 C 
BRANCH  88  89
ATOM     89  N   UNL     1       8.923   0.334  21.326  0.00  0.00    -0.330 NA
ATOM     90  H   UNL     1       8.675  -0.622  21.565  0.00  0.00    +0.118 HD
ATOM     91  H   UNL     1       8.061   0.874  21.307  0.00  0.00    +0.118 HD
ENDBRANCH  88  89
ENDBRANCH  87  88
ENDBRANCH  28  87
BRANCH  23  92
ATOM     92  C   UNL     1       7.534   3.197  26.204  0.00  0.00    +0.034 C 
BRANCH  92  93
ATOM     93  C   UNL     1       7.097   4.661  26.401  0.00  0.00    -0.015 C 
ATOM     94  C   UNL     1       5.849   5.009  25.580  0.00  0.00    +0.007 C 
ATOM     95  C   UNL     1       8.233   5.602  25.995  0.00  0.00    +0.007 C 
ENDBRANCH  92  93
ENDBRANCH  23  92
BRANCH  18  96
ATOM     96  C   UNL     1       6.121   0.503  27.905  0.00  0.00    +0.034 C 
BRANCH  96  97
ATOM     97  C   UNL     1       5.562   0.755  29.307  0.00  0.00    -0.015 C 
ATOM     98  C   UNL     1       5.043   2.172  29.517  0.00  0.00    +0.007 C 
ATOM     99  C   UNL     1       6.546   0.441  30.378  0.00  0.00    +0.007 C 
ENDBRANCH  96  97
ENDBRANCH  18  96
BRANCH  13 100
ATOM    100  C   UNL     1       2.022  -0.307  29.768  0.00  0.00    +0.046 C 
BRANCH 100 101
ATOM    101  C   UNL     1       1.262   0.921  30.458  0.00  0.00    +0.080 C 
BRANCH 101 102
ATOM    102  N   UNL     1       0.459   1.693  29.506  0.00  0.00    -0.330 NA
ATOM    103  H   UNL     1      -0.530   1.638  29.760  0.00  0.00    +0.118 HD
ATOM    104  H   UNL     1       0.722   2.671  29.507  0.00  0.00    +0.118 HD
ENDBRANCH 101 102
ENDBRANCH 100 101
ENDBRANCH  13 100
TORSDOF 35
ENDMDL
