MODEL 1
REMARK VINA RESULT:      -6.0      0.000      0.000
REMARK  Name = 
REMARK  9 active torsions:
REMARK  status: ('A' for Active; 'I' for Inactive)
REMARK    1  A    between atoms: O_1  and  C_2
REMARK    2  A    between atoms: C_2  and  C_3
REMARK    3  A    between atoms: C_6  and  O_8
REMARK    4  A    between atoms: O_8  and  C_9
REMARK    5  A    between atoms: C_11  and  O_13
REMARK    6  A    between atoms: C_16  and  O_18
REMARK    7  A    between atoms: C_19  and  O_21
REMARK    8  A    between atoms: C_22  and  O_24
REMARK    9  A    between atoms: C_25  and  O_27
REMARK                            x       y       z     vdW  Elec       q    Type
REMARK                         _______ _______ _______ _____ _____    ______ ____
ROOT
ATOM      1  O   UNL     1       8.193  -1.315  24.972  0.00  0.00    -0.340 OA
ENDROOT
BRANCH   1   2
ATOM      2  C   UNL     1       8.036  -2.653  24.413  0.00  0.00    +0.185 C 
ATOM      3  C   UNL     1       9.118  -3.657  24.877  0.00  0.00    +0.201 C 
ATOM      4  C   UNL     1       8.670  -5.134  24.821  0.00  0.00    +0.279 C 
ATOM      5  O   UNL     1       7.369  -5.332  25.343  0.00  0.00    -0.346 OA
ATOM      6  C   UNL     1       6.403  -4.599  24.604  0.00  0.00    +0.197 C 
ATOM      7  C   UNL     1       6.610  -3.104  24.787  0.00  0.00    +0.172 C 
BRANCH   3   8
ATOM      8  O   UNL     1      10.300  -3.508  24.049  0.00  0.00    -0.384 OA
ATOM      9  H   UNL     1      10.064  -3.667  23.126  0.00  0.00    +0.210 HD
ENDBRANCH   3   8
BRANCH   4  10
ATOM     10  O   UNL     1       9.555  -5.917  25.610  0.00  0.00    -0.365 OA
ATOM     11  H   UNL     1      10.072  -6.432  24.973  0.00  0.00    +0.213 HD
ENDBRANCH   4  10
BRANCH   7  12
ATOM     12  O   UNL     1       5.661  -2.405  23.966  0.00  0.00    -0.387 OA
ATOM     13  H   UNL     1       6.009  -2.440  23.064  0.00  0.00    +0.210 HD
ENDBRANCH   7  12
ENDBRANCH   1   2
BRANCH   1  17
ATOM     14  C   UNL     1       8.750   0.099  21.763  0.00  0.00    +0.178 C 
ATOM     15  C   UNL     1      10.156  -0.285  22.211  0.00  0.00    +0.179 C 
ATOM     16  C   UNL     1      10.057  -0.282  23.741  0.00  0.00    +0.201 C 
ATOM     17  C   UNL     1       8.537  -0.301  24.024  0.00  0.00    +0.282 C 
ATOM     18  O   UNL     1       7.925  -0.532  22.751  0.00  0.00    -0.341 OA
BRANCH  15  19
ATOM     19  O   UNL     1      10.452  -1.624  21.770  0.00  0.00    -0.386 OA
ATOM     20  H   UNL     1      11.316  -1.597  21.318  0.00  0.00    +0.210 HD
ENDBRANCH  15  19
BRANCH  16  21
ATOM     21  O   UNL     1      10.648   0.916  24.264  0.00  0.00    -0.384 OA
ATOM     22  H   UNL     1      11.510   0.666  24.634  0.00  0.00    +0.210 HD
ENDBRANCH  16  21
BRANCH  14  23
ATOM     23  C   UNL     1       8.496   1.609  21.717  0.00  0.00    +0.190 C 
BRANCH  23  24
ATOM     24  O   UNL     1       9.720   2.317  21.580  0.00  0.00    -0.392 OA
ATOM     25  H   UNL     1       9.622   3.153  22.069  0.00  0.00    +0.210 HD
ENDBRANCH  23  24
ENDBRANCH  14  23
ENDBRANCH   1  17
TORSDOF 9
ENDMDL
MODEL 2
REMARK VINA RESULT:      -5.7      1.751      3.019
REMARK  Name = 
REMARK  9 active torsions:
REMARK  status: ('A' for Active; 'I' for Inactive)
REMARK    1  A    between atoms: O_1  and  C_2
REMARK    2  A    between atoms: C_2  and  C_3
REMARK    3  A    between atoms: C_6  and  O_8
REMARK    4  A    between atoms: O_8  and  C_9
REMARK    5  A    between atoms: C_11  and  O_13
REMARK    6  A    between atoms: C_16  and  O_18
REMARK    7  A    between atoms: C_19  and  O_21
REMARK    8  A    between atoms: C_22  and  O_24
REMARK    9  A    between atoms: C_25  and  O_27
REMARK                            x       y       z     vdW  Elec       q    Type
REMARK                         _______ _______ _______ _____ _____    ______ ____
ROOT
ATOM      1  O   UNL     1       7.169  -1.196  22.695  0.00  0.00    -0.340 OA
ENDROOT
BRANCH   1   2
ATOM      2  C   UNL     1       6.856  -2.531  23.193  0.00  0.00    +0.185 C 
ATOM      3  C   UNL     1       6.773  -3.609  22.086  0.00  0.00    +0.201 C 
ATOM      4  C   UNL     1       7.050  -5.044  22.585  0.00  0.00    +0.279 C 
ATOM      5  O   UNL     1       8.171  -5.118  23.446  0.00  0.00    -0.346 OA
ATOM      6  C   UNL     1       7.977  -4.328  24.609  0.00  0.00    +0.197 C 
ATOM      7  C   UNL     1       7.930  -2.850  24.252  0.00  0.00    +0.172 C 
BRANCH   3   8
ATOM      8  O   UNL     1       5.453  -3.581  21.486  0.00  0.00    -0.384 OA
ATOM      9  H   UNL     1       5.511  -3.899  20.575  0.00  0.00    +0.210 HD
ENDBRANCH   3   8
BRANCH   4  10
ATOM     10  O   UNL     1       7.331  -5.877  21.468  0.00  0.00    -0.365 OA
ATOM     11  H   UNL     1       8.032  -5.418  20.982  0.00  0.00    +0.213 HD
ENDBRANCH   4  10
BRANCH   7  12
ATOM     12  O   UNL     1       7.660  -2.097  25.444  0.00  0.00    -0.387 OA
ATOM     13  H   UNL     1       8.198  -1.296  25.383  0.00  0.00    +0.210 HD
ENDBRANCH   7  12
ENDBRANCH   1   2
BRANCH   1  17
ATOM     14  C   UNL     1       9.736   1.157  23.385  0.00  0.00    +0.178 C 
ATOM     15  C   UNL     1       9.879   0.932  21.884  0.00  0.00    +0.179 C 
ATOM     16  C   UNL     1       9.284  -0.465  21.673  0.00  0.00    +0.201 C 
ATOM     17  C   UNL     1       8.495  -0.743  22.974  0.00  0.00    +0.282 C 
ATOM     18  O   UNL     1       8.496   0.500  23.682  0.00  0.00    -0.341 OA
BRANCH  15  19
ATOM     19  O   UNL     1       9.071   1.891  21.176  0.00  0.00    -0.386 OA
ATOM     20  H   UNL     1       8.199   1.916  21.613  0.00  0.00    +0.210 HD
ENDBRANCH  15  19
BRANCH  16  21
ATOM     21  O   UNL     1      10.340  -1.424  21.514  0.00  0.00    -0.384 OA
ATOM     22  H   UNL     1      11.140  -0.926  21.281  0.00  0.00    +0.210 HD
ENDBRANCH  16  21
BRANCH  14  23
ATOM     23  C   UNL     1      10.881   0.572  24.220  0.00  0.00    +0.190 C 
BRANCH  23  24
ATOM     24  O   UNL     1      10.497   0.461  25.583  0.00  0.00    -0.392 OA
ATOM     25  H   UNL     1      11.297   0.612  26.117  0.00  0.00    +0.210 HD
ENDBRANCH  23  24
ENDBRANCH  14  23
ENDBRANCH   1  17
TORSDOF 9
ENDMDL
MODEL 3
REMARK VINA RESULT:      -5.6      1.379      2.251
REMARK  Name = 
REMARK  9 active torsions:
REMARK  status: ('A' for Active; 'I' for Inactive)
REMARK    1  A    between atoms: O_1  and  C_2
REMARK    2  A    between atoms: C_2  and  C_3
REMARK    3  A    between atoms: C_6  and  O_8
REMARK    4  A    between atoms: O_8  and  C_9
REMARK    5  A    between atoms: C_11  and  O_13
REMARK    6  A    between atoms: C_16  and  O_18
REMARK    7  A    between atoms: C_19  and  O_21
REMARK    8  A    between atoms: C_22  and  O_24
REMARK    9  A    between atoms: C_25  and  O_27
REMARK                            x       y       z     vdW  Elec       q    Type
REMARK                         _______ _______ _______ _____ _____    ______ ____
ROOT
ATOM      1  O   UNL     1       7.348  -1.676  22.893  0.00  0.00    -0.340 OA
ENDROOT
BRANCH   1   2
ATOM      2  C   UNL     1       7.407  -3.132  22.970  0.00  0.00    +0.185 C 
ATOM      3  C   UNL     1       8.153  -3.664  24.217  0.00  0.00    +0.201 C 
ATOM      4  C   UNL     1       7.728  -5.086  24.644  0.00  0.00    +0.279 C 
ATOM      5  O   UNL     1       6.325  -5.266  24.632  0.00  0.00    -0.346 OA
ATOM      6  C   UNL     1       5.794  -5.070  23.331  0.00  0.00    +0.197 C 
ATOM      7  C   UNL     1       5.946  -3.619  22.901  0.00  0.00    +0.172 C 
BRANCH   3   8
ATOM      8  O   UNL     1       9.580  -3.672  23.956  0.00  0.00    -0.384 OA
ATOM      9  H   UNL     1      10.048  -3.945  24.756  0.00  0.00    +0.210 HD
ENDBRANCH   3   8
BRANCH   4  10
ATOM     10  O   UNL     1       8.164  -5.319  25.976  0.00  0.00    -0.365 OA
ATOM     11  H   UNL     1       7.624  -6.058  26.292  0.00  0.00    +0.213 HD
ENDBRANCH   4  10
BRANCH   7  12
ATOM     12  O   UNL     1       5.464  -3.485  21.554  0.00  0.00    -0.387 OA
ATOM     13  H   UNL     1       4.503  -3.400  21.621  0.00  0.00    +0.210 HD
ENDBRANCH   7  12
ENDBRANCH   1   2
BRANCH   1  17
ATOM     14  C   UNL     1       9.556   1.081  23.246  0.00  0.00    +0.178 C 
ATOM     15  C   UNL     1       9.766   0.666  21.795  0.00  0.00    +0.179 C 
ATOM     16  C   UNL     1       9.370  -0.816  21.786  0.00  0.00    +0.201 C 
ATOM     17  C   UNL     1       8.594  -1.010  23.109  0.00  0.00    +0.282 C 
ATOM     18  O   UNL     1       8.409   0.310  23.629  0.00  0.00    -0.341 OA
BRANCH  15  19
ATOM     19  O   UNL     1       8.853   1.392  20.951  0.00  0.00    -0.386 OA
ATOM     20  H   UNL     1       8.932   2.337  21.182  0.00  0.00    +0.210 HD
ENDBRANCH  15  19
BRANCH  16  21
ATOM     21  O   UNL     1      10.549  -1.634  21.773  0.00  0.00    -0.384 OA
ATOM     22  H   UNL     1      11.047  -1.397  20.974  0.00  0.00    +0.210 HD
ENDBRANCH  16  21
BRANCH  14  23
ATOM     23  C   UNL     1      10.748   0.785  24.163  0.00  0.00    +0.190 C 
BRANCH  23  24
ATOM     24  O   UNL     1      10.319   0.645  25.510  0.00  0.00    -0.392 OA
ATOM     25  H   UNL     1       9.886  -0.224  25.582  0.00  0.00    +0.210 HD
ENDBRANCH  23  24
ENDBRANCH  14  23
ENDBRANCH   1  17
TORSDOF 9
ENDMDL
MODEL 4
REMARK VINA RESULT:      -5.6      1.432      5.790
REMARK  Name = 
REMARK  9 active torsions:
REMARK  status: ('A' for Active; 'I' for Inactive)
REMARK    1  A    between atoms: O_1  and  C_2
REMARK    2  A    between atoms: C_2  and  C_3
REMARK    3  A    between atoms: C_6  and  O_8
REMARK    4  A    between atoms: O_8  and  C_9
REMARK    5  A    between atoms: C_11  and  O_13
REMARK    6  A    between atoms: C_16  and  O_18
REMARK    7  A    between atoms: C_19  and  O_21
REMARK    8  A    between atoms: C_22  and  O_24
REMARK    9  A    between atoms: C_25  and  O_27
REMARK                            x       y       z     vdW  Elec       q    Type
REMARK                         _______ _______ _______ _____ _____    ______ ____
ROOT
ATOM      1  O   UNL     1       8.682  -1.955  23.013  0.00  0.00    -0.340 OA
ENDROOT
BRANCH   1   2
ATOM      2  C   UNL     1       8.561  -0.529  23.297  0.00  0.00    +0.185 C 
ATOM      3  C   UNL     1       9.732   0.321  22.747  0.00  0.00    +0.201 C 
ATOM      4  C   UNL     1       9.368   1.799  22.487  0.00  0.00    +0.279 C 
ATOM      5  O   UNL     1       8.125   1.950  21.829  0.00  0.00    -0.346 OA
ATOM      6  C   UNL     1       7.065   1.414  22.606  0.00  0.00    +0.197 C 
ATOM      7  C   UNL     1       7.197  -0.097  22.725  0.00  0.00    +0.172 C 
BRANCH   3   8
ATOM      8  O   UNL     1      10.837   0.281  23.686  0.00  0.00    -0.384 OA
ATOM      9  H   UNL     1      10.833   1.089  24.217  0.00  0.00    +0.210 HD
ENDBRANCH   3   8
BRANCH   4  10
ATOM     10  O   UNL     1      10.355   2.378  21.645  0.00  0.00    -0.365 OA
ATOM     11  H   UNL     1      10.546   3.243  22.037  0.00  0.00    +0.213 HD
ENDBRANCH   4  10
BRANCH   7  12
ATOM     12  O   UNL     1       6.149  -0.585  23.577  0.00  0.00    -0.387 OA
ATOM     13  H   UNL     1       5.940  -1.476  23.263  0.00  0.00    +0.210 HD
ENDBRANCH   7  12
ENDBRANCH   1   2
BRANCH   1  17
ATOM     14  C   UNL     1       9.255  -4.831  25.014  0.00  0.00    +0.178 C 
ATOM     15  C   UNL     1       7.926  -5.149  24.338  0.00  0.00    +0.179 C 
ATOM     16  C   UNL     1       7.350  -3.766  24.012  0.00  0.00    +0.201 C 
ATOM     17  C   UNL     1       8.557  -2.809  24.152  0.00  0.00    +0.282 C 
ATOM     18  O   UNL     1       9.694  -3.664  24.305  0.00  0.00    -0.341 OA
BRANCH  15  19
ATOM     19  O   UNL     1       8.170  -5.851  23.105  0.00  0.00    -0.386 OA
ATOM     20  H   UNL     1       7.323  -5.896  22.623  0.00  0.00    +0.210 HD
ENDBRANCH  15  19
BRANCH  16  21
ATOM     21  O   UNL     1       6.330  -3.427  24.963  0.00  0.00    -0.384 OA
ATOM     22  H   UNL     1       6.497  -3.959  25.757  0.00  0.00    +0.210 HD
ENDBRANCH  16  21
BRANCH  14  23
ATOM     23  C   UNL     1       9.145  -4.551  26.517  0.00  0.00    +0.190 C 
BRANCH  23  24
ATOM     24  O   UNL     1       8.298  -5.506  27.141  0.00  0.00    -0.392 OA
ATOM     25  H   UNL     1       7.381  -5.218  26.986  0.00  0.00    +0.210 HD
ENDBRANCH  23  24
ENDBRANCH  14  23
ENDBRANCH   1  17
TORSDOF 9
ENDMDL
MODEL 5
REMARK VINA RESULT:      -5.6      1.534      5.728
REMARK  Name = 
REMARK  9 active torsions:
REMARK  status: ('A' for Active; 'I' for Inactive)
REMARK    1  A    between atoms: O_1  and  C_2
REMARK    2  A    between atoms: C_2  and  C_3
REMARK    3  A    between atoms: C_6  and  O_8
REMARK    4  A    between atoms: O_8  and  C_9
REMARK    5  A    between atoms: C_11  and  O_13
REMARK    6  A    between atoms: C_16  and  O_18
REMARK    7  A    between atoms: C_19  and  O_21
REMARK    8  A    between atoms: C_22  and  O_24
REMARK    9  A    between atoms: C_25  and  O_27
REMARK                            x       y       z     vdW  Elec       q    Type
REMARK                         _______ _______ _______ _____ _____    ______ ____
ROOT
ATOM      1  O   UNL     1       9.841  -2.945  24.202  0.00  0.00    -0.340 OA
ENDROOT
BRANCH   1   2
ATOM      2  C   UNL     1       9.333  -1.631  23.822  0.00  0.00    +0.185 C 
ATOM      3  C   UNL     1      10.080  -0.452  24.490  0.00  0.00    +0.201 C 
ATOM      4  C   UNL     1      10.004   0.871  23.697  0.00  0.00    +0.279 C 
ATOM      5  O   UNL     1      10.230   0.693  22.311  0.00  0.00    -0.346 OA
ATOM      6  C   UNL     1       9.256  -0.166  21.739  0.00  0.00    +0.197 C 
ATOM      7  C   UNL     1       9.401  -1.579  22.283  0.00  0.00    +0.172 C 
BRANCH   3   8
ATOM      8  O   UNL     1       9.532  -0.223  25.813  0.00  0.00    -0.384 OA
ATOM      9  H   UNL     1      10.067  -0.696  26.465  0.00  0.00    +0.210 HD
ENDBRANCH   3   8
BRANCH   4  10
ATOM     10  O   UNL     1      11.012   1.754  24.170  0.00  0.00    -0.365 OA
ATOM     11  H   UNL     1      10.599   2.240  24.899  0.00  0.00    +0.213 HD
ENDBRANCH   4  10
BRANCH   7  12
ATOM     12  O   UNL     1       8.352  -2.393  21.734  0.00  0.00    -0.387 OA
ATOM     13  H   UNL     1       8.167  -2.035  20.854  0.00  0.00    +0.210 HD
ENDBRANCH   7  12
ENDBRANCH   1   2
BRANCH   1  17
ATOM     14  C   UNL     1       6.656  -3.955  25.400  0.00  0.00    +0.178 C 
ATOM     15  C   UNL     1       7.346  -3.449  26.662  0.00  0.00    +0.179 C 
ATOM     16  C   UNL     1       8.837  -3.616  26.345  0.00  0.00    +0.201 C 
ATOM     17  C   UNL     1       8.881  -3.810  24.812  0.00  0.00    +0.282 C 
ATOM     18  O   UNL     1       7.551  -3.531  24.363  0.00  0.00    -0.341 OA
BRANCH  15  19
ATOM     19  O   UNL     1       7.063  -2.048  26.834  0.00  0.00    -0.386 OA
ATOM     20  H   UNL     1       6.095  -1.953  26.908  0.00  0.00    +0.210 HD
ENDBRANCH  15  19
BRANCH  16  21
ATOM     21  O   UNL     1       9.349  -4.779  27.012  0.00  0.00    -0.384 OA
ATOM     22  H   UNL     1       8.614  -5.409  27.083  0.00  0.00    +0.210 HD
ENDBRANCH  16  21
BRANCH  14  23
ATOM     23  C   UNL     1       6.451  -5.474  25.362  0.00  0.00    +0.190 C 
BRANCH  23  24
ATOM     24  O   UNL     1       6.564  -6.025  26.666  0.00  0.00    -0.392 OA
ATOM     25  H   UNL     1       7.515  -6.106  26.860  0.00  0.00    +0.210 HD
ENDBRANCH  23  24
ENDBRANCH  14  23
ENDBRANCH   1  17
TORSDOF 9
ENDMDL
MODEL 6
REMARK VINA RESULT:      -5.5      1.531      3.261
REMARK  Name = 
REMARK  9 active torsions:
REMARK  status: ('A' for Active; 'I' for Inactive)
REMARK    1  A    between atoms: O_1  and  C_2
REMARK    2  A    between atoms: C_2  and  C_3
REMARK    3  A    between atoms: C_6  and  O_8
REMARK    4  A    between atoms: O_8  and  C_9
REMARK    5  A    between atoms: C_11  and  O_13
REMARK    6  A    between atoms: C_16  and  O_18
REMARK    7  A    between atoms: C_19  and  O_21
REMARK    8  A    between atoms: C_22  and  O_24
REMARK    9  A    between atoms: C_25  and  O_27
REMARK                            x       y       z     vdW  Elec       q    Type
REMARK                         _______ _______ _______ _____ _____    ______ ____
ROOT
ATOM      1  O   UNL     1       9.146  -3.763  24.073  0.00  0.00    -0.340 OA
ENDROOT
BRANCH   1   2
ATOM      2  C   UNL     1       8.173  -3.919  25.149  0.00  0.00    +0.185 C 
ATOM      3  C   UNL     1       6.715  -4.084  24.657  0.00  0.00    +0.201 C 
ATOM      4  C   UNL     1       5.796  -4.829  25.650  0.00  0.00    +0.279 C 
ATOM      5  O   UNL     1       6.404  -5.984  26.198  0.00  0.00    -0.346 OA
ATOM      6  C   UNL     1       7.579  -5.650  26.922  0.00  0.00    +0.197 C 
ATOM      7  C   UNL     1       8.654  -5.121  25.986  0.00  0.00    +0.172 C 
BRANCH   3   8
ATOM      8  O   UNL     1       6.143  -2.775  24.401  0.00  0.00    -0.384 OA
ATOM      9  H   UNL     1       6.266  -2.552  23.468  0.00  0.00    +0.210 HD
ENDBRANCH   3   8
BRANCH   4  10
ATOM     10  O   UNL     1       4.628  -5.262  24.965  0.00  0.00    -0.365 OA
ATOM     11  H   UNL     1       4.886  -5.310  24.033  0.00  0.00    +0.213 HD
ENDBRANCH   4  10
BRANCH   7  12
ATOM     12  O   UNL     1       9.793  -4.729  26.768  0.00  0.00    -0.387 OA
ATOM     13  H   UNL     1       9.440  -4.359  27.589  0.00  0.00    +0.210 HD
ENDBRANCH   7  12
ENDBRANCH   1   2
BRANCH   1  17
ATOM     14  C   UNL     1       8.910  -0.221  24.113  0.00  0.00    +0.178 C 
ATOM     15  C   UNL     1       8.395  -0.578  22.724  0.00  0.00    +0.179 C 
ATOM     16  C   UNL     1       9.055  -1.931  22.434  0.00  0.00    +0.201 C 
ATOM     17  C   UNL     1       9.549  -2.417  23.816  0.00  0.00    +0.282 C 
ATOM     18  O   UNL     1       8.982  -1.501  24.757  0.00  0.00    -0.341 OA
BRANCH  15  19
ATOM     19  O   UNL     1       6.967  -0.761  22.773  0.00  0.00    -0.386 OA
ATOM     20  H   UNL     1       6.557   0.119  22.681  0.00  0.00    +0.210 HD
ENDBRANCH  15  19
BRANCH  16  21
ATOM     21  O   UNL     1      10.163  -1.750  21.540  0.00  0.00    -0.384 OA
ATOM     22  H   UNL     1       9.974  -2.277  20.747  0.00  0.00    +0.210 HD
ENDBRANCH  16  21
BRANCH  14  23
ATOM     23  C   UNL     1      10.276   0.474  24.118  0.00  0.00    +0.190 C 
BRANCH  23  24
ATOM     24  O   UNL     1      10.784   0.565  25.441  0.00  0.00    -0.392 OA
ATOM     25  H   UNL     1      11.411  -0.170  25.557  0.00  0.00    +0.210 HD
ENDBRANCH  23  24
ENDBRANCH  14  23
ENDBRANCH   1  17
TORSDOF 9
ENDMDL
MODEL 7
REMARK VINA RESULT:      -5.5      1.541      5.974
REMARK  Name = 
REMARK  9 active torsions:
REMARK  status: ('A' for Active; 'I' for Inactive)
REMARK    1  A    between atoms: O_1  and  C_2
REMARK    2  A    between atoms: C_2  and  C_3
REMARK    3  A    between atoms: C_6  and  O_8
REMARK    4  A    between atoms: O_8  and  C_9
REMARK    5  A    between atoms: C_11  and  O_13
REMARK    6  A    between atoms: C_16  and  O_18
REMARK    7  A    between atoms: C_19  and  O_21
REMARK    8  A    between atoms: C_22  and  O_24
REMARK    9  A    between atoms: C_25  and  O_27
REMARK                            x       y       z     vdW  Elec       q    Type
REMARK                         _______ _______ _______ _____ _____    ______ ____
ROOT
ATOM      1  O   UNL     1       8.110  -1.707  25.308  0.00  0.00    -0.340 OA
ENDROOT
BRANCH   1   2
ATOM      2  C   UNL     1       8.382  -1.610  23.878  0.00  0.00    +0.185 C 
ATOM      3  C   UNL     1       7.878  -0.298  23.231  0.00  0.00    +0.201 C 
ATOM      4  C   UNL     1       8.642   0.105  21.950  0.00  0.00    +0.279 C 
ATOM      5  O   UNL     1      10.044  -0.027  22.084  0.00  0.00    -0.346 OA
ATOM      6  C   UNL     1      10.409  -1.372  22.353  0.00  0.00    +0.197 C 
ATOM      7  C   UNL     1       9.904  -1.802  23.721  0.00  0.00    +0.172 C 
BRANCH   3   8
ATOM      8  O   UNL     1       6.472  -0.432  22.901  0.00  0.00    -0.384 OA
ATOM      9  H   UNL     1       5.963  -0.540  23.716  0.00  0.00    +0.210 HD
ENDBRANCH   3   8
BRANCH   4  10
ATOM     10  O   UNL     1       8.380   1.473  21.666  0.00  0.00    -0.365 OA
ATOM     11  H   UNL     1       7.456   1.611  21.920  0.00  0.00    +0.213 HD
ENDBRANCH   4  10
BRANCH   7  12
ATOM     12  O   UNL     1      10.230  -3.186  23.919  0.00  0.00    -0.387 OA
ATOM     13  H   UNL     1       9.569  -3.533  24.534  0.00  0.00    +0.210 HD
ENDBRANCH   7  12
ENDBRANCH   1   2
BRANCH   1  17
ATOM     14  C   UNL     1       7.845  -5.169  26.049  0.00  0.00    +0.178 C 
ATOM     15  C   UNL     1       7.287  -5.084  24.633  0.00  0.00    +0.179 C 
ATOM     16  C   UNL     1       6.795  -3.635  24.529  0.00  0.00    +0.201 C 
ATOM     17  C   UNL     1       7.471  -2.917  25.720  0.00  0.00    +0.282 C 
ATOM     18  O   UNL     1       8.408  -3.864  26.241  0.00  0.00    -0.341 OA
BRANCH  15  19
ATOM     19  O   UNL     1       8.353  -5.279  23.684  0.00  0.00    -0.386 OA
ATOM     20  H   UNL     1       9.192  -5.101  24.149  0.00  0.00    +0.210 HD
ENDBRANCH  15  19
BRANCH  16  21
ATOM     21  O   UNL     1       5.367  -3.596  24.666  0.00  0.00    -0.384 OA
ATOM     22  H   UNL     1       5.117  -2.661  24.744  0.00  0.00    +0.210 HD
ENDBRANCH  16  21
BRANCH  14  23
ATOM     23  C   UNL     1       6.793  -5.477  27.121  0.00  0.00    +0.190 C 
BRANCH  23  24
ATOM     24  O   UNL     1       7.362  -6.250  28.168  0.00  0.00    -0.392 OA
ATOM     25  H   UNL     1       7.206  -7.185  27.948  0.00  0.00    +0.210 HD
ENDBRANCH  23  24
ENDBRANCH  14  23
ENDBRANCH   1  17
TORSDOF 9
ENDMDL
MODEL 8
REMARK VINA RESULT:      -5.5      0.962      1.401
REMARK  Name = 
REMARK  9 active torsions:
REMARK  status: ('A' for Active; 'I' for Inactive)
REMARK    1  A    between atoms: O_1  and  C_2
REMARK    2  A    between atoms: C_2  and  C_3
REMARK    3  A    between atoms: C_6  and  O_8
REMARK    4  A    between atoms: O_8  and  C_9
REMARK    5  A    between atoms: C_11  and  O_13
REMARK    6  A    between atoms: C_16  and  O_18
REMARK    7  A    between atoms: C_19  and  O_21
REMARK    8  A    between atoms: C_22  and  O_24
REMARK    9  A    between atoms: C_25  and  O_27
REMARK                            x       y       z     vdW  Elec       q    Type
REMARK                         _______ _______ _______ _____ _____    ______ ____
ROOT
ATOM      1  O   UNL     1       7.935  -1.362  24.934  0.00  0.00    -0.340 OA
ENDROOT
BRANCH   1   2
ATOM      2  C   UNL     1       7.908  -2.732  24.432  0.00  0.00    +0.185 C 
ATOM      3  C   UNL     1       9.115  -3.589  24.885  0.00  0.00    +0.201 C 
ATOM      4  C   UNL     1       8.835  -5.108  24.904  0.00  0.00    +0.279 C 
ATOM      5  O   UNL     1       7.586  -5.428  25.488  0.00  0.00    -0.346 OA
ATOM      6  C   UNL     1       6.516  -4.839  24.765  0.00  0.00    +0.197 C 
ATOM      7  C   UNL     1       6.559  -3.323  24.883  0.00  0.00    +0.172 C 
BRANCH   3   8
ATOM      8  O   UNL     1      10.239  -3.342  24.003  0.00  0.00    -0.384 OA
ATOM      9  H   UNL     1      10.951  -3.960  24.215  0.00  0.00    +0.210 HD
ENDBRANCH   3   8
BRANCH   4  10
ATOM     10  O   UNL     1       9.833  -5.753  25.682  0.00  0.00    -0.365 OA
ATOM     11  H   UNL     1       9.736  -5.385  26.572  0.00  0.00    +0.213 HD
ENDBRANCH   4  10
BRANCH   7  12
ATOM     12  O   UNL     1       5.505  -2.769  24.079  0.00  0.00    -0.387 OA
ATOM     13  H   UNL     1       5.506  -3.272  23.252  0.00  0.00    +0.210 HD
ENDBRANCH   7  12
ENDBRANCH   1   2
BRANCH   1  17
ATOM     14  C   UNL     1      10.003   0.328  22.595  0.00  0.00    +0.178 C 
ATOM     15  C   UNL     1      10.161   1.171  23.856  0.00  0.00    +0.179 C 
ATOM     16  C   UNL     1       8.869   0.894  24.634  0.00  0.00    +0.201 C 
ATOM     17  C   UNL     1       8.285  -0.371  23.965  0.00  0.00    +0.282 C 
ATOM     18  O   UNL     1       9.310  -0.831  23.079  0.00  0.00    -0.341 OA
BRANCH  15  19
ATOM     19  O   UNL     1      11.277   0.683  24.623  0.00  0.00    -0.386 OA
ATOM     20  H   UNL     1      12.007   1.321  24.513  0.00  0.00    +0.210 HD
ENDBRANCH  15  19
BRANCH  16  21
ATOM     21  O   UNL     1       7.967   2.000  24.489  0.00  0.00    -0.384 OA
ATOM     22  H   UNL     1       7.326   1.938  25.215  0.00  0.00    +0.210 HD
ENDBRANCH  16  21
BRANCH  14  23
ATOM     23  C   UNL     1       9.212   1.014  21.475  0.00  0.00    +0.190 C 
BRANCH  23  24
ATOM     24  O   UNL     1       9.270   2.426  21.617  0.00  0.00    -0.392 OA
ATOM     25  H   UNL     1      10.100   2.631  22.082  0.00  0.00    +0.210 HD
ENDBRANCH  23  24
ENDBRANCH  14  23
ENDBRANCH   1  17
TORSDOF 9
ENDMDL
MODEL 9
REMARK VINA RESULT:      -5.4      1.427      5.535
REMARK  Name = 
REMARK  9 active torsions:
REMARK  status: ('A' for Active; 'I' for Inactive)
REMARK    1  A    between atoms: O_1  and  C_2
REMARK    2  A    between atoms: C_2  and  C_3
REMARK    3  A    between atoms: C_6  and  O_8
REMARK    4  A    between atoms: O_8  and  C_9
REMARK    5  A    between atoms: C_11  and  O_13
REMARK    6  A    between atoms: C_16  and  O_18
REMARK    7  A    between atoms: C_19  and  O_21
REMARK    8  A    between atoms: C_22  and  O_24
REMARK    9  A    between atoms: C_25  and  O_27
REMARK                            x       y       z     vdW  Elec       q    Type
REMARK                         _______ _______ _______ _____ _____    ______ ____
ROOT
ATOM      1  O   UNL     1       8.020  -2.200  22.623  0.00  0.00    -0.340 OA
ENDROOT
BRANCH   1   2
ATOM      2  C   UNL     1       8.221  -0.843  23.119  0.00  0.00    +0.185 C 
ATOM      3  C   UNL     1       9.375  -0.085  22.421  0.00  0.00    +0.201 C 
ATOM      4  C   UNL     1       9.233   1.453  22.462  0.00  0.00    +0.279 C 
ATOM      5  O   UNL     1       7.923   1.890  22.153  0.00  0.00    -0.346 OA
ATOM      6  C   UNL     1       6.981   1.382  23.086  0.00  0.00    +0.197 C 
ATOM      7  C   UNL     1       6.864  -0.129  22.962  0.00  0.00    +0.172 C 
BRANCH   3   8
ATOM      8  O   UNL     1      10.634  -0.443  23.047  0.00  0.00    -0.384 OA
ATOM      9  H   UNL     1      10.780   0.124  23.816  0.00  0.00    +0.210 HD
ENDBRANCH   3   8
BRANCH   4  10
ATOM     10  O   UNL     1      10.099   2.024  21.490  0.00  0.00    -0.365 OA
ATOM     11  H   UNL     1       9.843   2.956  21.441  0.00  0.00    +0.213 HD
ENDBRANCH   4  10
BRANCH   7  12
ATOM     12  O   UNL     1       5.958  -0.605  23.970  0.00  0.00    -0.387 OA
ATOM     13  H   UNL     1       5.071  -0.359  23.671  0.00  0.00    +0.210 HD
ENDBRANCH   7  12
ENDBRANCH   1   2
BRANCH   1  17
ATOM     14  C   UNL     1       7.134  -3.738  25.698  0.00  0.00    +0.178 C 
ATOM     15  C   UNL     1       8.490  -3.116  26.011  0.00  0.00    +0.179 C 
ATOM     16  C   UNL     1       9.167  -3.025  24.638  0.00  0.00    +0.201 C 
ATOM     17  C   UNL     1       8.010  -3.215  23.630  0.00  0.00    +0.282 C 
ATOM     18  O   UNL     1       6.818  -3.170  24.420  0.00  0.00    -0.341 OA
BRANCH  15  19
ATOM     19  O   UNL     1       8.300  -1.783  26.522  0.00  0.00    -0.386 OA
ATOM     20  H   UNL     1       7.408  -1.746  26.913  0.00  0.00    +0.210 HD
ENDBRANCH  15  19
BRANCH  16  21
ATOM     21  O   UNL     1      10.130  -4.080  24.500  0.00  0.00    -0.384 OA
ATOM     22  H   UNL     1      10.810  -3.761  23.884  0.00  0.00    +0.210 HD
ENDBRANCH  16  21
BRANCH  14  23
ATOM     23  C   UNL     1       7.145  -5.269  25.631  0.00  0.00    +0.190 C 
BRANCH  23  24
ATOM     24  O   UNL     1       8.222  -5.793  26.396  0.00  0.00    -0.392 OA
ATOM     25  H   UNL     1       8.811  -6.258  25.777  0.00  0.00    +0.210 HD
ENDBRANCH  23  24
ENDBRANCH  14  23
ENDBRANCH   1  17
TORSDOF 9
ENDMDL
