MODEL 1
REMARK VINA RESULT:      -4.5      0.000      0.000
REMARK  Name = 
REMARK  3 active torsions:
REMARK  status: ('A' for Active; 'I' for Inactive)
REMARK    1  A    between atoms: C_1  and  C_2
REMARK    2  A    between atoms: C_8  and  C_10
REMARK    3  A    between atoms: C_10  and  O_11
REMARK                            x       y       z     vdW  Elec       q    Type
REMARK                         _______ _______ _______ _____ _____    ______ ____
ROOT
ATOM      1  C   UNL     1       8.857  -1.741  22.247  0.00  0.00    +0.109 C 
ATOM      2  C   UNL     1       9.126  -2.705  23.371  0.00  0.00    +0.213 C 
ATOM      3  N   UNL     1       8.048  -3.340  23.937  0.00  0.00    -0.288 N 
ATOM      4  C   UNL     1       8.176  -4.730  24.412  0.00  0.00    +0.184 C 
ATOM      5  C   UNL     1       6.724  -5.181  24.668  0.00  0.00    +0.035 C 
ATOM      6  C   UNL     1       5.877  -3.919  24.557  0.00  0.00    +0.021 C 
ATOM      7  C   UNL     1       6.665  -3.045  23.608  0.00  0.00    +0.109 C 
ATOM      8  O   UNL     1      10.262  -2.942  23.777  0.00  0.00    -0.276 OA
ENDROOT
BRANCH   4   9
ATOM      9  C   UNL     1       9.042  -5.089  25.630  0.00  0.00    +0.325 C 
ATOM     10  O   UNL     1       8.637  -5.000  26.782  0.00  0.00    -0.249 OA
BRANCH   9  11
ATOM     11  O   UNL     1      10.277  -5.559  25.351  0.00  0.00    -0.479 OA
ATOM     12  H   UNL     1      10.312  -6.538  25.420  0.00  0.00    +0.295 HD
ENDBRANCH   9  11
ENDBRANCH   4   9
TORSDOF 2
ENDMDL
MODEL 2
REMARK VINA RESULT:      -4.5      3.500      5.692
REMARK  Name = 
REMARK  3 active torsions:
REMARK  status: ('A' for Active; 'I' for Inactive)
REMARK    1  A    between atoms: C_1  and  C_2
REMARK    2  A    between atoms: C_8  and  C_10
REMARK    3  A    between atoms: C_10  and  O_11
REMARK                            x       y       z     vdW  Elec       q    Type
REMARK                         _______ _______ _______ _____ _____    ______ ____
ROOT
ATOM      1  C   UNL     1       9.849  -2.910  24.121  0.00  0.00    +0.109 C 
ATOM      2  C   UNL     1       9.814  -1.698  23.230  0.00  0.00    +0.213 C 
ATOM      3  N   UNL     1       9.377  -0.517  23.777  0.00  0.00    -0.288 N 
ATOM      4  C   UNL     1       9.976   0.760  23.350  0.00  0.00    +0.184 C 
ATOM      5  C   UNL     1       9.474   1.784  24.389  0.00  0.00    +0.035 C 
ATOM      6  C   UNL     1       8.409   1.055  25.200  0.00  0.00    +0.021 C 
ATOM      7  C   UNL     1       8.830  -0.395  25.117  0.00  0.00    +0.109 C 
ATOM      8  O   UNL     1      10.170  -1.736  22.054  0.00  0.00    -0.276 OA
ENDROOT
BRANCH   4   9
ATOM      9  C   UNL     1       9.755   1.322  21.937  0.00  0.00    +0.325 C 
ATOM     10  O   UNL     1       8.925   0.863  21.162  0.00  0.00    -0.249 OA
BRANCH   9  11
ATOM     11  O   UNL     1      10.508   2.394  21.610  0.00  0.00    -0.479 OA
ATOM     12  H   UNL     1      11.466   2.208  21.727  0.00  0.00    +0.295 HD
ENDBRANCH   9  11
ENDBRANCH   4   9
TORSDOF 2
ENDMDL
MODEL 3
REMARK VINA RESULT:      -4.4      2.979      4.245
REMARK  Name = 
REMARK  3 active torsions:
REMARK  status: ('A' for Active; 'I' for Inactive)
REMARK    1  A    between atoms: C_1  and  C_2
REMARK    2  A    between atoms: C_8  and  C_10
REMARK    3  A    between atoms: C_10  and  O_11
REMARK                            x       y       z     vdW  Elec       q    Type
REMARK                         _______ _______ _______ _____ _____    ______ ____
ROOT
ATOM      1  C   UNL     1       8.276  -4.964  26.522  0.00  0.00    +0.109 C 
ATOM      2  C   UNL     1       7.110  -5.360  25.657  0.00  0.00    +0.213 C 
ATOM      3  N   UNL     1       7.064  -4.856  24.381  0.00  0.00    -0.288 N 
ATOM      4  C   UNL     1       6.521  -5.677  23.283  0.00  0.00    +0.184 C 
ATOM      5  C   UNL     1       6.929  -4.920  22.002  0.00  0.00    +0.035 C 
ATOM      6  C   UNL     1       7.466  -3.575  22.475  0.00  0.00    +0.021 C 
ATOM      7  C   UNL     1       7.996  -3.871  23.860  0.00  0.00    +0.109 C 
ATOM      8  O   UNL     1       6.224  -6.116  26.052  0.00  0.00    -0.276 OA
ENDROOT
BRANCH   4   9
ATOM      9  C   UNL     1       5.028  -6.036  23.206  0.00  0.00    +0.325 C 
ATOM     10  O   UNL     1       4.195  -5.305  22.685  0.00  0.00    -0.249 OA
BRANCH   9  11
ATOM     11  O   UNL     1       4.691  -7.240  23.714  0.00  0.00    -0.479 OA
ATOM     12  H   UNL     1       4.851  -7.961  23.065  0.00  0.00    +0.295 HD
ENDBRANCH   9  11
ENDBRANCH   4   9
TORSDOF 2
ENDMDL
MODEL 4
REMARK VINA RESULT:      -4.4      1.628      3.567
REMARK  Name = 
REMARK  3 active torsions:
REMARK  status: ('A' for Active; 'I' for Inactive)
REMARK    1  A    between atoms: C_1  and  C_2
REMARK    2  A    between atoms: C_8  and  C_10
REMARK    3  A    between atoms: C_10  and  O_11
REMARK                            x       y       z     vdW  Elec       q    Type
REMARK                         _______ _______ _______ _____ _____    ______ ____
ROOT
ATOM      1  C   UNL     1       4.718  -6.083  25.961  0.00  0.00    +0.109 C 
ATOM      2  C   UNL     1       6.194  -5.808  26.058  0.00  0.00    +0.213 C 
ATOM      3  N   UNL     1       6.819  -5.288  24.952  0.00  0.00    -0.288 N 
ATOM      4  C   UNL     1       7.920  -4.321  25.113  0.00  0.00    +0.184 C 
ATOM      5  C   UNL     1       8.131  -3.742  23.699  0.00  0.00    +0.035 C 
ATOM      6  C   UNL     1       7.291  -4.612  22.771  0.00  0.00    +0.021 C 
ATOM      7  C   UNL     1       6.175  -5.107  23.662  0.00  0.00    +0.109 C 
ATOM      8  O   UNL     1       6.837  -6.022  27.084  0.00  0.00    -0.276 OA
ENDROOT
BRANCH   4   9
ATOM      9  C   UNL     1       9.279  -4.738  25.698  0.00  0.00    +0.325 C 
ATOM     10  O   UNL     1      10.250  -5.004  25.000  0.00  0.00    -0.249 OA
BRANCH   9  11
ATOM     11  O   UNL     1       9.356  -4.750  27.046  0.00  0.00    -0.479 OA
ATOM     12  H   UNL     1       9.781  -3.932  27.388  0.00  0.00    +0.295 HD
ENDBRANCH   9  11
ENDBRANCH   4   9
TORSDOF 2
ENDMDL
MODEL 5
REMARK VINA RESULT:      -4.3      4.715      6.043
REMARK  Name = 
REMARK  3 active torsions:
REMARK  status: ('A' for Active; 'I' for Inactive)
REMARK    1  A    between atoms: C_1  and  C_2
REMARK    2  A    between atoms: C_8  and  C_10
REMARK    3  A    between atoms: C_10  and  O_11
REMARK                            x       y       z     vdW  Elec       q    Type
REMARK                         _______ _______ _______ _____ _____    ______ ____
ROOT
ATOM      1  C   UNL     1       8.763  -0.375  26.194  0.00  0.00    +0.109 C 
ATOM      2  C   UNL     1       8.824   0.533  24.996  0.00  0.00    +0.213 C 
ATOM      3  N   UNL     1       9.311   0.009  23.824  0.00  0.00    -0.288 N 
ATOM      4  C   UNL     1       8.749   0.442  22.532  0.00  0.00    +0.184 C 
ATOM      5  C   UNL     1       9.304  -0.574  21.513  0.00  0.00    +0.035 C 
ATOM      6  C   UNL     1      10.357  -1.377  22.268  0.00  0.00    +0.021 C 
ATOM      7  C   UNL     1       9.886  -1.320  23.703  0.00  0.00    +0.109 C 
ATOM      8  O   UNL     1       8.446   1.702  25.036  0.00  0.00    -0.276 OA
ENDROOT
BRANCH   4   9
ATOM      9  C   UNL     1       8.964   1.866  21.996  0.00  0.00    +0.325 C 
ATOM     10  O   UNL     1       8.060   2.688  21.914  0.00  0.00    -0.249 OA
BRANCH   9  11
ATOM     11  O   UNL     1      10.233   2.178  21.659  0.00  0.00    -0.479 OA
ATOM     12  H   UNL     1      10.612   2.849  22.269  0.00  0.00    +0.295 HD
ENDBRANCH   9  11
ENDBRANCH   4   9
TORSDOF 2
ENDMDL
MODEL 6
REMARK VINA RESULT:      -4.2      3.921      5.283
REMARK  Name = 
REMARK  3 active torsions:
REMARK  status: ('A' for Active; 'I' for Inactive)
REMARK    1  A    between atoms: C_1  and  C_2
REMARK    2  A    between atoms: C_8  and  C_10
REMARK    3  A    between atoms: C_10  and  O_11
REMARK                            x       y       z     vdW  Elec       q    Type
REMARK                         _______ _______ _______ _____ _____    ______ ____
ROOT
ATOM      1  C   UNL     1       6.178   0.888  24.147  0.00  0.00    +0.109 C 
ATOM      2  C   UNL     1       7.283   0.088  23.512  0.00  0.00    +0.213 C 
ATOM      3  N   UNL     1       8.562   0.579  23.609  0.00  0.00    -0.288 N 
ATOM      4  C   UNL     1       9.699  -0.348  23.753  0.00  0.00    +0.184 C 
ATOM      5  C   UNL     1      10.883   0.558  24.149  0.00  0.00    +0.035 C 
ATOM      6  C   UNL     1      10.388   1.986  23.957  0.00  0.00    +0.021 C 
ATOM      7  C   UNL     1       8.895   1.876  24.172  0.00  0.00    +0.109 C 
ATOM      8  O   UNL     1       7.076  -0.976  22.932  0.00  0.00    -0.276 OA
ENDROOT
BRANCH   4   9
ATOM      9  C   UNL     1      10.132  -1.277  22.607  0.00  0.00    +0.325 C 
ATOM     10  O   UNL     1      10.660  -2.365  22.798  0.00  0.00    -0.249 OA
BRANCH   9  11
ATOM     11  O   UNL     1       9.852  -0.837  21.362  0.00  0.00    -0.479 OA
ATOM     12  H   UNL     1       9.751   0.140  21.341  0.00  0.00    +0.295 HD
ENDBRANCH   9  11
ENDBRANCH   4   9
TORSDOF 2
ENDMDL
MODEL 7
REMARK VINA RESULT:      -4.2      1.768      2.699
REMARK  Name = 
REMARK  3 active torsions:
REMARK  status: ('A' for Active; 'I' for Inactive)
REMARK    1  A    between atoms: C_1  and  C_2
REMARK    2  A    between atoms: C_8  and  C_10
REMARK    3  A    between atoms: C_10  and  O_11
REMARK                            x       y       z     vdW  Elec       q    Type
REMARK                         _______ _______ _______ _____ _____    ______ ____
ROOT
ATOM      1  C   UNL     1       6.122  -3.977  21.514  0.00  0.00    +0.109 C 
ATOM      2  C   UNL     1       6.850  -4.590  22.679  0.00  0.00    +0.213 C 
ATOM      3  N   UNL     1       7.880  -3.873  23.237  0.00  0.00    -0.288 N 
ATOM      4  C   UNL     1       8.121  -3.936  24.690  0.00  0.00    +0.184 C 
ATOM      5  C   UNL     1       9.110  -2.784  24.963  0.00  0.00    +0.035 C 
ATOM      6  C   UNL     1       9.561  -2.298  23.591  0.00  0.00    +0.021 C 
ATOM      7  C   UNL     1       8.388  -2.624  22.695  0.00  0.00    +0.109 C 
ATOM      8  O   UNL     1       6.545  -5.688  23.141  0.00  0.00    -0.276 OA
ENDROOT
BRANCH   4   9
ATOM      9  C   UNL     1       8.634  -5.217  25.366  0.00  0.00    +0.325 C 
ATOM     10  O   UNL     1       8.050  -5.755  26.299  0.00  0.00    -0.249 OA
BRANCH   9  11
ATOM     11  O   UNL     1       9.756  -5.748  24.836  0.00  0.00    -0.479 OA
ATOM     12  H   UNL     1      10.026  -5.274  24.019  0.00  0.00    +0.295 HD
ENDBRANCH   9  11
ENDBRANCH   4   9
TORSDOF 2
ENDMDL
MODEL 8
REMARK VINA RESULT:      -4.2      2.183      4.168
REMARK  Name = 
REMARK  3 active torsions:
REMARK  status: ('A' for Active; 'I' for Inactive)
REMARK    1  A    between atoms: C_1  and  C_2
REMARK    2  A    between atoms: C_8  and  C_10
REMARK    3  A    between atoms: C_10  and  O_11
REMARK                            x       y       z     vdW  Elec       q    Type
REMARK                         _______ _______ _______ _____ _____    ______ ____
ROOT
ATOM      1  C   UNL     1       8.589  -4.730  26.343  0.00  0.00    +0.109 C 
ATOM      2  C   UNL     1       8.750  -3.998  25.039  0.00  0.00    +0.213 C 
ATOM      3  N   UNL     1       8.812  -2.627  25.081  0.00  0.00    -0.288 N 
ATOM      4  C   UNL     1       9.676  -1.897  24.135  0.00  0.00    +0.184 C 
ATOM      5  C   UNL     1       9.726  -0.460  24.693  0.00  0.00    +0.035 C 
ATOM      6  C   UNL     1       8.672  -0.411  25.793  0.00  0.00    +0.021 C 
ATOM      7  C   UNL     1       8.605  -1.839  26.284  0.00  0.00    +0.109 C 
ATOM      8  O   UNL     1       8.837  -4.584  23.962  0.00  0.00    -0.276 OA
ENDROOT
BRANCH   4   9
ATOM      9  C   UNL     1       9.362  -1.847  22.631  0.00  0.00    +0.325 C 
ATOM     10  O   UNL     1       8.221  -1.889  22.189  0.00  0.00    -0.249 OA
BRANCH   9  11
ATOM     11  O   UNL     1      10.429  -1.707  21.817  0.00  0.00    -0.479 OA
ATOM     12  H   UNL     1      11.266  -1.936  22.279  0.00  0.00    +0.295 HD
ENDBRANCH   9  11
ENDBRANCH   4   9
TORSDOF 2
ENDMDL
MODEL 9
REMARK VINA RESULT:      -4.1      3.884      5.093
REMARK  Name = 
REMARK  3 active torsions:
REMARK  status: ('A' for Active; 'I' for Inactive)
REMARK    1  A    between atoms: C_1  and  C_2
REMARK    2  A    between atoms: C_8  and  C_10
REMARK    3  A    between atoms: C_10  and  O_11
REMARK                            x       y       z     vdW  Elec       q    Type
REMARK                         _______ _______ _______ _____ _____    ______ ____
ROOT
ATOM      1  C   UNL     1       8.715   3.118  22.377  0.00  0.00    +0.109 C 
ATOM      2  C   UNL     1       8.827   1.643  22.100  0.00  0.00    +0.213 C 
ATOM      3  N   UNL     1       9.323   0.843  23.099  0.00  0.00    -0.288 N 
ATOM      4  C   UNL     1       8.800  -0.524  23.279  0.00  0.00    +0.184 C 
ATOM      5  C   UNL     1       9.347  -0.965  24.651  0.00  0.00    +0.035 C 
ATOM      6  C   UNL     1      10.361   0.100  25.050  0.00  0.00    +0.021 C 
ATOM      7  C   UNL     1       9.862   1.345  24.352  0.00  0.00    +0.109 C 
ATOM      8  O   UNL     1       8.482   1.147  21.029  0.00  0.00    -0.276 OA
ENDROOT
BRANCH   4   9
ATOM      9  C   UNL     1       9.067  -1.631  22.246  0.00  0.00    +0.325 C 
ATOM     10  O   UNL     1       8.362  -2.626  22.143  0.00  0.00    -0.249 OA
BRANCH   9  11
ATOM     11  O   UNL     1      10.111  -1.417  21.418  0.00  0.00    -0.479 OA
ATOM     12  H   UNL     1       9.877  -0.787  20.701  0.00  0.00    +0.295 HD
ENDBRANCH   9  11
ENDBRANCH   4   9
TORSDOF 2
ENDMDL
