MODEL 1
REMARK VINA RESULT:      -7.6      0.000      0.000
REMARK  Name = 
REMARK  4 active torsions:
REMARK  status: ('A' for Active; 'I' for Inactive)
REMARK    1  A    between atoms: N_1  and  S_2
REMARK    2  A    between atoms: S_2  and  C_5
REMARK    3  A    between atoms: C_7  and  C_12
REMARK    4  A    between atoms: C_12  and  O_13
REMARK                            x       y       z     vdW  Elec       q    Type
REMARK                         _______ _______ _______ _____ _____    ______ ____
ROOT
ATOM      1  C   UNL     1       9.047  -0.901  24.014  0.00  0.00    +0.124 A 
ATOM      2  C   UNL     1       8.703  -0.123  25.120  0.00  0.00    +0.067 A 
ATOM      3 CL   UNL     1       8.538   1.597  25.085  0.00  0.00    -0.082 Cl
ATOM      4  C   UNL     1       8.436  -0.750  26.338  0.00  0.00    +0.022 A 
ATOM      5  C   UNL     1       8.490  -2.142  26.451  0.00  0.00    +0.010 A 
ATOM      6  C   UNL     1       8.806  -2.947  25.342  0.00  0.00    +0.009 A 
ATOM      7  C   UNL     1       9.092  -2.304  24.122  0.00  0.00    +0.038 A 
ENDROOT
BRANCH   6   8
ATOM      8  C   UNL     1       8.729  -4.470  25.423  0.00  0.00    +0.187 C 
ATOM      9  C   UNL     1       7.447  -5.005  24.852  0.00  0.00    +0.019 A 
ATOM     10  C   UNL     1       6.709  -5.622  25.862  0.00  0.00    +0.045 A 
ATOM     11  C   UNL     1       5.441  -6.135  25.660  0.00  0.00    +0.013 A 
ATOM     12  C   UNL     1       4.908  -6.029  24.374  0.00  0.00    +0.001 A 
ATOM     13  C   UNL     1       5.652  -5.442  23.334  0.00  0.00    +0.000 A 
ATOM     14  C   UNL     1       7.516  -5.589  27.085  0.00  0.00    +0.247 C 
ATOM     15  O   UNL     1       7.189  -6.022  28.172  0.00  0.00    -0.270 OA
ATOM     16  C   UNL     1       6.932  -4.928  23.567  0.00  0.00    +0.009 A 
ATOM     17  N   UNL     1       8.699  -4.956  26.772  0.00  0.00    -0.276 N 
ATOM     18  H   UNL     1       9.410  -4.805  27.469  0.00  0.00    +0.152 HD
BRANCH   8  19
ATOM     19  O   UNL     1       9.835  -5.086  24.807  0.00  0.00    -0.364 OA
ATOM     20  H   UNL     1      10.350  -5.480  25.526  0.00  0.00    +0.213 HD
ENDBRANCH   8  19
ENDBRANCH   6   8
BRANCH   1  21
ATOM     21  S   UNL     1       9.497  -0.151  22.478  0.00  0.00    +0.057 S 
ATOM     22  O   UNL     1       8.310   0.328  21.820  0.00  0.00    -0.153 OA
ATOM     23  O   UNL     1      10.640   0.706  22.702  0.00  0.00    -0.153 OA
BRANCH  21  24
ATOM     24  N   UNL     1      10.091  -1.434  21.574  0.00  0.00    -0.203 NA
ATOM     25  H   UNL     1      11.074  -1.274  21.345  0.00  0.00    +0.144 HD
ATOM     26  H   UNL     1       9.924  -2.311  22.070  0.00  0.00    +0.144 HD
ENDBRANCH  21  24
ENDBRANCH   1  21
TORSDOF 4
ENDMDL
MODEL 2
REMARK VINA RESULT:      -7.2      2.145      2.507
REMARK  Name = 
REMARK  4 active torsions:
REMARK  status: ('A' for Active; 'I' for Inactive)
REMARK    1  A    between atoms: N_1  and  S_2
REMARK    2  A    between atoms: S_2  and  C_5
REMARK    3  A    between atoms: C_7  and  C_12
REMARK    4  A    between atoms: C_12  and  O_13
REMARK                            x       y       z     vdW  Elec       q    Type
REMARK                         _______ _______ _______ _____ _____    ______ ____
ROOT
ATOM      1  C   UNL     1       8.263  -0.198  23.470  0.00  0.00    +0.124 A 
ATOM      2  C   UNL     1       9.427   0.050  22.742  0.00  0.00    +0.067 A 
ATOM      3 CL   UNL     1       9.824   1.576  22.035  0.00  0.00    -0.082 Cl
ATOM      4  C   UNL     1      10.364  -0.972  22.587  0.00  0.00    +0.022 A 
ATOM      5  C   UNL     1      10.156  -2.225  23.169  0.00  0.00    +0.010 A 
ATOM      6  C   UNL     1       9.004  -2.488  23.932  0.00  0.00    +0.009 A 
ATOM      7  C   UNL     1       8.055  -1.456  24.067  0.00  0.00    +0.038 A 
ENDROOT
BRANCH   6   8
ATOM      8  C   UNL     1       8.838  -3.805  24.687  0.00  0.00    +0.187 C 
ATOM      9  C   UNL     1       7.722  -4.643  24.129  0.00  0.00    +0.019 A 
ATOM     10  C   UNL     1       6.723  -4.784  25.091  0.00  0.00    +0.045 A 
ATOM     11  C   UNL     1       5.527  -5.431  24.842  0.00  0.00    +0.013 A 
ATOM     12  C   UNL     1       5.346  -5.969  23.566  0.00  0.00    +0.001 A 
ATOM     13  C   UNL     1       6.359  -5.866  22.594  0.00  0.00    +0.000 A 
ATOM     14  C   UNL     1       7.189  -4.131  26.318  0.00  0.00    +0.247 C 
ATOM     15  O   UNL     1       6.575  -4.042  27.362  0.00  0.00    -0.270 OA
ATOM     16  C   UNL     1       7.559  -5.203  22.872  0.00  0.00    +0.009 A 
ATOM     17  N   UNL     1       8.441  -3.620  26.052  0.00  0.00    -0.276 N 
ATOM     18  H   UNL     1       8.956  -3.110  26.752  0.00  0.00    +0.152 HD
BRANCH   8  19
ATOM     19  O   UNL     1      10.036  -4.545  24.722  0.00  0.00    -0.364 OA
ATOM     20  H   UNL     1      10.684  -4.018  24.231  0.00  0.00    +0.213 HD
ENDBRANCH   8  19
ENDBRANCH   6   8
BRANCH   1  21
ATOM     21  S   UNL     1       6.997   1.029  23.607  0.00  0.00    +0.057 S 
ATOM     22  O   UNL     1       7.402   2.022  24.566  0.00  0.00    -0.153 OA
ATOM     23  O   UNL     1       6.561   1.390  22.277  0.00  0.00    -0.153 OA
BRANCH  21  24
ATOM     24  N   UNL     1       5.705   0.186  24.269  0.00  0.00    -0.203 NA
ATOM     25  H   UNL     1       4.835   0.466  23.812  0.00  0.00    +0.144 HD
ATOM     26  H   UNL     1       5.888  -0.817  24.223  0.00  0.00    +0.144 HD
ENDBRANCH  21  24
ENDBRANCH   1  21
TORSDOF 4
ENDMDL
MODEL 3
REMARK VINA RESULT:      -7.0      3.208      6.657
REMARK  Name = 
REMARK  4 active torsions:
REMARK  status: ('A' for Active; 'I' for Inactive)
REMARK    1  A    between atoms: N_1  and  S_2
REMARK    2  A    between atoms: S_2  and  C_5
REMARK    3  A    between atoms: C_7  and  C_12
REMARK    4  A    between atoms: C_12  and  O_13
REMARK                            x       y       z     vdW  Elec       q    Type
REMARK                         _______ _______ _______ _____ _____    ______ ____
ROOT
ATOM      1  C   UNL     1       8.404  -3.689  24.596  0.00  0.00    +0.124 A 
ATOM      2  C   UNL     1       7.877  -4.001  23.342  0.00  0.00    +0.067 A 
ATOM      3 CL   UNL     1       7.280  -5.561  22.899  0.00  0.00    -0.082 Cl
ATOM      4  C   UNL     1       7.785  -3.000  22.374  0.00  0.00    +0.022 A 
ATOM      5  C   UNL     1       8.192  -1.694  22.657  0.00  0.00    +0.010 A 
ATOM      6  C   UNL     1       8.698  -1.351  23.924  0.00  0.00    +0.009 A 
ATOM      7  C   UNL     1       8.805  -2.372  24.888  0.00  0.00    +0.038 A 
ENDROOT
BRANCH   6   8
ATOM      8  C   UNL     1       9.011   0.100  24.284  0.00  0.00    +0.187 C 
ATOM      9  C   UNL     1       7.906   1.036  23.885  0.00  0.00    +0.019 A 
ATOM     10  C   UNL     1       8.373   1.919  22.913  0.00  0.00    +0.045 A 
ATOM     11  C   UNL     1       7.561   2.845  22.285  0.00  0.00    +0.013 A 
ATOM     12  C   UNL     1       6.220   2.884  22.674  0.00  0.00    +0.001 A 
ATOM     13  C   UNL     1       5.739   2.024  23.678  0.00  0.00    +0.000 A 
ATOM     14  C   UNL     1       9.801   1.650  22.717  0.00  0.00    +0.247 C 
ATOM     15  O   UNL     1      10.538   2.219  21.936  0.00  0.00    -0.270 OA
ATOM     16  C   UNL     1       6.583   1.093  24.295  0.00  0.00    +0.009 A 
ATOM     17  N   UNL     1      10.139   0.621  23.569  0.00  0.00    -0.276 N 
ATOM     18  H   UNL     1      11.076   0.254  23.597  0.00  0.00    +0.152 HD
BRANCH   8  19
ATOM     19  O   UNL     1       9.309   0.249  25.652  0.00  0.00    -0.364 OA
ATOM     20  H   UNL     1       9.470   1.195  25.784  0.00  0.00    +0.213 HD
ENDBRANCH   8  19
ENDBRANCH   6   8
BRANCH   1  21
ATOM     21  S   UNL     1       8.640  -4.942  25.821  0.00  0.00    +0.057 S 
ATOM     22  O   UNL     1       9.192  -4.346  27.008  0.00  0.00    -0.153 OA
ATOM     23  O   UNL     1       7.455  -5.770  25.866  0.00  0.00    -0.153 OA
BRANCH  21  24
ATOM     24  N   UNL     1       9.825  -5.925  25.152  0.00  0.00    -0.203 NA
ATOM     25  H   UNL     1       9.403  -6.585  24.497  0.00  0.00    +0.144 HD
ATOM     26  H   UNL     1      10.557  -5.347  24.737  0.00  0.00    +0.144 HD
ENDBRANCH  21  24
ENDBRANCH   1  21
TORSDOF 4
ENDMDL
MODEL 4
REMARK VINA RESULT:      -6.8      2.661      3.258
REMARK  Name = 
REMARK  4 active torsions:
REMARK  status: ('A' for Active; 'I' for Inactive)
REMARK    1  A    between atoms: N_1  and  S_2
REMARK    2  A    between atoms: S_2  and  C_5
REMARK    3  A    between atoms: C_7  and  C_12
REMARK    4  A    between atoms: C_12  and  O_13
REMARK                            x       y       z     vdW  Elec       q    Type
REMARK                         _______ _______ _______ _____ _____    ______ ____
ROOT
ATOM      1  C   UNL     1       8.731   0.260  23.083  0.00  0.00    +0.124 A 
ATOM      2  C   UNL     1       9.812  -0.184  23.846  0.00  0.00    +0.067 A 
ATOM      3 CL   UNL     1      11.073   0.840  24.433  0.00  0.00    -0.082 Cl
ATOM      4  C   UNL     1       9.887  -1.532  24.201  0.00  0.00    +0.022 A 
ATOM      5  C   UNL     1       8.885  -2.427  23.819  0.00  0.00    +0.010 A 
ATOM      6  C   UNL     1       7.772  -1.995  23.075  0.00  0.00    +0.009 A 
ATOM      7  C   UNL     1       7.715  -0.638  22.705  0.00  0.00    +0.038 A 
ENDROOT
BRANCH   6   8
ATOM      8  C   UNL     1       6.607  -2.936  22.776  0.00  0.00    +0.187 C 
ATOM      9  C   UNL     1       6.066  -3.583  24.020  0.00  0.00    +0.019 A 
ATOM     10  C   UNL     1       6.270  -4.961  23.954  0.00  0.00    +0.045 A 
ATOM     11  C   UNL     1       5.956  -5.817  24.992  0.00  0.00    +0.013 A 
ATOM     12  C   UNL     1       5.396  -5.251  26.139  0.00  0.00    +0.001 A 
ATOM     13  C   UNL     1       5.150  -3.867  26.209  0.00  0.00    +0.000 A 
ATOM     14  C   UNL     1       6.860  -5.261  22.645  0.00  0.00    +0.247 C 
ATOM     15  O   UNL     1       7.187  -6.359  22.241  0.00  0.00    -0.270 OA
ATOM     16  C   UNL     1       5.481  -3.022  25.144  0.00  0.00    +0.009 A 
ATOM     17  N   UNL     1       6.991  -4.063  21.977  0.00  0.00    -0.276 N 
ATOM     18  H   UNL     1       7.391  -4.023  21.054  0.00  0.00    +0.152 HD
BRANCH   8  19
ATOM     19  O   UNL     1       5.575  -2.288  22.072  0.00  0.00    -0.364 OA
ATOM     20  H   UNL     1       5.416  -1.458  22.544  0.00  0.00    +0.213 HD
ENDBRANCH   8  19
ENDBRANCH   6   8
BRANCH   1  21
ATOM     21  S   UNL     1       8.643   1.933  22.518  0.00  0.00    +0.057 S 
ATOM     22  O   UNL     1       7.549   2.062  21.592  0.00  0.00    -0.153 OA
ATOM     23  O   UNL     1       8.781   2.811  23.659  0.00  0.00    -0.153 OA
BRANCH  21  24
ATOM     24  N   UNL     1      10.066   2.129  21.649  0.00  0.00    -0.203 NA
ATOM     25  H   UNL     1      10.623   2.882  22.057  0.00  0.00    +0.144 HD
ATOM     26  H   UNL     1      10.560   1.238  21.593  0.00  0.00    +0.144 HD
ENDBRANCH  21  24
ENDBRANCH   1  21
TORSDOF 4
ENDMDL
MODEL 5
REMARK VINA RESULT:      -6.7      3.109      6.193
REMARK  Name = 
REMARK  4 active torsions:
REMARK  status: ('A' for Active; 'I' for Inactive)
REMARK    1  A    between atoms: N_1  and  S_2
REMARK    2  A    between atoms: S_2  and  C_5
REMARK    3  A    between atoms: C_7  and  C_12
REMARK    4  A    between atoms: C_12  and  O_13
REMARK                            x       y       z     vdW  Elec       q    Type
REMARK                         _______ _______ _______ _____ _____    ______ ____
ROOT
ATOM      1  C   UNL     1       7.718  -3.333  25.507  0.00  0.00    +0.124 A 
ATOM      2  C   UNL     1       6.469  -3.425  26.122  0.00  0.00    +0.067 A 
ATOM      3 CL   UNL     1       5.689  -4.915  26.520  0.00  0.00    -0.082 Cl
ATOM      4  C   UNL     1       5.798  -2.255  26.481  0.00  0.00    +0.022 A 
ATOM      5  C   UNL     1       6.374  -1.003  26.250  0.00  0.00    +0.010 A 
ATOM      6  C   UNL     1       7.645  -0.888  25.658  0.00  0.00    +0.009 A 
ATOM      7  C   UNL     1       8.304  -2.074  25.282  0.00  0.00    +0.038 A 
ENDROOT
BRANCH   6   8
ATOM      8  C   UNL     1       8.338   0.467  25.532  0.00  0.00    +0.187 C 
ATOM      9  C   UNL     1       8.270   1.012  24.133  0.00  0.00    +0.019 A 
ATOM     10  C   UNL     1       9.557   1.099  23.605  0.00  0.00    +0.045 A 
ATOM     11  C   UNL     1       9.810   1.485  22.302  0.00  0.00    +0.013 A 
ATOM     12  C   UNL     1       8.708   1.810  21.508  0.00  0.00    +0.001 A 
ATOM     13  C   UNL     1       7.404   1.762  22.035  0.00  0.00    +0.000 A 
ATOM     14  C   UNL     1      10.498   0.706  24.658  0.00  0.00    +0.247 C 
ATOM     15  O   UNL     1      11.707   0.648  24.555  0.00  0.00    -0.270 OA
ATOM     16  C   UNL     1       7.177   1.364  23.357  0.00  0.00    +0.009 A 
ATOM     17  N   UNL     1       9.750   0.395  25.773  0.00  0.00    -0.276 N 
ATOM     18  H   UNL     1      10.188   0.081  26.624  0.00  0.00    +0.152 HD
BRANCH   8  19
ATOM     19  O   UNL     1       7.829   1.405  26.449  0.00  0.00    -0.364 OA
ATOM     20  H   UNL     1       7.043   0.994  26.837  0.00  0.00    +0.213 HD
ENDBRANCH   8  19
ENDBRANCH   6   8
BRANCH   1  21
ATOM     21  S   UNL     1       8.561  -4.779  24.937  0.00  0.00    +0.057 S 
ATOM     22  O   UNL     1       7.739  -5.455  23.969  0.00  0.00    -0.153 OA
ATOM     23  O   UNL     1       9.935  -4.429  24.657  0.00  0.00    -0.153 OA
BRANCH  21  24
ATOM     24  N   UNL     1       8.635  -5.752  26.303  0.00  0.00    -0.203 NA
ATOM     25  H   UNL     1       8.016  -5.385  27.028  0.00  0.00    +0.144 HD
ATOM     26  H   UNL     1       8.436  -6.720  26.046  0.00  0.00    +0.144 HD
ENDBRANCH  21  24
ENDBRANCH   1  21
TORSDOF 4
ENDMDL
MODEL 6
REMARK VINA RESULT:      -6.7      3.684      5.888
REMARK  Name = 
REMARK  4 active torsions:
REMARK  status: ('A' for Active; 'I' for Inactive)
REMARK    1  A    between atoms: N_1  and  S_2
REMARK    2  A    between atoms: S_2  and  C_5
REMARK    3  A    between atoms: C_7  and  C_12
REMARK    4  A    between atoms: C_12  and  O_13
REMARK                            x       y       z     vdW  Elec       q    Type
REMARK                         _______ _______ _______ _____ _____    ______ ____
ROOT
ATOM      1  C   UNL     1       6.073  -4.633  23.901  0.00  0.00    +0.124 A 
ATOM      2  C   UNL     1       5.791  -5.254  25.118  0.00  0.00    +0.067 A 
ATOM      3 CL   UNL     1       4.811  -6.667  25.285  0.00  0.00    -0.082 Cl
ATOM      4  C   UNL     1       6.351  -4.743  26.290  0.00  0.00    +0.022 A 
ATOM      5  C   UNL     1       7.203  -3.635  26.249  0.00  0.00    +0.010 A 
ATOM      6  C   UNL     1       7.523  -3.012  25.030  0.00  0.00    +0.009 A 
ATOM      7  C   UNL     1       6.937  -3.524  23.856  0.00  0.00    +0.038 A 
ENDROOT
BRANCH   6   8
ATOM      8  C   UNL     1       8.560  -1.893  24.962  0.00  0.00    +0.187 C 
ATOM      9  C   UNL     1       8.069  -0.709  24.178  0.00  0.00    +0.019 A 
ATOM     10  C   UNL     1       8.858  -0.546  23.040  0.00  0.00    +0.045 A 
ATOM     11  C   UNL     1       8.596   0.409  22.075  0.00  0.00    +0.013 A 
ATOM     12  C   UNL     1       7.496   1.242  22.284  0.00  0.00    +0.001 A 
ATOM     13  C   UNL     1       6.709   1.115  23.444  0.00  0.00    +0.000 A 
ATOM     14  C   UNL     1       9.928  -1.546  23.094  0.00  0.00    +0.247 C 
ATOM     15  O   UNL     1      10.798  -1.711  22.261  0.00  0.00    -0.270 OA
ATOM     16  C   UNL     1       6.994   0.137  24.404  0.00  0.00    +0.009 A 
ATOM     17  N   UNL     1       9.745  -2.273  24.250  0.00  0.00    -0.276 N 
ATOM     18  H   UNL     1      10.360  -3.033  24.491  0.00  0.00    +0.152 HD
BRANCH   8  19
ATOM     19  O   UNL     1       8.983  -1.490  26.244  0.00  0.00    -0.364 OA
ATOM     20  H   UNL     1       8.181  -1.453  26.785  0.00  0.00    +0.213 HD
ENDBRANCH   8  19
ENDBRANCH   6   8
BRANCH   1  21
ATOM     21  S   UNL     1       5.306  -5.176  22.404  0.00  0.00    +0.057 S 
ATOM     22  O   UNL     1       3.907  -5.411  22.646  0.00  0.00    -0.153 OA
ATOM     23  O   UNL     1       5.758  -4.329  21.322  0.00  0.00    -0.153 OA
BRANCH  21  24
ATOM     24  N   UNL     1       6.024  -6.665  22.113  0.00  0.00    -0.203 NA
ATOM     25  H   UNL     1       5.413  -7.239  21.529  0.00  0.00    +0.144 HD
ATOM     26  H   UNL     1       6.956  -6.526  21.719  0.00  0.00    +0.144 HD
ENDBRANCH  21  24
ENDBRANCH   1  21
TORSDOF 4
ENDMDL
MODEL 7
REMARK VINA RESULT:      -6.6      3.591      6.557
REMARK  Name = 
REMARK  4 active torsions:
REMARK  status: ('A' for Active; 'I' for Inactive)
REMARK    1  A    between atoms: N_1  and  S_2
REMARK    2  A    between atoms: S_2  and  C_5
REMARK    3  A    between atoms: C_7  and  C_12
REMARK    4  A    between atoms: C_12  and  O_13
REMARK                            x       y       z     vdW  Elec       q    Type
REMARK                         _______ _______ _______ _____ _____    ______ ____
ROOT
ATOM      1  C   UNL     1       7.351  -3.565  23.674  0.00  0.00    +0.124 A 
ATOM      2  C   UNL     1       8.400  -3.854  24.547  0.00  0.00    +0.067 A 
ATOM      3 CL   UNL     1       9.052  -5.435  24.793  0.00  0.00    -0.082 Cl
ATOM      4  C   UNL     1       9.003  -2.814  25.256  0.00  0.00    +0.022 A 
ATOM      5  C   UNL     1       8.581  -1.493  25.081  0.00  0.00    +0.010 A 
ATOM      6  C   UNL     1       7.545  -1.176  24.184  0.00  0.00    +0.009 A 
ATOM      7  C   UNL     1       6.930  -2.235  23.489  0.00  0.00    +0.038 A 
ENDROOT
BRANCH   6   8
ATOM      8  C   UNL     1       7.175   0.275  23.885  0.00  0.00    +0.187 C 
ATOM      9  C   UNL     1       8.350   1.070  23.389  0.00  0.00    +0.019 A 
ATOM     10  C   UNL     1       8.649   2.078  24.305  0.00  0.00    +0.045 A 
ATOM     11  C   UNL     1       9.736   2.921  24.166  0.00  0.00    +0.013 A 
ATOM     12  C   UNL     1      10.543   2.740  23.042  0.00  0.00    +0.001 A 
ATOM     13  C   UNL     1      10.237   1.751  22.089  0.00  0.00    +0.000 A 
ATOM     14  C   UNL     1       7.637   2.030  25.365  0.00  0.00    +0.247 C 
ATOM     15  O   UNL     1       7.586   2.752  26.341  0.00  0.00    -0.270 OA
ATOM     16  C   UNL     1       9.131   0.909  22.256  0.00  0.00    +0.009 A 
ATOM     17  N   UNL     1       6.775   1.001  25.054  0.00  0.00    -0.276 N 
ATOM     18  H   UNL     1       6.000   0.771  25.656  0.00  0.00    +0.152 HD
BRANCH   8  19
ATOM     19  O   UNL     1       6.103   0.368  22.977  0.00  0.00    -0.364 OA
ATOM     20  H   UNL     1       5.806   1.289  23.015  0.00  0.00    +0.213 HD
ENDBRANCH   8  19
ENDBRANCH   6   8
BRANCH   1  21
ATOM     21  S   UNL     1       6.484  -4.857  22.834  0.00  0.00    +0.057 S 
ATOM     22  O   UNL     1       7.371  -5.488  21.893  0.00  0.00    -0.153 OA
ATOM     23  O   UNL     1       5.742  -5.623  23.811  0.00  0.00    -0.153 OA
BRANCH  21  24
ATOM     24  N   UNL     1       5.315  -4.036  21.953  0.00  0.00    -0.203 NA
ATOM     25  H   UNL     1       5.272  -3.061  22.254  0.00  0.00    +0.144 HD
ATOM     26  H   UNL     1       5.494  -4.150  20.954  0.00  0.00    +0.144 HD
ENDBRANCH  21  24
ENDBRANCH   1  21
TORSDOF 4
ENDMDL
MODEL 8
REMARK VINA RESULT:      -6.5      3.115      4.183
REMARK  Name = 
REMARK  4 active torsions:
REMARK  status: ('A' for Active; 'I' for Inactive)
REMARK    1  A    between atoms: N_1  and  S_2
REMARK    2  A    between atoms: S_2  and  C_5
REMARK    3  A    between atoms: C_7  and  C_12
REMARK    4  A    between atoms: C_12  and  O_13
REMARK                            x       y       z     vdW  Elec       q    Type
REMARK                         _______ _______ _______ _____ _____    ______ ____
ROOT
ATOM      1  C   UNL     1       8.197   1.205  22.965  0.00  0.00    +0.124 A 
ATOM      2  C   UNL     1       9.404   1.019  22.290  0.00  0.00    +0.067 A 
ATOM      3 CL   UNL     1      10.556   2.272  21.995  0.00  0.00    -0.082 Cl
ATOM      4  C   UNL     1       9.743  -0.258  21.842  0.00  0.00    +0.022 A 
ATOM      5  C   UNL     1       8.900  -1.347  22.082  0.00  0.00    +0.010 A 
ATOM      6  C   UNL     1       7.693  -1.186  22.786  0.00  0.00    +0.009 A 
ATOM      7  C   UNL     1       7.350   0.110  23.218  0.00  0.00    +0.038 A 
ENDROOT
BRANCH   6   8
ATOM      8  C   UNL     1       6.838  -2.391  23.174  0.00  0.00    +0.187 C 
ATOM      9  C   UNL     1       7.491  -3.234  24.232  0.00  0.00    +0.019 A 
ATOM     10  C   UNL     1       7.773  -4.497  23.711  0.00  0.00    +0.045 A 
ATOM     11  C   UNL     1       8.454  -5.467  24.422  0.00  0.00    +0.013 A 
ATOM     12  C   UNL     1       8.851  -5.146  25.721  0.00  0.00    +0.001 A 
ATOM     13  C   UNL     1       8.545  -3.889  26.275  0.00  0.00    +0.000 A 
ATOM     14  C   UNL     1       7.238  -4.545  22.347  0.00  0.00    +0.247 C 
ATOM     15  O   UNL     1       7.311  -5.486  21.581  0.00  0.00    -0.270 OA
ATOM     16  C   UNL     1       7.857  -2.923  25.532  0.00  0.00    +0.009 A 
ATOM     17  N   UNL     1       6.661  -3.319  22.096  0.00  0.00    -0.276 N 
ATOM     18  H   UNL     1       6.238  -3.116  21.205  0.00  0.00    +0.152 HD
BRANCH   8  19
ATOM     19  O   UNL     1       5.545  -2.009  23.580  0.00  0.00    -0.364 OA
ATOM     20  H   UNL     1       5.603  -1.065  23.787  0.00  0.00    +0.213 HD
ENDBRANCH   8  19
ENDBRANCH   6   8
BRANCH   1  21
ATOM     21  S   UNL     1       7.671   2.819  23.461  0.00  0.00    +0.057 S 
ATOM     22  O   UNL     1       8.495   3.271  24.550  0.00  0.00    -0.153 OA
ATOM     23  O   UNL     1       7.472   3.621  22.274  0.00  0.00    -0.153 OA
BRANCH  21  24
ATOM     24  N   UNL     1       6.128   2.560  24.068  0.00  0.00    -0.203 NA
ATOM     25  H   UNL     1       5.505   2.253  23.319  0.00  0.00    +0.144 HD
ATOM     26  H   UNL     1       6.174   1.911  24.856  0.00  0.00    +0.144 HD
ENDBRANCH  21  24
ENDBRANCH   1  21
TORSDOF 4
ENDMDL
MODEL 9
REMARK VINA RESULT:      -6.5      1.844      2.169
REMARK  Name = 
REMARK  4 active torsions:
REMARK  status: ('A' for Active; 'I' for Inactive)
REMARK    1  A    between atoms: N_1  and  S_2
REMARK    2  A    between atoms: S_2  and  C_5
REMARK    3  A    between atoms: C_7  and  C_12
REMARK    4  A    between atoms: C_12  and  O_13
REMARK                            x       y       z     vdW  Elec       q    Type
REMARK                         _______ _______ _______ _____ _____    ______ ____
ROOT
ATOM      1  C   UNL     1       8.718   0.475  23.759  0.00  0.00    +0.124 A 
ATOM      2  C   UNL     1       7.387   0.887  23.685  0.00  0.00    +0.067 A 
ATOM      3 CL   UNL     1       6.886   2.491  23.284  0.00  0.00    -0.082 Cl
ATOM      4  C   UNL     1       6.373  -0.043  23.915  0.00  0.00    +0.022 A 
ATOM      5  C   UNL     1       6.678  -1.379  24.193  0.00  0.00    +0.010 A 
ATOM      6  C   UNL     1       8.012  -1.821  24.242  0.00  0.00    +0.009 A 
ATOM      7  C   UNL     1       9.029  -0.871  24.028  0.00  0.00    +0.038 A 
ENDROOT
BRANCH   6   8
ATOM      8  C   UNL     1       8.348  -3.302  24.405  0.00  0.00    +0.187 C 
ATOM      9  C   UNL     1       7.488  -4.179  23.539  0.00  0.00    +0.019 A 
ATOM     10  C   UNL     1       6.698  -4.997  24.347  0.00  0.00    +0.045 A 
ATOM     11  C   UNL     1       5.739  -5.853  23.838  0.00  0.00    +0.013 A 
ATOM     12  C   UNL     1       5.587  -5.889  22.451  0.00  0.00    +0.001 A 
ATOM     13  C   UNL     1       6.399  -5.096  21.619  0.00  0.00    +0.000 A 
ATOM     14  C   UNL     1       7.080  -4.748  25.740  0.00  0.00    +0.247 C 
ATOM     15  O   UNL     1       6.593  -5.273  26.722  0.00  0.00    -0.270 OA
ATOM     16  C   UNL     1       7.361  -4.235  22.161  0.00  0.00    +0.009 A 
ATOM     17  N   UNL     1       8.074  -3.795  25.723  0.00  0.00    -0.276 N 
ATOM     18  H   UNL     1       8.484  -3.453  26.577  0.00  0.00    +0.152 HD
BRANCH   8  19
ATOM     19  O   UNL     1       9.711  -3.562  24.163  0.00  0.00    -0.364 OA
ATOM     20  H   UNL     1      10.051  -3.960  24.978  0.00  0.00    +0.213 HD
ENDBRANCH   8  19
ENDBRANCH   6   8
BRANCH   1  21
ATOM     21  S   UNL     1      10.040   1.635  23.581  0.00  0.00    +0.057 S 
ATOM     22  O   UNL     1       9.681   2.866  24.233  0.00  0.00    -0.153 OA
ATOM     23  O   UNL     1      11.286   0.959  23.868  0.00  0.00    -0.153 OA
BRANCH  21  24
ATOM     24  N   UNL     1      10.082   1.933  21.930  0.00  0.00    -0.203 NA
ATOM     25  H   UNL     1      10.241   2.927  21.758  0.00  0.00    +0.144 HD
ATOM     26  H   UNL     1      10.774   1.325  21.488  0.00  0.00    +0.144 HD
ENDBRANCH  21  24
ENDBRANCH   1  21
TORSDOF 4
ENDMDL
