MODEL 1
REMARK VINA RESULT:      -5.3      0.000      0.000
REMARK  Name = 
REMARK  8 active torsions:
REMARK  status: ('A' for Active; 'I' for Inactive)
REMARK    1  A    between atoms: O_1  and  C_2
REMARK    2  A    between atoms: C_2  and  C_3
REMARK    3  A    between atoms: C_6  and  O_8
REMARK    4  A    between atoms: O_8  and  P_9
REMARK    5  A    between atoms: P_9  and  O_10
REMARK    6  A    between atoms: P_9  and  O_11
REMARK    7  A    between atoms: C_13  and  O_15
REMARK    8  A    between atoms: C_16  and  O_18
REMARK                            x       y       z     vdW  Elec       q    Type
REMARK                         _______ _______ _______ _____ _____    ______ ____
ROOT
ATOM      1  C   UNL     1       5.065  -6.786  25.882  0.00  0.00    +0.178 C 
ATOM      2  C   UNL     1       4.997  -6.470  27.371  0.00  0.00    +0.179 C 
ATOM      3  C   UNL     1       6.136  -5.489  27.613  0.00  0.00    +0.202 C 
ATOM      4  C   UNL     1       6.687  -5.164  26.211  0.00  0.00    +0.293 C 
ATOM      5  O   UNL     1       5.795  -5.722  25.245  0.00  0.00    -0.340 OA
ENDROOT
BRANCH   2   6
ATOM      6  O   UNL     1       5.125  -7.655  28.163  0.00  0.00    -0.386 OA
ATOM      7  H   UNL     1       4.319  -7.685  28.721  0.00  0.00    +0.210 HD
ENDBRANCH   2   6
BRANCH   3   8
ATOM      8  O   UNL     1       7.095  -6.051  28.520  0.00  0.00    -0.384 OA
ATOM      9  H   UNL     1       7.587  -5.309  28.913  0.00  0.00    +0.210 HD
ENDBRANCH   3   8
BRANCH   1  10
ATOM     10  C   UNL     1       3.681  -6.902  25.239  0.00  0.00    +0.190 C 
BRANCH  10  11
ATOM     11  O   UNL     1       3.730  -7.742  24.084  0.00  0.00    -0.392 OA
ATOM     12  H   UNL     1       4.321  -8.483  24.299  0.00  0.00    +0.210 HD
ENDBRANCH  10  11
ENDBRANCH   1  10
BRANCH   4  13
ATOM     13  O   UNL     1       7.983  -5.694  26.034  0.00  0.00    -0.254 OA
BRANCH  13  14
ATOM     14  P   UNL     1       9.022  -4.650  25.129  0.00  0.00    +0.475 P 
ATOM     15  O   UNL     1       9.953  -3.715  24.318  0.00  0.00    -0.227 OA
BRANCH  14  16
ATOM     16  O   UNL     1       8.459  -5.357  23.765  0.00  0.00    -0.303 OA
ATOM     17  H   UNL     1       8.958  -6.198  23.695  0.00  0.00    +0.222 HD
ENDBRANCH  14  16
BRANCH  14  18
ATOM     18  O   UNL     1      10.174  -5.791  25.379  0.00  0.00    -0.303 OA
ATOM     19  H   UNL     1      10.082  -6.096  26.299  0.00  0.00    +0.222 HD
ENDBRANCH  14  18
ENDBRANCH  13  14
ENDBRANCH   4  13
TORSDOF 8
ENDMDL
MODEL 2
REMARK VINA RESULT:      -5.2      4.264      7.046
REMARK  Name = 
REMARK  8 active torsions:
REMARK  status: ('A' for Active; 'I' for Inactive)
REMARK    1  A    between atoms: O_1  and  C_2
REMARK    2  A    between atoms: C_2  and  C_3
REMARK    3  A    between atoms: C_6  and  O_8
REMARK    4  A    between atoms: O_8  and  P_9
REMARK    5  A    between atoms: P_9  and  O_10
REMARK    6  A    between atoms: P_9  and  O_11
REMARK    7  A    between atoms: C_13  and  O_15
REMARK    8  A    between atoms: C_16  and  O_18
REMARK                            x       y       z     vdW  Elec       q    Type
REMARK                         _______ _______ _______ _____ _____    ______ ____
ROOT
ATOM      1  C   UNL     1      10.254  -0.458  23.353  0.00  0.00    +0.178 C 
ATOM      2  C   UNL     1       9.041  -0.626  22.445  0.00  0.00    +0.179 C 
ATOM      3  C   UNL     1       8.293  -1.823  23.015  0.00  0.00    +0.202 C 
ATOM      4  C   UNL     1       9.029  -2.168  24.324  0.00  0.00    +0.293 C 
ATOM      5  O   UNL     1       9.963  -1.122  24.596  0.00  0.00    -0.340 OA
ENDROOT
BRANCH   2   6
ATOM      6  O   UNL     1       9.431  -0.828  21.083  0.00  0.00    -0.386 OA
ATOM      7  H   UNL     1      10.349  -1.172  21.123  0.00  0.00    +0.210 HD
ENDBRANCH   2   6
BRANCH   3   8
ATOM      8  O   UNL     1       8.247  -2.887  22.053  0.00  0.00    -0.384 OA
ATOM      9  H   UNL     1       7.315  -3.002  21.797  0.00  0.00    +0.210 HD
ENDBRANCH   3   8
BRANCH   1  10
ATOM     10  C   UNL     1      10.582   1.011  23.632  0.00  0.00    +0.190 C 
BRANCH  10  11
ATOM     11  O   UNL     1      10.266   1.822  22.498  0.00  0.00    -0.392 OA
ATOM     12  H   UNL     1       9.333   1.654  22.282  0.00  0.00    +0.210 HD
ENDBRANCH  10  11
ENDBRANCH   1  10
BRANCH   4  13
ATOM     13  O   UNL     1       9.707  -3.403  24.221  0.00  0.00    -0.254 OA
BRANCH  13  14
ATOM     14  P   UNL     1       9.010  -4.640  25.208  0.00  0.00    +0.475 P 
ATOM     15  O   UNL     1       8.385  -5.748  26.092  0.00  0.00    -0.227 OA
BRANCH  14  16
ATOM     16  O   UNL     1      10.460  -5.398  25.191  0.00  0.00    -0.303 OA
ATOM     17  H   UNL     1      10.422  -5.993  24.414  0.00  0.00    +0.222 HD
ENDBRANCH  14  16
BRANCH  14  18
ATOM     18  O   UNL     1       8.517  -5.311  23.795  0.00  0.00    -0.303 OA
ATOM     19  H   UNL     1       8.013  -6.115  24.018  0.00  0.00    +0.222 HD
ENDBRANCH  14  18
ENDBRANCH  13  14
ENDBRANCH   4  13
TORSDOF 8
ENDMDL
MODEL 3
REMARK VINA RESULT:      -5.1      2.271      4.143
REMARK  Name = 
REMARK  8 active torsions:
REMARK  status: ('A' for Active; 'I' for Inactive)
REMARK    1  A    between atoms: O_1  and  C_2
REMARK    2  A    between atoms: C_2  and  C_3
REMARK    3  A    between atoms: C_6  and  O_8
REMARK    4  A    between atoms: O_8  and  P_9
REMARK    5  A    between atoms: P_9  and  O_10
REMARK    6  A    between atoms: P_9  and  O_11
REMARK    7  A    between atoms: C_13  and  O_15
REMARK    8  A    between atoms: C_16  and  O_18
REMARK                            x       y       z     vdW  Elec       q    Type
REMARK                         _______ _______ _______ _____ _____    ______ ____
ROOT
ATOM      1  C   UNL     1       7.093  -5.452  26.211  0.00  0.00    +0.178 C 
ATOM      2  C   UNL     1       8.218  -4.433  26.341  0.00  0.00    +0.179 C 
ATOM      3  C   UNL     1       8.422  -3.897  24.930  0.00  0.00    +0.202 C 
ATOM      4  C   UNL     1       7.281  -4.516  24.100  0.00  0.00    +0.293 C 
ATOM      5  O   UNL     1       6.375  -5.155  24.999  0.00  0.00    -0.340 OA
ENDROOT
BRANCH   2   6
ATOM      6  O   UNL     1       9.406  -5.030  26.872  0.00  0.00    -0.386 OA
ATOM      7  H   UNL     1       9.134  -5.444  27.718  0.00  0.00    +0.210 HD
ENDBRANCH   2   6
BRANCH   3   8
ATOM      8  O   UNL     1       9.743  -4.209  24.465  0.00  0.00    -0.384 OA
ATOM      9  H   UNL     1      10.007  -5.045  24.889  0.00  0.00    +0.210 HD
ENDBRANCH   3   8
BRANCH   1  10
ATOM     10  C   UNL     1       6.122  -5.414  27.394  0.00  0.00    +0.190 C 
BRANCH  10  11
ATOM     11  O   UNL     1       6.822  -5.602  28.626  0.00  0.00    -0.392 OA
ATOM     12  H   UNL     1       7.576  -6.186  28.436  0.00  0.00    +0.210 HD
ENDBRANCH  10  11
ENDBRANCH   1  10
BRANCH   4  13
ATOM     13  O   UNL     1       7.777  -5.454  23.168  0.00  0.00    -0.254 OA
BRANCH  13  14
ATOM     14  P   UNL     1       6.827  -5.540  21.726  0.00  0.00    +0.475 P 
ATOM     15  O   UNL     1       5.976  -5.616  20.434  0.00  0.00    -0.227 OA
BRANCH  14  16
ATOM     16  O   UNL     1       5.988  -4.242  22.263  0.00  0.00    -0.303 OA
ATOM     17  H   UNL     1       5.140  -4.273  21.774  0.00  0.00    +0.222 HD
ENDBRANCH  14  16
BRANCH  14  18
ATOM     18  O   UNL     1       5.906  -6.617  22.549  0.00  0.00    -0.303 OA
ATOM     19  H   UNL     1       6.357  -7.480  22.500  0.00  0.00    +0.222 HD
ENDBRANCH  14  18
ENDBRANCH  13  14
ENDBRANCH   4  13
TORSDOF 8
ENDMDL
MODEL 4
REMARK VINA RESULT:      -5.1      5.116      7.406
REMARK  Name = 
REMARK  8 active torsions:
REMARK  status: ('A' for Active; 'I' for Inactive)
REMARK    1  A    between atoms: O_1  and  C_2
REMARK    2  A    between atoms: C_2  and  C_3
REMARK    3  A    between atoms: C_6  and  O_8
REMARK    4  A    between atoms: O_8  and  P_9
REMARK    5  A    between atoms: P_9  and  O_10
REMARK    6  A    between atoms: P_9  and  O_11
REMARK    7  A    between atoms: C_13  and  O_15
REMARK    8  A    between atoms: C_16  and  O_18
REMARK                            x       y       z     vdW  Elec       q    Type
REMARK                         _______ _______ _______ _____ _____    ______ ____
ROOT
ATOM      1  C   UNL     1       9.021   0.483  22.871  0.00  0.00    +0.178 C 
ATOM      2  C   UNL     1       9.777   1.152  24.012  0.00  0.00    +0.179 C 
ATOM      3  C   UNL     1      10.197   0.007  24.924  0.00  0.00    +0.202 C 
ATOM      4  C   UNL     1       9.806  -1.274  24.161  0.00  0.00    +0.293 C 
ATOM      5  O   UNL     1       9.416  -0.901  22.839  0.00  0.00    -0.340 OA
ENDROOT
BRANCH   2   6
ATOM      6  O   UNL     1       8.959   2.112  24.689  0.00  0.00    -0.386 OA
ATOM      7  H   UNL     1       8.252   2.349  24.051  0.00  0.00    +0.210 HD
ENDBRANCH   2   6
BRANCH   3   8
ATOM      8  O   UNL     1       9.588   0.148  26.215  0.00  0.00    -0.384 OA
ATOM      9  H   UNL     1       8.811   0.725  26.104  0.00  0.00    +0.210 HD
ENDBRANCH   3   8
BRANCH   1  10
ATOM     10  C   UNL     1       9.318   1.122  21.512  0.00  0.00    +0.190 C 
BRANCH  10  11
ATOM     11  O   UNL     1      10.087   2.316  21.674  0.00  0.00    -0.392 OA
ATOM     12  H   UNL     1      10.856   2.239  21.083  0.00  0.00    +0.210 HD
ENDBRANCH  10  11
ENDBRANCH   1  10
BRANCH   4  13
ATOM     13  O   UNL     1       8.746  -1.949  24.804  0.00  0.00    -0.254 OA
BRANCH  13  14
ATOM     14  P   UNL     1       8.792  -3.661  24.565  0.00  0.00    +0.475 P 
ATOM     15  O   UNL     1       8.833  -5.194  24.351  0.00  0.00    -0.227 OA
BRANCH  14  16
ATOM     16  O   UNL     1      10.318  -3.489  24.001  0.00  0.00    -0.303 OA
ATOM     17  H   UNL     1      10.888  -3.864  24.704  0.00  0.00    +0.222 HD
ENDBRANCH  14  16
BRANCH  14  18
ATOM     18  O   UNL     1       8.099  -3.347  23.112  0.00  0.00    -0.303 OA
ATOM     19  H   UNL     1       8.727  -2.800  22.605  0.00  0.00    +0.222 HD
ENDBRANCH  14  18
ENDBRANCH  13  14
ENDBRANCH   4  13
TORSDOF 8
ENDMDL
MODEL 5
REMARK VINA RESULT:      -4.9      3.530      5.394
REMARK  Name = 
REMARK  8 active torsions:
REMARK  status: ('A' for Active; 'I' for Inactive)
REMARK    1  A    between atoms: O_1  and  C_2
REMARK    2  A    between atoms: C_2  and  C_3
REMARK    3  A    between atoms: C_6  and  O_8
REMARK    4  A    between atoms: O_8  and  P_9
REMARK    5  A    between atoms: P_9  and  O_10
REMARK    6  A    between atoms: P_9  and  O_11
REMARK    7  A    between atoms: C_13  and  O_15
REMARK    8  A    between atoms: C_16  and  O_18
REMARK                            x       y       z     vdW  Elec       q    Type
REMARK                         _______ _______ _______ _____ _____    ______ ____
ROOT
ATOM      1  C   UNL     1       8.792  -3.947  24.715  0.00  0.00    +0.178 C 
ATOM      2  C   UNL     1       7.692  -4.558  23.855  0.00  0.00    +0.179 C 
ATOM      3  C   UNL     1       7.583  -3.633  22.650  0.00  0.00    +0.202 C 
ATOM      4  C   UNL     1       8.749  -2.637  22.804  0.00  0.00    +0.293 C 
ATOM      5  O   UNL     1       9.584  -3.095  23.867  0.00  0.00    -0.340 OA
ENDROOT
BRANCH   2   6
ATOM      6  O   UNL     1       6.459  -4.657  24.576  0.00  0.00    -0.386 OA
ATOM      7  H   UNL     1       5.897  -3.932  24.232  0.00  0.00    +0.210 HD
ENDBRANCH   2   6
BRANCH   3   8
ATOM      8  O   UNL     1       6.281  -3.031  22.599  0.00  0.00    -0.384 OA
ATOM      9  H   UNL     1       6.078  -2.712  23.496  0.00  0.00    +0.210 HD
ENDBRANCH   3   8
BRANCH   1  10
ATOM     10  C   UNL     1       9.696  -5.004  25.354  0.00  0.00    +0.190 C 
BRANCH  10  11
ATOM     11  O   UNL     1       8.921  -5.948  26.095  0.00  0.00    -0.392 OA
ATOM     12  H   UNL     1       9.384  -6.802  26.035  0.00  0.00    +0.210 HD
ENDBRANCH  10  11
ENDBRANCH   1  10
BRANCH   4  13
ATOM     13  O   UNL     1       8.278  -1.337  23.086  0.00  0.00    -0.254 OA
BRANCH  13  14
ATOM     14  P   UNL     1       9.244  -0.097  22.365  0.00  0.00    +0.475 P 
ATOM     15  O   UNL     1      10.109   1.013  21.719  0.00  0.00    -0.227 OA
BRANCH  14  16
ATOM     16  O   UNL     1       9.951  -1.254  21.449  0.00  0.00    -0.303 OA
ATOM     17  H   UNL     1      10.827  -1.400  21.864  0.00  0.00    +0.222 HD
ENDBRANCH  14  16
BRANCH  14  18
ATOM     18  O   UNL     1      10.256  -0.325  23.635  0.00  0.00    -0.303 OA
ATOM     19  H   UNL     1       9.706  -0.373  24.437  0.00  0.00    +0.222 HD
ENDBRANCH  14  18
ENDBRANCH  13  14
ENDBRANCH   4  13
TORSDOF 8
ENDMDL
MODEL 6
REMARK VINA RESULT:      -4.8      4.049      6.607
REMARK  Name = 
REMARK  8 active torsions:
REMARK  status: ('A' for Active; 'I' for Inactive)
REMARK    1  A    between atoms: O_1  and  C_2
REMARK    2  A    between atoms: C_2  and  C_3
REMARK    3  A    between atoms: C_6  and  O_8
REMARK    4  A    between atoms: O_8  and  P_9
REMARK    5  A    between atoms: P_9  and  O_10
REMARK    6  A    between atoms: P_9  and  O_11
REMARK    7  A    between atoms: C_13  and  O_15
REMARK    8  A    between atoms: C_16  and  O_18
REMARK                            x       y       z     vdW  Elec       q    Type
REMARK                         _______ _______ _______ _____ _____    ______ ____
ROOT
ATOM      1  C   UNL     1       8.992  -0.677  25.088  0.00  0.00    +0.178 C 
ATOM      2  C   UNL     1       9.533  -0.321  23.709  0.00  0.00    +0.179 C 
ATOM      3  C   UNL     1       9.491  -1.626  22.926  0.00  0.00    +0.202 C 
ATOM      4  C   UNL     1       8.764  -2.623  23.851  0.00  0.00    +0.293 C 
ATOM      5  O   UNL     1       8.234  -1.893  24.957  0.00  0.00    -0.340 OA
ENDROOT
BRANCH   2   6
ATOM      6  O   UNL     1      10.855   0.221  23.789  0.00  0.00    -0.386 OA
ATOM      7  H   UNL     1      11.431  -0.426  23.330  0.00  0.00    +0.210 HD
ENDBRANCH   2   6
BRANCH   3   8
ATOM      8  O   UNL     1      10.816  -2.020  22.541  0.00  0.00    -0.384 OA
ATOM      9  H   UNL     1      11.082  -1.445  21.801  0.00  0.00    +0.210 HD
ENDBRANCH   3   8
BRANCH   1  10
ATOM     10  C   UNL     1       8.094   0.417  25.670  0.00  0.00    +0.190 C 
BRANCH  10  11
ATOM     11  O   UNL     1       8.690   1.705  25.495  0.00  0.00    -0.392 OA
ATOM     12  H   UNL     1       9.607   1.554  25.210  0.00  0.00    +0.210 HD
ENDBRANCH  10  11
ENDBRANCH   1  10
BRANCH   4  13
ATOM     13  O   UNL     1       9.643  -3.627  24.312  0.00  0.00    -0.254 OA
BRANCH  13  14
ATOM     14  P   UNL     1       8.847  -4.837  25.257  0.00  0.00    +0.475 P 
ATOM     15  O   UNL     1       8.134  -5.922  26.103  0.00  0.00    -0.227 OA
BRANCH  14  16
ATOM     16  O   UNL     1       9.106  -3.904  26.576  0.00  0.00    -0.303 OA
ATOM     17  H   UNL     1      10.067  -3.983  26.753  0.00  0.00    +0.222 HD
ENDBRANCH  14  16
BRANCH  14  18
ATOM     18  O   UNL     1      10.318  -5.558  25.339  0.00  0.00    -0.303 OA
ATOM     19  H   UNL     1      10.493  -5.750  26.278  0.00  0.00    +0.222 HD
ENDBRANCH  14  18
ENDBRANCH  13  14
ENDBRANCH   4  13
TORSDOF 8
ENDMDL
MODEL 7
REMARK VINA RESULT:      -4.8      5.125      7.258
REMARK  Name = 
REMARK  8 active torsions:
REMARK  status: ('A' for Active; 'I' for Inactive)
REMARK    1  A    between atoms: O_1  and  C_2
REMARK    2  A    between atoms: C_2  and  C_3
REMARK    3  A    between atoms: C_6  and  O_8
REMARK    4  A    between atoms: O_8  and  P_9
REMARK    5  A    between atoms: P_9  and  O_10
REMARK    6  A    between atoms: P_9  and  O_11
REMARK    7  A    between atoms: C_13  and  O_15
REMARK    8  A    between atoms: C_16  and  O_18
REMARK                            x       y       z     vdW  Elec       q    Type
REMARK                         _______ _______ _______ _____ _____    ______ ____
ROOT
ATOM      1  C   UNL     1       8.666  -1.529  24.868  0.00  0.00    +0.178 C 
ATOM      2  C   UNL     1       9.387  -2.533  23.976  0.00  0.00    +0.179 C 
ATOM      3  C   UNL     1      10.291  -1.686  23.091  0.00  0.00    +0.202 C 
ATOM      4  C   UNL     1      10.165  -0.254  23.645  0.00  0.00    +0.293 C 
ATOM      5  O   UNL     1       9.442  -0.317  24.875  0.00  0.00    -0.340 OA
ENDROOT
BRANCH   2   6
ATOM      6  O   UNL     1       8.461  -3.315  23.215  0.00  0.00    -0.386 OA
ATOM      7  H   UNL     1       7.682  -2.736  23.076  0.00  0.00    +0.210 HD
ENDBRANCH   2   6
BRANCH   3   8
ATOM      8  O   UNL     1       9.919  -1.833  21.713  0.00  0.00    -0.384 OA
ATOM      9  H   UNL     1      10.735  -2.007  21.212  0.00  0.00    +0.210 HD
ENDBRANCH   3   8
BRANCH   1  10
ATOM     10  C   UNL     1       8.500  -2.029  26.305  0.00  0.00    +0.190 C 
BRANCH  10  11
ATOM     11  O   UNL     1       8.401  -3.455  26.334  0.00  0.00    -0.392 OA
ATOM     12  H   UNL     1       9.190  -3.801  25.882  0.00  0.00    +0.210 HD
ENDBRANCH  10  11
ENDBRANCH   1  10
BRANCH   4  13
ATOM     13  O   UNL     1       9.493   0.590  22.734  0.00  0.00    -0.254 OA
BRANCH  13  14
ATOM     14  P   UNL     1       9.618   2.265  23.147  0.00  0.00    +0.475 P 
ATOM     15  O   UNL     1       9.729   3.765  23.516  0.00  0.00    -0.227 OA
BRANCH  14  16
ATOM     16  O   UNL     1      10.386   2.505  21.722  0.00  0.00    -0.303 OA
ATOM     17  H   UNL     1      11.014   1.757  21.648  0.00  0.00    +0.222 HD
ENDBRANCH  14  16
BRANCH  14  18
ATOM     18  O   UNL     1      10.987   1.835  23.941  0.00  0.00    -0.303 OA
ATOM     19  H   UNL     1      11.609   2.582  23.867  0.00  0.00    +0.222 HD
ENDBRANCH  14  18
ENDBRANCH  13  14
ENDBRANCH   4  13
TORSDOF 8
ENDMDL
MODEL 8
REMARK VINA RESULT:      -4.7      6.468      8.291
REMARK  Name = 
REMARK  8 active torsions:
REMARK  status: ('A' for Active; 'I' for Inactive)
REMARK    1  A    between atoms: O_1  and  C_2
REMARK    2  A    between atoms: C_2  and  C_3
REMARK    3  A    between atoms: C_6  and  O_8
REMARK    4  A    between atoms: O_8  and  P_9
REMARK    5  A    between atoms: P_9  and  O_10
REMARK    6  A    between atoms: P_9  and  O_11
REMARK    7  A    between atoms: C_13  and  O_15
REMARK    8  A    between atoms: C_16  and  O_18
REMARK                            x       y       z     vdW  Elec       q    Type
REMARK                         _______ _______ _______ _____ _____    ______ ____
ROOT
ATOM      1  C   UNL     1       7.035   2.030  23.267  0.00  0.00    +0.178 C 
ATOM      2  C   UNL     1       7.640   2.595  21.987  0.00  0.00    +0.179 C 
ATOM      3  C   UNL     1       8.612   1.523  21.510  0.00  0.00    +0.202 C 
ATOM      4  C   UNL     1       8.380   0.327  22.454  0.00  0.00    +0.293 C 
ATOM      5  O   UNL     1       7.223   0.603  23.243  0.00  0.00    -0.340 OA
ENDROOT
BRANCH   2   6
ATOM      6  O   UNL     1       8.289   3.848  22.225  0.00  0.00    -0.386 OA
ATOM      7  H   UNL     1       7.570   4.515  22.241  0.00  0.00    +0.210 HD
ENDBRANCH   2   6
BRANCH   3   8
ATOM      8  O   UNL     1       9.953   2.033  21.504  0.00  0.00    -0.384 OA
ATOM      9  H   UNL     1      10.489   1.425  20.965  0.00  0.00    +0.210 HD
ENDBRANCH   3   8
BRANCH   1  10
ATOM     10  C   UNL     1       5.542   2.339  23.400  0.00  0.00    +0.190 C 
BRANCH  10  11
ATOM     11  O   UNL     1       4.917   1.426  24.304  0.00  0.00    -0.392 OA
ATOM     12  H   UNL     1       5.391   0.580  24.223  0.00  0.00    +0.210 HD
ENDBRANCH  10  11
ENDBRANCH   1  10
BRANCH   4  13
ATOM     13  O   UNL     1       9.495   0.113  23.292  0.00  0.00    -0.254 OA
BRANCH  13  14
ATOM     14  P   UNL     1       9.798  -1.562  23.599  0.00  0.00    +0.475 P 
ATOM     15  O   UNL     1      10.070  -3.062  23.873  0.00  0.00    -0.227 OA
BRANCH  14  16
ATOM     16  O   UNL     1       8.667  -1.919  22.472  0.00  0.00    -0.303 OA
ATOM     17  H   UNL     1       8.379  -2.831  22.687  0.00  0.00    +0.222 HD
ENDBRANCH  14  16
BRANCH  14  18
ATOM     18  O   UNL     1       8.705  -1.407  24.810  0.00  0.00    -0.303 OA
ATOM     19  H   UNL     1       9.019  -1.951  25.555  0.00  0.00    +0.222 HD
ENDBRANCH  14  18
ENDBRANCH  13  14
ENDBRANCH   4  13
TORSDOF 8
ENDMDL
MODEL 9
REMARK VINA RESULT:      -4.7      2.365      3.573
REMARK  Name = 
REMARK  8 active torsions:
REMARK  status: ('A' for Active; 'I' for Inactive)
REMARK    1  A    between atoms: O_1  and  C_2
REMARK    2  A    between atoms: C_2  and  C_3
REMARK    3  A    between atoms: C_6  and  O_8
REMARK    4  A    between atoms: O_8  and  P_9
REMARK    5  A    between atoms: P_9  and  O_10
REMARK    6  A    between atoms: P_9  and  O_11
REMARK    7  A    between atoms: C_13  and  O_15
REMARK    8  A    between atoms: C_16  and  O_18
REMARK                            x       y       z     vdW  Elec       q    Type
REMARK                         _______ _______ _______ _____ _____    ______ ____
ROOT
ATOM      1  C   UNL     1       4.776  -5.766  24.578  0.00  0.00    +0.178 C 
ATOM      2  C   UNL     1       4.469  -5.663  23.088  0.00  0.00    +0.179 C 
ATOM      3  C   UNL     1       5.666  -4.933  22.495  0.00  0.00    +0.202 C 
ATOM      4  C   UNL     1       6.674  -4.811  23.654  0.00  0.00    +0.293 C 
ATOM      5  O   UNL     1       6.197  -5.604  24.741  0.00  0.00    -0.340 OA
ENDROOT
BRANCH   2   6
ATOM      6  O   UNL     1       3.239  -4.969  22.855  0.00  0.00    -0.386 OA
ATOM      7  H   UNL     1       3.177  -4.869  21.882  0.00  0.00    +0.210 HD
ENDBRANCH   2   6
BRANCH   3   8
ATOM      8  O   UNL     1       5.254  -3.683  21.923  0.00  0.00    -0.384 OA
ATOM      9  H   UNL     1       5.565  -3.674  21.000  0.00  0.00    +0.210 HD
ENDBRANCH   3   8
BRANCH   1  10
ATOM     10  C   UNL     1       4.351  -7.110  25.176  0.00  0.00    +0.190 C 
BRANCH  10  11
ATOM     11  O   UNL     1       3.638  -7.887  24.212  0.00  0.00    -0.392 OA
ATOM     12  H   UNL     1       2.694  -7.676  24.321  0.00  0.00    +0.210 HD
ENDBRANCH  10  11
ENDBRANCH   1  10
BRANCH   4  13
ATOM     13  O   UNL     1       6.822  -3.469  24.065  0.00  0.00    -0.254 OA
BRANCH  13  14
ATOM     14  P   UNL     1       8.457  -2.913  23.985  0.00  0.00    +0.475 P 
ATOM     15  O   UNL     1       9.923  -2.416  23.913  0.00  0.00    -0.227 OA
BRANCH  14  16
ATOM     16  O   UNL     1       8.280  -2.786  22.363  0.00  0.00    -0.303 OA
ATOM     17  H   UNL     1       7.966  -1.869  22.218  0.00  0.00    +0.222 HD
ENDBRANCH  14  16
BRANCH  14  18
ATOM     18  O   UNL     1       8.859  -4.502  23.928  0.00  0.00    -0.303 OA
ATOM     19  H   UNL     1       9.805  -4.552  23.701  0.00  0.00    +0.222 HD
ENDBRANCH  14  18
ENDBRANCH  13  14
ENDBRANCH   4  13
TORSDOF 8
ENDMDL
