MODEL 1
REMARK VINA RESULT:      -5.3      0.000      0.000
REMARK  Name = 
REMARK  12 active torsions:
REMARK  status: ('A' for Active; 'I' for Inactive)
REMARK    1  A    between atoms: C_1  and  C_2
REMARK    2  A    between atoms: C_2  and  C_3
REMARK    3  A    between atoms: C_2  and  C_4
REMARK    4  A    between atoms: C_4  and  C_5
REMARK    5  A    between atoms: C_7  and  O_8
REMARK    6  A    between atoms: C_7  and  C_9
REMARK    7  A    between atoms: C_9  and  N_11
REMARK    8  A    between atoms: C_9  and  C_12
REMARK    9  A    between atoms: C_12  and  C_14
REMARK   10  A    between atoms: C_12  and  O_15
REMARK   11  A    between atoms: N_16  and  C_17
REMARK   12  A    between atoms: C_17  and  C_18
REMARK                            x       y       z     vdW  Elec       q    Type
REMARK                         _______ _______ _______ _____ _____    ______ ____
ROOT
ATOM      1  C   UNL     1       9.901  -1.179  24.093  0.00  0.00    +0.103 C 
ATOM      2  C   UNL     1       9.010  -1.264  25.306  0.00  0.00    +0.264 C 
ATOM      3  O   UNL     1       8.831  -0.372  26.103  0.00  0.00    -0.269 OA
ATOM      4  N   UNL     1       8.614  -2.561  25.318  0.00  0.00    -0.241 N 
ATOM      5  C   UNL     1       9.079  -3.226  24.137  0.00  0.00    +0.253 C 
ATOM      6  N   UNL     1      10.036  -2.310  23.465  0.00  0.00    -0.230 NA
ENDROOT
BRANCH   5   7
ATOM      7  O   UNL     1       9.758  -4.389  24.571  0.00  0.00    -0.352 OA
ATOM      8  H   UNL     1       9.099  -5.082  24.390  0.00  0.00    +0.214 HD
ENDBRANCH   5   7
BRANCH   1   9
ATOM      9  C   UNL     1      10.624   0.087  23.754  0.00  0.00    +0.063 C 
BRANCH   9  11
ATOM     10  C   UNL     1      10.356   2.531  23.086  0.00  0.00    +0.007 C 
ATOM     11  C   UNL     1       9.732   1.134  23.068  0.00  0.00    -0.011 C 
ATOM     12  C   UNL     1       9.462   0.717  21.619  0.00  0.00    +0.007 C 
ENDBRANCH   9  11
ENDBRANCH   1   9
BRANCH   4  13
ATOM     13  C   UNL     1       8.029  -3.232  26.465  0.00  0.00    +0.183 C 
BRANCH  13  14
ATOM     14  C   UNL     1       6.559  -2.962  26.722  0.00  0.00    +0.242 C 
ATOM     15  O   UNL     1       5.676  -2.964  25.872  0.00  0.00    -0.299 OA
ENDBRANCH  13  14
ENDBRANCH   4  13
BRANCH   5  16
ATOM     16  C   UNL     1       7.954  -3.666  23.102  0.00  0.00    +0.155 C 
BRANCH  16  17
ATOM     17  N   UNL     1       6.785  -2.724  23.141  0.00  0.00    -0.320 NA
ATOM     18  H   UNL     1       7.198  -1.789  23.221  0.00  0.00    +0.119 HD
ATOM     19  H   UNL     1       6.353  -2.743  22.217  0.00  0.00    +0.119 HD
ENDBRANCH  16  17
BRANCH  16  20
ATOM     20  C   UNL     1       7.454  -5.130  23.288  0.00  0.00    +0.135 C 
ATOM     21  C   UNL     1       7.217  -5.829  21.947  0.00  0.00    +0.039 C 
BRANCH  20  22
ATOM     22  O   UNL     1       6.239  -5.177  24.049  0.00  0.00    -0.390 OA
ATOM     23  H   UNL     1       5.693  -4.425  23.763  0.00  0.00    +0.210 HD
ENDBRANCH  20  22
ENDBRANCH  16  20
ENDBRANCH   5  16
TORSDOF 9
ENDMDL
MODEL 2
REMARK VINA RESULT:      -5.3      2.194      2.687
REMARK  Name = 
REMARK  12 active torsions:
REMARK  status: ('A' for Active; 'I' for Inactive)
REMARK    1  A    between atoms: C_1  and  C_2
REMARK    2  A    between atoms: C_2  and  C_3
REMARK    3  A    between atoms: C_2  and  C_4
REMARK    4  A    between atoms: C_4  and  C_5
REMARK    5  A    between atoms: C_7  and  O_8
REMARK    6  A    between atoms: C_7  and  C_9
REMARK    7  A    between atoms: C_9  and  N_11
REMARK    8  A    between atoms: C_9  and  C_12
REMARK    9  A    between atoms: C_12  and  C_14
REMARK   10  A    between atoms: C_12  and  O_15
REMARK   11  A    between atoms: N_16  and  C_17
REMARK   12  A    between atoms: C_17  and  C_18
REMARK                            x       y       z     vdW  Elec       q    Type
REMARK                         _______ _______ _______ _____ _____    ______ ____
ROOT
ATOM      1  C   UNL     1       8.490  -2.431  22.555  0.00  0.00    +0.103 C 
ATOM      2  C   UNL     1       9.227  -2.743  23.832  0.00  0.00    +0.264 C 
ATOM      3  O   UNL     1      10.135  -2.088  24.291  0.00  0.00    -0.269 OA
ATOM      4  N   UNL     1       8.714  -3.940  24.211  0.00  0.00    -0.241 N 
ATOM      5  C   UNL     1       7.633  -4.305  23.344  0.00  0.00    +0.253 C 
ATOM      6  N   UNL     1       7.646  -3.356  22.201  0.00  0.00    -0.230 NA
ENDROOT
BRANCH   5   7
ATOM      7  O   UNL     1       7.914  -5.613  22.880  0.00  0.00    -0.352 OA
ATOM      8  H   UNL     1       7.049  -5.889  22.531  0.00  0.00    +0.214 HD
ENDBRANCH   5   7
BRANCH   1   9
ATOM      9  C   UNL     1       8.819  -1.212  21.751  0.00  0.00    +0.063 C 
BRANCH   9  11
ATOM     10  C   UNL     1       8.756   1.331  21.605  0.00  0.00    +0.007 C 
ATOM     11  C   UNL     1       8.500   0.103  22.481  0.00  0.00    -0.011 C 
ATOM     12  C   UNL     1       7.038   0.102  22.938  0.00  0.00    +0.007 C 
ENDBRANCH   9  11
ENDBRANCH   1   9
BRANCH   4  13
ATOM     13  C   UNL     1       9.327  -4.828  25.183  0.00  0.00    +0.183 C 
BRANCH  13  14
ATOM     14  C   UNL     1       8.988  -4.566  26.638  0.00  0.00    +0.242 C 
ATOM     15  O   UNL     1       7.903  -4.785  27.166  0.00  0.00    -0.299 OA
ENDBRANCH  13  14
ENDBRANCH   4  13
BRANCH   5  16
ATOM     16  C   UNL     1       6.188  -4.315  24.006  0.00  0.00    +0.155 C 
BRANCH  16  17
ATOM     17  N   UNL     1       5.980  -5.551  24.833  0.00  0.00    -0.320 NA
ATOM     18  H   UNL     1       5.658  -5.211  25.746  0.00  0.00    +0.119 HD
ATOM     19  H   UNL     1       5.179  -6.045  24.439  0.00  0.00    +0.119 HD
ENDBRANCH  16  17
BRANCH  16  20
ATOM     20  C   UNL     1       5.018  -4.165  22.987  0.00  0.00    +0.135 C 
ATOM     21  C   UNL     1       3.691  -4.669  23.560  0.00  0.00    +0.039 C 
BRANCH  20  22
ATOM     22  O   UNL     1       5.289  -4.871  21.769  0.00  0.00    -0.390 OA
ATOM     23  H   UNL     1       6.074  -5.423  21.927  0.00  0.00    +0.210 HD
ENDBRANCH  20  22
ENDBRANCH  16  20
ENDBRANCH   5  16
TORSDOF 9
ENDMDL
MODEL 3
REMARK VINA RESULT:      -5.2      2.262      5.199
REMARK  Name = 
REMARK  12 active torsions:
REMARK  status: ('A' for Active; 'I' for Inactive)
REMARK    1  A    between atoms: C_1  and  C_2
REMARK    2  A    between atoms: C_2  and  C_3
REMARK    3  A    between atoms: C_2  and  C_4
REMARK    4  A    between atoms: C_4  and  C_5
REMARK    5  A    between atoms: C_7  and  O_8
REMARK    6  A    between atoms: C_7  and  C_9
REMARK    7  A    between atoms: C_9  and  N_11
REMARK    8  A    between atoms: C_9  and  C_12
REMARK    9  A    between atoms: C_12  and  C_14
REMARK   10  A    between atoms: C_12  and  O_15
REMARK   11  A    between atoms: N_16  and  C_17
REMARK   12  A    between atoms: C_17  and  C_18
REMARK                            x       y       z     vdW  Elec       q    Type
REMARK                         _______ _______ _______ _____ _____    ______ ____
ROOT
ATOM      1  C   UNL     1       7.279  -4.879  23.110  0.00  0.00    +0.103 C 
ATOM      2  C   UNL     1       7.845  -3.492  22.946  0.00  0.00    +0.264 C 
ATOM      3  O   UNL     1       7.527  -2.707  22.082  0.00  0.00    -0.269 OA
ATOM      4  N   UNL     1       8.827  -3.437  23.881  0.00  0.00    -0.241 N 
ATOM      5  C   UNL     1       8.804  -4.623  24.684  0.00  0.00    +0.253 C 
ATOM      6  N   UNL     1       7.876  -5.581  24.029  0.00  0.00    -0.230 NA
ENDROOT
BRANCH   5   7
ATOM      7  O   UNL     1      10.119  -5.147  24.666  0.00  0.00    -0.352 OA
ATOM      8  H   UNL     1      10.653  -4.346  24.806  0.00  0.00    +0.214 HD
ENDBRANCH   5   7
BRANCH   1   9
ATOM      9  C   UNL     1       6.205  -5.388  22.199  0.00  0.00    +0.063 C 
BRANCH   9  11
ATOM     10  C   UNL     1       4.726  -6.535  23.927  0.00  0.00    +0.007 C 
ATOM     11  C   UNL     1       4.819  -5.441  22.861  0.00  0.00    -0.011 C 
ATOM     12  C   UNL     1       4.494  -4.085  23.496  0.00  0.00    +0.007 C 
ENDBRANCH   9  11
ENDBRANCH   1   9
BRANCH   4  13
ATOM     13  C   UNL     1       9.891  -2.449  23.899  0.00  0.00    +0.183 C 
BRANCH  13  14
ATOM     14  C   UNL     1       9.551  -1.110  24.524  0.00  0.00    +0.242 C 
ATOM     15  O   UNL     1       9.697  -0.017  23.988  0.00  0.00    -0.299 OA
ENDBRANCH  13  14
ENDBRANCH   4  13
BRANCH   5  16
ATOM     16  C   UNL     1       8.371  -4.423  26.201  0.00  0.00    +0.155 C 
BRANCH  16  17
ATOM     17  N   UNL     1       9.535  -4.631  27.127  0.00  0.00    -0.320 NA
ATOM     18  H   UNL     1       9.314  -5.487  27.647  0.00  0.00    +0.119 HD
ATOM     19  H   UNL     1      10.339  -4.874  26.549  0.00  0.00    +0.119 HD
ENDBRANCH  16  17
BRANCH  16  20
ATOM     20  C   UNL     1       7.179  -5.323  26.649  0.00  0.00    +0.135 C 
ATOM     21  C   UNL     1       5.916  -4.503  26.925  0.00  0.00    +0.039 C 
BRANCH  20  22
ATOM     22  O   UNL     1       7.503  -6.076  27.825  0.00  0.00    -0.390 OA
ATOM     23  H   UNL     1       8.272  -5.647  28.237  0.00  0.00    +0.210 HD
ENDBRANCH  20  22
ENDBRANCH  16  20
ENDBRANCH   5  16
TORSDOF 9
ENDMDL
MODEL 4
REMARK VINA RESULT:      -5.0      2.187      5.632
REMARK  Name = 
REMARK  12 active torsions:
REMARK  status: ('A' for Active; 'I' for Inactive)
REMARK    1  A    between atoms: C_1  and  C_2
REMARK    2  A    between atoms: C_2  and  C_3
REMARK    3  A    between atoms: C_2  and  C_4
REMARK    4  A    between atoms: C_4  and  C_5
REMARK    5  A    between atoms: C_7  and  O_8
REMARK    6  A    between atoms: C_7  and  C_9
REMARK    7  A    between atoms: C_9  and  N_11
REMARK    8  A    between atoms: C_9  and  C_12
REMARK    9  A    between atoms: C_12  and  C_14
REMARK   10  A    between atoms: C_12  and  O_15
REMARK   11  A    between atoms: N_16  and  C_17
REMARK   12  A    between atoms: C_17  and  C_18
REMARK                            x       y       z     vdW  Elec       q    Type
REMARK                         _______ _______ _______ _____ _____    ______ ____
ROOT
ATOM      1  C   UNL     1       7.791  -2.944  23.056  0.00  0.00    +0.103 C 
ATOM      2  C   UNL     1       8.829  -2.523  24.064  0.00  0.00    +0.264 C 
ATOM      3  O   UNL     1       9.496  -3.278  24.734  0.00  0.00    -0.269 OA
ATOM      4  N   UNL     1       8.710  -1.172  24.098  0.00  0.00    -0.241 N 
ATOM      5  C   UNL     1       7.786  -0.738  23.093  0.00  0.00    +0.253 C 
ATOM      6  N   UNL     1       7.112  -1.950  22.561  0.00  0.00    -0.230 NA
ENDROOT
BRANCH   5   7
ATOM      7  O   UNL     1       6.837   0.084  23.749  0.00  0.00    -0.352 OA
ATOM      8  H   UNL     1       7.009  -0.122  24.684  0.00  0.00    +0.214 HD
ENDBRANCH   5   7
BRANCH   1   9
ATOM      9  C   UNL     1       7.531  -4.391  22.773  0.00  0.00    +0.063 C 
BRANCH   9  11
ATOM     10  C   UNL     1       6.254  -5.691  20.993  0.00  0.00    +0.007 C 
ATOM     11  C   UNL     1       6.169  -4.646  22.108  0.00  0.00    -0.011 C 
ATOM     12  C   UNL     1       5.155  -5.107  23.159  0.00  0.00    +0.007 C 
ENDBRANCH   9  11
ENDBRANCH   1   9
BRANCH   4  13
ATOM     13  C   UNL     1       9.243  -0.326  25.151  0.00  0.00    +0.183 C 
BRANCH  13  14
ATOM     14  C   UNL     1      10.596   0.305  24.885  0.00  0.00    +0.242 C 
ATOM     15  O   UNL     1      11.216   0.238  23.829  0.00  0.00    -0.299 OA
ENDBRANCH  13  14
ENDBRANCH   4  13
BRANCH   5  16
ATOM     16  C   UNL     1       8.411   0.091  21.889  0.00  0.00    +0.155 C 
BRANCH  16  17
ATOM     17  N   UNL     1       9.700  -0.522  21.423  0.00  0.00    -0.320 NA
ATOM     18  H   UNL     1      10.010   0.068  20.643  0.00  0.00    +0.119 HD
ATOM     19  H   UNL     1      10.389  -0.369  22.159  0.00  0.00    +0.119 HD
ENDBRANCH  16  17
BRANCH  16  20
ATOM     20  C   UNL     1       8.632   1.602  22.201  0.00  0.00    +0.135 C 
ATOM     21  C   UNL     1       7.501   2.472  21.647  0.00  0.00    +0.039 C 
BRANCH  20  22
ATOM     22  O   UNL     1       9.876   2.072  21.665  0.00  0.00    -0.390 OA
ATOM     23  H   UNL     1       9.731   2.251  20.720  0.00  0.00    +0.210 HD
ENDBRANCH  20  22
ENDBRANCH  16  20
ENDBRANCH   5  16
TORSDOF 9
ENDMDL
MODEL 5
REMARK VINA RESULT:      -5.0      1.428      1.582
REMARK  Name = 
REMARK  12 active torsions:
REMARK  status: ('A' for Active; 'I' for Inactive)
REMARK    1  A    between atoms: C_1  and  C_2
REMARK    2  A    between atoms: C_2  and  C_3
REMARK    3  A    between atoms: C_2  and  C_4
REMARK    4  A    between atoms: C_4  and  C_5
REMARK    5  A    between atoms: C_7  and  O_8
REMARK    6  A    between atoms: C_7  and  C_9
REMARK    7  A    between atoms: C_9  and  N_11
REMARK    8  A    between atoms: C_9  and  C_12
REMARK    9  A    between atoms: C_12  and  C_14
REMARK   10  A    between atoms: C_12  and  O_15
REMARK   11  A    between atoms: N_16  and  C_17
REMARK   12  A    between atoms: C_17  and  C_18
REMARK                            x       y       z     vdW  Elec       q    Type
REMARK                         _______ _______ _______ _____ _____    ______ ____
ROOT
ATOM      1  C   UNL     1       9.122  -1.759  24.098  0.00  0.00    +0.103 C 
ATOM      2  C   UNL     1       8.113  -1.937  25.204  0.00  0.00    +0.264 C 
ATOM      3  O   UNL     1       8.018  -1.231  26.181  0.00  0.00    -0.269 OA
ATOM      4  N   UNL     1       7.488  -3.096  24.879  0.00  0.00    -0.241 N 
ATOM      5  C   UNL     1       7.941  -3.555  23.600  0.00  0.00    +0.253 C 
ATOM      6  N   UNL     1       9.113  -2.723  23.224  0.00  0.00    -0.230 NA
ENDROOT
BRANCH   5   7
ATOM      7  O   UNL     1       8.350  -4.899  23.777  0.00  0.00    -0.352 OA
ATOM      8  H   UNL     1       9.019  -4.812  24.478  0.00  0.00    +0.214 HD
ENDBRANCH   5   7
BRANCH   1   9
ATOM      9  C   UNL     1      10.095  -0.621  24.117  0.00  0.00    +0.063 C 
BRANCH   9  11
ATOM     10  C   UNL     1      10.187   1.923  24.023  0.00  0.00    +0.007 C 
ATOM     11  C   UNL     1       9.554   0.653  23.449  0.00  0.00    -0.011 C 
ATOM     12  C   UNL     1       9.807   0.597  21.940  0.00  0.00    +0.007 C 
ENDBRANCH   9  11
ENDBRANCH   1   9
BRANCH   4  13
ATOM     13  C   UNL     1       6.676  -3.878  25.796  0.00  0.00    +0.183 C 
BRANCH  13  14
ATOM     14  C   UNL     1       7.427  -4.648  26.865  0.00  0.00    +0.242 C 
ATOM     15  O   UNL     1       7.992  -5.724  26.702  0.00  0.00    -0.299 OA
ENDBRANCH  13  14
ENDBRANCH   4  13
BRANCH   5  16
ATOM     16  C   UNL     1       6.867  -3.514  22.429  0.00  0.00    +0.155 C 
BRANCH  16  17
ATOM     17  N   UNL     1       5.972  -2.315  22.557  0.00  0.00    -0.320 NA
ATOM     18  H   UNL     1       5.398  -2.318  21.707  0.00  0.00    +0.119 HD
ATOM     19  H   UNL     1       5.319  -2.508  23.316  0.00  0.00    +0.119 HD
ENDBRANCH  16  17
BRANCH  16  20
ATOM     20  C   UNL     1       5.999  -4.804  22.313  0.00  0.00    +0.135 C 
ATOM     21  C   UNL     1       6.263  -5.556  21.006  0.00  0.00    +0.039 C 
BRANCH  20  22
ATOM     22  O   UNL     1       4.600  -4.505  22.395  0.00  0.00    -0.390 OA
ATOM     23  H   UNL     1       4.396  -3.886  21.673  0.00  0.00    +0.210 HD
ENDBRANCH  20  22
ENDBRANCH  16  20
ENDBRANCH   5  16
TORSDOF 9
ENDMDL
MODEL 6
REMARK VINA RESULT:      -5.0      2.427      5.647
REMARK  Name = 
REMARK  12 active torsions:
REMARK  status: ('A' for Active; 'I' for Inactive)
REMARK    1  A    between atoms: C_1  and  C_2
REMARK    2  A    between atoms: C_2  and  C_3
REMARK    3  A    between atoms: C_2  and  C_4
REMARK    4  A    between atoms: C_4  and  C_5
REMARK    5  A    between atoms: C_7  and  O_8
REMARK    6  A    between atoms: C_7  and  C_9
REMARK    7  A    between atoms: C_9  and  N_11
REMARK    8  A    between atoms: C_9  and  C_12
REMARK    9  A    between atoms: C_12  and  C_14
REMARK   10  A    between atoms: C_12  and  O_15
REMARK   11  A    between atoms: N_16  and  C_17
REMARK   12  A    between atoms: C_17  and  C_18
REMARK                            x       y       z     vdW  Elec       q    Type
REMARK                         _______ _______ _______ _____ _____    ______ ____
ROOT
ATOM      1  C   UNL     1       9.299  -2.230  24.333  0.00  0.00    +0.103 C 
ATOM      2  C   UNL     1       9.465  -1.475  23.038  0.00  0.00    +0.264 C 
ATOM      3  O   UNL     1       9.559  -1.981  21.944  0.00  0.00    -0.269 OA
ATOM      4  N   UNL     1       9.605  -0.186  23.438  0.00  0.00    -0.241 N 
ATOM      5  C   UNL     1       9.398  -0.088  24.852  0.00  0.00    +0.253 C 
ATOM      6  N   UNL     1       9.357  -1.473  25.389  0.00  0.00    -0.230 NA
ENDROOT
BRANCH   5   7
ATOM      7  O   UNL     1      10.522   0.593  25.378  0.00  0.00    -0.352 OA
ATOM      8  H   UNL     1      10.442   1.464  24.952  0.00  0.00    +0.214 HD
ENDBRANCH   5   7
BRANCH   1   9
ATOM      9  C   UNL     1       9.193  -3.723  24.347  0.00  0.00    +0.063 C 
BRANCH   9  11
ATOM     10  C   UNL     1       7.414  -5.020  23.065  0.00  0.00    +0.007 C 
ATOM     11  C   UNL     1       7.742  -4.230  24.334  0.00  0.00    -0.011 C 
ATOM     12  C   UNL     1       7.488  -5.113  25.560  0.00  0.00    +0.007 C 
ENDBRANCH   9  11
ENDBRANCH   1   9
BRANCH   4  13
ATOM     13  C   UNL     1      10.132   0.881  22.606  0.00  0.00    +0.183 C 
BRANCH  13  14
ATOM     14  C   UNL     1       9.109   1.717  21.861  0.00  0.00    +0.242 C 
ATOM     15  O   UNL     1       8.494   2.670  22.327  0.00  0.00    -0.299 OA
ENDBRANCH  13  14
ENDBRANCH   4  13
BRANCH   5  16
ATOM     16  C   UNL     1       8.089   0.693  25.307  0.00  0.00    +0.155 C 
BRANCH  16  17
ATOM     17  N   UNL     1       8.347   2.169  25.406  0.00  0.00    -0.320 NA
ATOM     18  H   UNL     1       9.367   2.259  25.455  0.00  0.00    +0.119 HD
ATOM     19  H   UNL     1       8.089   2.579  24.508  0.00  0.00    +0.119 HD
ENDBRANCH  16  17
BRANCH  16  20
ATOM     20  C   UNL     1       7.471   0.179  26.643  0.00  0.00    +0.135 C 
ATOM     21  C   UNL     1       6.393   1.125  27.176  0.00  0.00    +0.039 C 
BRANCH  20  22
ATOM     22  O   UNL     1       8.473   0.010  27.654  0.00  0.00    -0.390 OA
ATOM     23  H   UNL     1       8.009  -0.078  28.505  0.00  0.00    +0.210 HD
ENDBRANCH  20  22
ENDBRANCH  16  20
ENDBRANCH   5  16
TORSDOF 9
ENDMDL
MODEL 7
REMARK VINA RESULT:      -4.9      2.004      2.916
REMARK  Name = 
REMARK  12 active torsions:
REMARK  status: ('A' for Active; 'I' for Inactive)
REMARK    1  A    between atoms: C_1  and  C_2
REMARK    2  A    between atoms: C_2  and  C_3
REMARK    3  A    between atoms: C_2  and  C_4
REMARK    4  A    between atoms: C_4  and  C_5
REMARK    5  A    between atoms: C_7  and  O_8
REMARK    6  A    between atoms: C_7  and  C_9
REMARK    7  A    between atoms: C_9  and  N_11
REMARK    8  A    between atoms: C_9  and  C_12
REMARK    9  A    between atoms: C_12  and  C_14
REMARK   10  A    between atoms: C_12  and  O_15
REMARK   11  A    between atoms: N_16  and  C_17
REMARK   12  A    between atoms: C_17  and  C_18
REMARK                            x       y       z     vdW  Elec       q    Type
REMARK                         _______ _______ _______ _____ _____    ______ ____
ROOT
ATOM      1  C   UNL     1       8.624   0.414  24.506  0.00  0.00    +0.103 C 
ATOM      2  C   UNL     1       7.406  -0.055  23.751  0.00  0.00    +0.264 C 
ATOM      3  O   UNL     1       6.737   0.630  23.013  0.00  0.00    -0.269 OA
ATOM      4  N   UNL     1       7.218  -1.319  24.208  0.00  0.00    -0.241 N 
ATOM      5  C   UNL     1       8.299  -1.695  25.068  0.00  0.00    +0.253 C 
ATOM      6  N   UNL     1       9.093  -0.468  25.339  0.00  0.00    -0.230 NA
ENDROOT
BRANCH   5   7
ATOM      7  O   UNL     1       7.715  -2.158  26.271  0.00  0.00    -0.352 OA
ATOM      8  H   UNL     1       6.935  -1.582  26.347  0.00  0.00    +0.214 HD
ENDBRANCH   5   7
BRANCH   1   9
ATOM      9  C   UNL     1       9.134   1.814  24.355  0.00  0.00    +0.063 C 
BRANCH   9  11
ATOM     10  C   UNL     1      10.018   1.548  21.981  0.00  0.00    +0.007 C 
ATOM     11  C   UNL     1      10.354   1.920  23.427  0.00  0.00    -0.011 C 
ATOM     12  C   UNL     1      10.915   3.345  23.467  0.00  0.00    +0.007 C 
ENDBRANCH   9  11
ENDBRANCH   1   9
BRANCH   4  13
ATOM     13  C   UNL     1       5.987  -2.075  24.051  0.00  0.00    +0.183 C 
BRANCH  13  14
ATOM     14  C   UNL     1       5.802  -2.786  22.725  0.00  0.00    +0.242 C 
ATOM     15  O   UNL     1       6.706  -3.195  22.004  0.00  0.00    -0.299 OA
ENDBRANCH  13  14
ENDBRANCH   4  13
BRANCH   5  16
ATOM     16  C   UNL     1       9.261  -2.834  24.514  0.00  0.00    +0.155 C 
BRANCH  16  17
ATOM     17  N   UNL     1       9.484  -2.681  23.037  0.00  0.00    -0.320 NA
ATOM     18  H   UNL     1       8.814  -3.322  22.598  0.00  0.00    +0.119 HD
ATOM     19  H   UNL     1       9.163  -1.748  22.779  0.00  0.00    +0.119 HD
ENDBRANCH  16  17
BRANCH  16  20
ATOM     20  C   UNL     1       8.777  -4.283  24.823  0.00  0.00    +0.135 C 
ATOM     21  C   UNL     1       9.843  -5.095  25.563  0.00  0.00    +0.039 C 
BRANCH  20  22
ATOM     22  O   UNL     1       8.417  -4.984  23.626  0.00  0.00    -0.390 OA
ATOM     23  H   UNL     1       7.976  -5.807  23.897  0.00  0.00    +0.210 HD
ENDBRANCH  20  22
ENDBRANCH  16  20
ENDBRANCH   5  16
TORSDOF 9
ENDMDL
MODEL 8
REMARK VINA RESULT:      -4.9      2.334      3.922
REMARK  Name = 
REMARK  12 active torsions:
REMARK  status: ('A' for Active; 'I' for Inactive)
REMARK    1  A    between atoms: C_1  and  C_2
REMARK    2  A    between atoms: C_2  and  C_3
REMARK    3  A    between atoms: C_2  and  C_4
REMARK    4  A    between atoms: C_4  and  C_5
REMARK    5  A    between atoms: C_7  and  O_8
REMARK    6  A    between atoms: C_7  and  C_9
REMARK    7  A    between atoms: C_9  and  N_11
REMARK    8  A    between atoms: C_9  and  C_12
REMARK    9  A    between atoms: C_12  and  C_14
REMARK   10  A    between atoms: C_12  and  O_15
REMARK   11  A    between atoms: N_16  and  C_17
REMARK   12  A    between atoms: C_17  and  C_18
REMARK                            x       y       z     vdW  Elec       q    Type
REMARK                         _______ _______ _______ _____ _____    ______ ____
ROOT
ATOM      1  C   UNL     1       8.797  -0.410  22.476  0.00  0.00    +0.103 C 
ATOM      2  C   UNL     1       9.215  -1.820  22.809  0.00  0.00    +0.264 C 
ATOM      3  O   UNL     1      10.322  -2.277  22.638  0.00  0.00    -0.269 OA
ATOM      4  N   UNL     1       8.057  -2.412  23.193  0.00  0.00    -0.241 N 
ATOM      5  C   UNL     1       7.007  -1.440  23.252  0.00  0.00    +0.253 C 
ATOM      6  N   UNL     1       7.522  -0.196  22.624  0.00  0.00    -0.230 NA
ENDROOT
BRANCH   5   7
ATOM      7  O   UNL     1       5.938  -1.955  22.478  0.00  0.00    -0.352 OA
ATOM      8  H   UNL     1       5.882  -1.302  21.759  0.00  0.00    +0.214 HD
ENDBRANCH   5   7
BRANCH   1   9
ATOM      9  C   UNL     1       9.778   0.576  21.923  0.00  0.00    +0.063 C 
BRANCH   9  11
ATOM     10  C   UNL     1       9.074   2.736  23.076  0.00  0.00    +0.007 C 
ATOM     11  C   UNL     1      10.167   1.675  22.925  0.00  0.00    -0.011 C 
ATOM     12  C   UNL     1      10.461   1.052  24.293  0.00  0.00    +0.007 C 
ENDBRANCH   9  11
ENDBRANCH   1   9
BRANCH   4  13
ATOM     13  C   UNL     1       7.858  -3.848  23.285  0.00  0.00    +0.183 C 
BRANCH  13  14
ATOM     14  C   UNL     1       8.418  -4.525  24.520  0.00  0.00    +0.242 C 
ATOM     15  O   UNL     1       9.403  -5.256  24.546  0.00  0.00    -0.299 OA
ENDBRANCH  13  14
ENDBRANCH   4  13
BRANCH   5  16
ATOM     16  C   UNL     1       6.451  -1.108  24.704  0.00  0.00    +0.155 C 
BRANCH  16  17
ATOM     17  N   UNL     1       5.134  -1.786  24.947  0.00  0.00    -0.320 NA
ATOM     18  H   UNL     1       5.372  -2.756  25.179  0.00  0.00    +0.119 HD
ATOM     19  H   UNL     1       4.750  -1.396  25.809  0.00  0.00    +0.119 HD
ENDBRANCH  16  17
BRANCH  16  20
ATOM     20  C   UNL     1       6.318   0.417  25.003  0.00  0.00    +0.135 C 
ATOM     21  C   UNL     1       6.055   0.688  26.486  0.00  0.00    +0.039 C 
BRANCH  20  22
ATOM     22  O   UNL     1       5.264   1.012  24.234  0.00  0.00    -0.390 OA
ATOM     23  H   UNL     1       4.990   0.358  23.568  0.00  0.00    +0.210 HD
ENDBRANCH  20  22
ENDBRANCH  16  20
ENDBRANCH   5  16
TORSDOF 9
ENDMDL
MODEL 9
REMARK VINA RESULT:      -4.9      1.711      5.224
REMARK  Name = 
REMARK  12 active torsions:
REMARK  status: ('A' for Active; 'I' for Inactive)
REMARK    1  A    between atoms: C_1  and  C_2
REMARK    2  A    between atoms: C_2  and  C_3
REMARK    3  A    between atoms: C_2  and  C_4
REMARK    4  A    between atoms: C_4  and  C_5
REMARK    5  A    between atoms: C_7  and  O_8
REMARK    6  A    between atoms: C_7  and  C_9
REMARK    7  A    between atoms: C_9  and  N_11
REMARK    8  A    between atoms: C_9  and  C_12
REMARK    9  A    between atoms: C_12  and  C_14
REMARK   10  A    between atoms: C_12  and  O_15
REMARK   11  A    between atoms: N_16  and  C_17
REMARK   12  A    between atoms: C_17  and  C_18
REMARK                            x       y       z     vdW  Elec       q    Type
REMARK                         _______ _______ _______ _____ _____    ______ ____
ROOT
ATOM      1  C   UNL     1       7.550  -4.184  23.096  0.00  0.00    +0.103 C 
ATOM      2  C   UNL     1       7.567  -3.748  24.539  0.00  0.00    +0.264 C 
ATOM      3  O   UNL     1       7.564  -4.493  25.492  0.00  0.00    -0.269 OA
ATOM      4  N   UNL     1       7.457  -2.398  24.464  0.00  0.00    -0.241 N 
ATOM      5  C   UNL     1       7.516  -1.978  23.096  0.00  0.00    +0.253 C 
ATOM      6  N   UNL     1       7.421  -3.199  22.255  0.00  0.00    -0.230 NA
ENDROOT
BRANCH   5   7
ATOM      7  O   UNL     1       6.381  -1.160  22.877  0.00  0.00    -0.352 OA
ATOM      8  H   UNL     1       6.574  -0.786  22.000  0.00  0.00    +0.214 HD
ENDBRANCH   5   7
BRANCH   1   9
ATOM      9  C   UNL     1       7.571  -5.634  22.727  0.00  0.00    +0.063 C 
BRANCH   9  11
ATOM     10  C   UNL     1       5.033  -5.526  22.920  0.00  0.00    +0.007 C 
ATOM     11  C   UNL     1       6.225  -6.144  22.186  0.00  0.00    -0.011 C 
ATOM     12  C   UNL     1       6.116  -5.836  20.690  0.00  0.00    +0.007 C 
ENDBRANCH   9  11
ENDBRANCH   1   9
BRANCH   4  13
ATOM     13  C   UNL     1       7.084  -1.541  25.575  0.00  0.00    +0.183 C 
BRANCH  13  14
ATOM     14  C   UNL     1       8.172  -1.245  26.589  0.00  0.00    +0.242 C 
ATOM     15  O   UNL     1       9.179  -0.578  26.377  0.00  0.00    -0.299 OA
ENDBRANCH  13  14
ENDBRANCH   4  13
BRANCH   5  16
ATOM     16  C   UNL     1       8.809  -1.151  22.681  0.00  0.00    +0.155 C 
BRANCH  16  17
ATOM     17  N   UNL     1       9.957  -1.444  23.604  0.00  0.00    -0.320 NA
ATOM     18  H   UNL     1      10.528  -0.592  23.599  0.00  0.00    +0.119 HD
ATOM     19  H   UNL     1       9.577  -1.500  24.549  0.00  0.00    +0.119 HD
ENDBRANCH  16  17
BRANCH  16  20
ATOM     20  C   UNL     1       8.583   0.389  22.600  0.00  0.00    +0.135 C 
ATOM     21  C   UNL     1       9.715   1.095  21.848  0.00  0.00    +0.039 C 
BRANCH  20  22
ATOM     22  O   UNL     1       8.466   0.973  23.904  0.00  0.00    -0.390 OA
ATOM     23  H   UNL     1       7.582   0.747  24.241  0.00  0.00    +0.210 HD
ENDBRANCH  20  22
ENDBRANCH  16  20
ENDBRANCH   5  16
TORSDOF 9
ENDMDL
