MODEL 1
REMARK VINA RESULT:      -5.9      0.000      0.000
REMARK  Name = 
REMARK  7 active torsions:
REMARK  status: ('A' for Active; 'I' for Inactive)
REMARK    1  A    between atoms: C_1  and  N_2
REMARK    2  A    between atoms: N_2  and  C_3
REMARK    3  A    between atoms: N_2  and  C_4
REMARK    4  A    between atoms: C_4  and  C_5
REMARK    5  A    between atoms: C_5  and  C_6
REMARK    6  A    between atoms: C_12  and  C_13
REMARK    7  A    between atoms: C_13  and  N_14
REMARK                            x       y       z     vdW  Elec       q    Type
REMARK                         _______ _______ _______ _____ _____    ______ ____
ROOT
ATOM      1  C   UNL     1       9.838  -0.562  24.261  0.00  0.00    -0.021 A 
ATOM      2  C   UNL     1       9.220  -1.800  24.637  0.00  0.00    +0.003 A 
ATOM      3  C   UNL     1       9.029  -3.044  23.995  0.00  0.00    +0.015 A 
ATOM      4  C   UNL     1       8.359  -4.089  24.662  0.00  0.00    -0.025 A 
ATOM      5  C   UNL     1       7.928  -3.899  25.981  0.00  0.00    +0.007 A 
ATOM      6  C   UNL     1       8.100  -2.676  26.637  0.00  0.00    +0.026 A 
ATOM      7  C   UNL     1       8.731  -1.644  25.934  0.00  0.00    +0.047 A 
ATOM      8  N   UNL     1       8.990  -0.348  26.313  0.00  0.00    -0.360 N 
ATOM      9  H   UNL     1       8.726   0.054  27.201  0.00  0.00    +0.165 HD
ATOM     10  C   UNL     1       9.649   0.314  25.313  0.00  0.00    +0.087 A 
ENDROOT
BRANCH   1  11
ATOM     11  C   UNL     1      10.560  -0.262  22.978  0.00  0.00    +0.052 C 
BRANCH  11  12
ATOM     12  C   UNL     1       9.579  -0.037  21.810  0.00  0.00    +0.088 C 
BRANCH  12  14
ATOM     13  C   UNL     1       7.897   1.678  21.882  0.00  0.00    +0.104 C 
ATOM     14  N   UNL     1       9.283   1.379  21.508  0.00  0.00    -0.308 NA
ATOM     15  C   UNL     1      10.187   2.294  22.207  0.00  0.00    +0.104 C 
ENDBRANCH  12  14
ENDBRANCH  11  12
ENDBRANCH   1  11
BRANCH   4  16
ATOM     16  C   UNL     1       8.082  -5.388  23.946  0.00  0.00    +0.180 C 
BRANCH  16  17
ATOM     17  N   UNL     1       7.076  -5.319  22.900  0.00  0.00    -0.248 N 
ATOM     18  N   UNL     1       7.288  -5.985  21.742  0.00  0.00    -0.158 NA
ATOM     19  C   UNL     1       6.176  -5.697  21.061  0.00  0.00    +0.245 A 
ATOM     20  N   UNL     1       5.288  -4.891  21.713  0.00  0.00    -0.223 NA
ATOM     21  C   UNL     1       5.881  -4.672  22.866  0.00  0.00    +0.219 A 
ENDBRANCH  16  17
ENDBRANCH   4  16
TORSDOF 5
ENDMDL
MODEL 2
REMARK VINA RESULT:      -5.9      2.199      7.063
REMARK  Name = 
REMARK  7 active torsions:
REMARK  status: ('A' for Active; 'I' for Inactive)
REMARK    1  A    between atoms: C_1  and  N_2
REMARK    2  A    between atoms: N_2  and  C_3
REMARK    3  A    between atoms: N_2  and  C_4
REMARK    4  A    between atoms: C_4  and  C_5
REMARK    5  A    between atoms: C_5  and  C_6
REMARK    6  A    between atoms: C_12  and  C_13
REMARK    7  A    between atoms: C_13  and  N_14
REMARK                            x       y       z     vdW  Elec       q    Type
REMARK                         _______ _______ _______ _____ _____    ______ ____
ROOT
ATOM      1  C   UNL     1       8.233  -4.368  24.509  0.00  0.00    -0.021 A 
ATOM      2  C   UNL     1       8.722  -3.096  24.064  0.00  0.00    +0.003 A 
ATOM      3  C   UNL     1       9.511  -2.081  24.651  0.00  0.00    +0.015 A 
ATOM      4  C   UNL     1       9.822  -0.916  23.921  0.00  0.00    -0.025 A 
ATOM      5  C   UNL     1       9.383  -0.796  22.597  0.00  0.00    +0.007 A 
ATOM      6  C   UNL     1       8.597  -1.784  21.995  0.00  0.00    +0.026 A 
ATOM      7  C   UNL     1       8.269  -2.909  22.759  0.00  0.00    +0.047 A 
ATOM      8  N   UNL     1       7.490  -3.996  22.439  0.00  0.00    -0.360 N 
ATOM      9  H   UNL     1       7.010  -4.120  21.559  0.00  0.00    +0.165 HD
ATOM     10  C   UNL     1       7.455  -4.876  23.487  0.00  0.00    +0.087 A 
ENDROOT
BRANCH   1  11
ATOM     11  C   UNL     1       8.508  -5.034  25.828  0.00  0.00    +0.052 C 
BRANCH  11  12
ATOM     12  C   UNL     1       7.339  -4.851  26.815  0.00  0.00    +0.088 C 
BRANCH  12  14
ATOM     13  C   UNL     1       6.185  -6.061  28.541  0.00  0.00    +0.104 C 
ATOM     14  N   UNL     1       6.590  -6.085  27.132  0.00  0.00    -0.308 NA
ATOM     15  C   UNL     1       5.407  -6.246  26.285  0.00  0.00    +0.104 C 
ENDBRANCH  12  14
ENDBRANCH  11  12
ENDBRANCH   1  11
BRANCH   4  16
ATOM     16  C   UNL     1      10.593   0.204  24.576  0.00  0.00    +0.180 C 
BRANCH  16  17
ATOM     17  N   UNL     1      10.060   1.538  24.356  0.00  0.00    -0.248 N 
ATOM     18  N   UNL     1       8.882   1.875  24.928  0.00  0.00    -0.158 NA
ATOM     19  C   UNL     1       8.736   3.137  24.516  0.00  0.00    +0.245 A 
ATOM     20  N   UNL     1       9.740   3.607  23.720  0.00  0.00    -0.223 NA
ATOM     21  C   UNL     1      10.558   2.580  23.638  0.00  0.00    +0.219 A 
ENDBRANCH  16  17
ENDBRANCH   4  16
TORSDOF 5
ENDMDL
MODEL 3
REMARK VINA RESULT:      -5.8      2.503      3.745
REMARK  Name = 
REMARK  7 active torsions:
REMARK  status: ('A' for Active; 'I' for Inactive)
REMARK    1  A    between atoms: C_1  and  N_2
REMARK    2  A    between atoms: N_2  and  C_3
REMARK    3  A    between atoms: N_2  and  C_4
REMARK    4  A    between atoms: C_4  and  C_5
REMARK    5  A    between atoms: C_5  and  C_6
REMARK    6  A    between atoms: C_12  and  C_13
REMARK    7  A    between atoms: C_13  and  N_14
REMARK                            x       y       z     vdW  Elec       q    Type
REMARK                         _______ _______ _______ _____ _____    ______ ____
ROOT
ATOM      1  C   UNL     1       9.984  -0.552  23.167  0.00  0.00    -0.021 A 
ATOM      2  C   UNL     1       9.431  -1.790  23.631  0.00  0.00    +0.003 A 
ATOM      3  C   UNL     1       9.419  -2.462  24.874  0.00  0.00    +0.015 A 
ATOM      4  C   UNL     1       8.767  -3.705  25.000  0.00  0.00    -0.025 A 
ATOM      5  C   UNL     1       8.092  -4.243  23.898  0.00  0.00    +0.007 A 
ATOM      6  C   UNL     1       8.093  -3.601  22.656  0.00  0.00    +0.026 A 
ATOM      7  C   UNL     1       8.785  -2.390  22.550  0.00  0.00    +0.047 A 
ATOM      8  N   UNL     1       8.982  -1.578  21.458  0.00  0.00    -0.360 N 
ATOM      9  H   UNL     1       8.643  -1.775  20.528  0.00  0.00    +0.165 HD
ATOM     10  C   UNL     1       9.707  -0.474  21.815  0.00  0.00    +0.087 A 
ENDROOT
BRANCH   1  11
ATOM     11  C   UNL     1      10.719   0.475  23.980  0.00  0.00    +0.052 C 
BRANCH  11  12
ATOM     12  C   UNL     1       9.751   1.425  24.712  0.00  0.00    +0.088 C 
BRANCH  12  14
ATOM     13  C   UNL     1      10.845   3.091  23.370  0.00  0.00    +0.104 C 
ATOM     14  N   UNL     1       9.622   2.769  24.111  0.00  0.00    -0.308 NA
ATOM     15  C   UNL     1       8.467   2.865  23.216  0.00  0.00    +0.104 C 
ENDBRANCH  12  14
ENDBRANCH  11  12
ENDBRANCH   1  11
BRANCH   4  16
ATOM     16  C   UNL     1       8.826  -4.460  26.305  0.00  0.00    +0.180 C 
BRANCH  16  17
ATOM     17  N   UNL     1       7.555  -4.609  26.995  0.00  0.00    -0.248 N 
ATOM     18  N   UNL     1       7.314  -5.746  27.688  0.00  0.00    -0.158 NA
ATOM     19  C   UNL     1       6.091  -5.510  28.170  0.00  0.00    +0.245 A 
ATOM     20  N   UNL     1       5.551  -4.307  27.820  0.00  0.00    -0.223 NA
ATOM     21  C   UNL     1       6.494  -3.763  27.083  0.00  0.00    +0.219 A 
ENDBRANCH  16  17
ENDBRANCH   4  16
TORSDOF 5
ENDMDL
MODEL 4
REMARK VINA RESULT:      -5.8      1.504      2.131
REMARK  Name = 
REMARK  7 active torsions:
REMARK  status: ('A' for Active; 'I' for Inactive)
REMARK    1  A    between atoms: C_1  and  N_2
REMARK    2  A    between atoms: N_2  and  C_3
REMARK    3  A    between atoms: N_2  and  C_4
REMARK    4  A    between atoms: C_4  and  C_5
REMARK    5  A    between atoms: C_5  and  C_6
REMARK    6  A    between atoms: C_12  and  C_13
REMARK    7  A    between atoms: C_13  and  N_14
REMARK                            x       y       z     vdW  Elec       q    Type
REMARK                         _______ _______ _______ _____ _____    ______ ____
ROOT
ATOM      1  C   UNL     1       9.579   0.677  23.342  0.00  0.00    -0.021 A 
ATOM      2  C   UNL     1       8.777  -0.391  23.863  0.00  0.00    +0.003 A 
ATOM      3  C   UNL     1       7.742  -1.196  23.336  0.00  0.00    +0.015 A 
ATOM      4  C   UNL     1       7.142  -2.189  24.136  0.00  0.00    -0.025 A 
ATOM      5  C   UNL     1       7.613  -2.403  25.438  0.00  0.00    +0.007 A 
ATOM      6  C   UNL     1       8.633  -1.617  25.983  0.00  0.00    +0.026 A 
ATOM      7  C   UNL     1       9.179  -0.611  25.180  0.00  0.00    +0.047 A 
ATOM      8  N   UNL     1      10.148   0.321  25.470  0.00  0.00    -0.360 N 
ATOM      9  H   UNL     1      10.607   0.413  26.364  0.00  0.00    +0.165 HD
ATOM     10  C   UNL     1      10.392   1.105  24.374  0.00  0.00    +0.087 A 
ENDROOT
BRANCH   1  11
ATOM     11  C   UNL     1       9.556   1.231  21.946  0.00  0.00    +0.052 C 
BRANCH  11  12
ATOM     12  C   UNL     1       8.200   1.882  21.612  0.00  0.00    +0.088 C 
BRANCH  12  14
ATOM     13  C   UNL     1       7.707   4.035  22.559  0.00  0.00    +0.104 C 
ATOM     14  N   UNL     1       7.552   2.587  22.737  0.00  0.00    -0.308 NA
ATOM     15  C   UNL     1       6.130   2.257  22.852  0.00  0.00    +0.104 C 
ENDBRANCH  12  14
ENDBRANCH  11  12
ENDBRANCH   1  11
BRANCH   4  16
ATOM     16  C   UNL     1       5.981  -2.992  23.602  0.00  0.00    +0.180 C 
BRANCH  16  17
ATOM     17  N   UNL     1       6.341  -4.116  22.754  0.00  0.00    -0.248 N 
ATOM     18  N   UNL     1       5.646  -4.325  21.612  0.00  0.00    -0.158 NA
ATOM     19  C   UNL     1       6.257  -5.406  21.122  0.00  0.00    +0.245 A 
ATOM     20  N   UNL     1       7.281  -5.889  21.884  0.00  0.00    -0.223 NA
ATOM     21  C   UNL     1       7.310  -5.058  22.902  0.00  0.00    +0.219 A 
ENDBRANCH  16  17
ENDBRANCH   4  16
TORSDOF 5
ENDMDL
MODEL 5
REMARK VINA RESULT:      -5.8      2.573      4.216
REMARK  Name = 
REMARK  7 active torsions:
REMARK  status: ('A' for Active; 'I' for Inactive)
REMARK    1  A    between atoms: C_1  and  N_2
REMARK    2  A    between atoms: N_2  and  C_3
REMARK    3  A    between atoms: N_2  and  C_4
REMARK    4  A    between atoms: C_4  and  C_5
REMARK    5  A    between atoms: C_5  and  C_6
REMARK    6  A    between atoms: C_12  and  C_13
REMARK    7  A    between atoms: C_13  and  N_14
REMARK                            x       y       z     vdW  Elec       q    Type
REMARK                         _______ _______ _______ _____ _____    ______ ____
ROOT
ATOM      1  C   UNL     1       7.170   1.957  22.682  0.00  0.00    -0.021 A 
ATOM      2  C   UNL     1       7.720   0.636  22.601  0.00  0.00    +0.003 A 
ATOM      3  C   UNL     1       7.335  -0.626  23.108  0.00  0.00    +0.015 A 
ATOM      4  C   UNL     1       8.121  -1.765  22.839  0.00  0.00    -0.025 A 
ATOM      5  C   UNL     1       9.256  -1.643  22.028  0.00  0.00    +0.007 A 
ATOM      6  C   UNL     1       9.660  -0.405  21.519  0.00  0.00    +0.026 A 
ATOM      7  C   UNL     1       8.884   0.714  21.838  0.00  0.00    +0.047 A 
ATOM      8  N   UNL     1       9.068   2.038  21.513  0.00  0.00    -0.360 N 
ATOM      9  H   UNL     1       9.848   2.395  20.980  0.00  0.00    +0.165 HD
ATOM     10  C   UNL     1       8.047   2.795  22.021  0.00  0.00    +0.087 A 
ENDROOT
BRANCH   1  11
ATOM     11  C   UNL     1       5.887   2.367  23.349  0.00  0.00    +0.052 C 
BRANCH  11  12
ATOM     12  C   UNL     1       5.069   3.332  22.469  0.00  0.00    +0.088 C 
BRANCH  12  14
ATOM     13  C   UNL     1       5.775   5.586  22.910  0.00  0.00    +0.104 C 
ATOM     14  N   UNL     1       4.702   4.608  23.117  0.00  0.00    -0.308 NA
ATOM     15  C   UNL     1       3.442   5.147  22.600  0.00  0.00    +0.104 C 
ENDBRANCH  12  14
ENDBRANCH  11  12
ENDBRANCH   1  11
BRANCH   4  16
ATOM     16  C   UNL     1       7.756  -3.096  23.448  0.00  0.00    +0.180 C 
BRANCH  16  17
ATOM     17  N   UNL     1       7.135  -4.046  22.540  0.00  0.00    -0.248 N 
ATOM     18  N   UNL     1       7.532  -5.339  22.572  0.00  0.00    -0.158 NA
ATOM     19  C   UNL     1       6.752  -5.881  21.633  0.00  0.00    +0.245 A 
ATOM     20  N   UNL     1       5.900  -5.012  21.014  0.00  0.00    -0.223 NA
ATOM     21  C   UNL     1       6.163  -3.868  21.606  0.00  0.00    +0.219 A 
ENDBRANCH  16  17
ENDBRANCH   4  16
TORSDOF 5
ENDMDL
MODEL 6
REMARK VINA RESULT:      -5.8      2.100      3.949
REMARK  Name = 
REMARK  7 active torsions:
REMARK  status: ('A' for Active; 'I' for Inactive)
REMARK    1  A    between atoms: C_1  and  N_2
REMARK    2  A    between atoms: N_2  and  C_3
REMARK    3  A    between atoms: N_2  and  C_4
REMARK    4  A    between atoms: C_4  and  C_5
REMARK    5  A    between atoms: C_5  and  C_6
REMARK    6  A    between atoms: C_12  and  C_13
REMARK    7  A    between atoms: C_13  and  N_14
REMARK                            x       y       z     vdW  Elec       q    Type
REMARK                         _______ _______ _______ _____ _____    ______ ____
ROOT
ATOM      1  C   UNL     1       7.267   1.934  22.546  0.00  0.00    -0.021 A 
ATOM      2  C   UNL     1       7.797   0.603  22.510  0.00  0.00    +0.003 A 
ATOM      3  C   UNL     1       7.384  -0.639  23.043  0.00  0.00    +0.015 A 
ATOM      4  C   UNL     1       8.157  -1.797  22.819  0.00  0.00    -0.025 A 
ATOM      5  C   UNL     1       9.307  -1.714  22.025  0.00  0.00    +0.007 A 
ATOM      6  C   UNL     1       9.739  -0.496  21.490  0.00  0.00    +0.026 A 
ATOM      7  C   UNL     1       8.976   0.643  21.766  0.00  0.00    +0.047 A 
ATOM      8  N   UNL     1       9.186   1.954  21.409  0.00  0.00    -0.360 N 
ATOM      9  H   UNL     1       9.980   2.285  20.881  0.00  0.00    +0.165 HD
ATOM     10  C   UNL     1       8.169   2.740  21.879  0.00  0.00    +0.087 A 
ENDROOT
BRANCH   1  11
ATOM     11  C   UNL     1       5.980   2.381  23.179  0.00  0.00    +0.052 C 
BRANCH  11  12
ATOM     12  C   UNL     1       6.226   3.340  24.360  0.00  0.00    +0.088 C 
BRANCH  12  14
ATOM     13  C   UNL     1       7.982   4.231  25.737  0.00  0.00    +0.104 C 
ATOM     14  N   UNL     1       7.386   3.000  25.209  0.00  0.00    -0.308 NA
ATOM     15  C   UNL     1       7.018   2.119  26.319  0.00  0.00    +0.104 C 
ENDBRANCH  12  14
ENDBRANCH  11  12
ENDBRANCH   1  11
BRANCH   4  16
ATOM     16  C   UNL     1       7.761  -3.106  23.457  0.00  0.00    +0.180 C 
BRANCH  16  17
ATOM     17  N   UNL     1       7.143  -4.071  22.563  0.00  0.00    -0.248 N 
ATOM     18  N   UNL     1       7.575  -5.353  22.584  0.00  0.00    -0.158 NA
ATOM     19  C   UNL     1       6.788  -5.915  21.663  0.00  0.00    +0.245 A 
ATOM     20  N   UNL     1       5.899  -5.069  21.065  0.00  0.00    -0.223 NA
ATOM     21  C   UNL     1       6.145  -3.919  21.652  0.00  0.00    +0.219 A 
ENDBRANCH  16  17
ENDBRANCH   4  16
TORSDOF 5
ENDMDL
MODEL 7
REMARK VINA RESULT:      -5.6      2.906      7.516
REMARK  Name = 
REMARK  7 active torsions:
REMARK  status: ('A' for Active; 'I' for Inactive)
REMARK    1  A    between atoms: C_1  and  N_2
REMARK    2  A    between atoms: N_2  and  C_3
REMARK    3  A    between atoms: N_2  and  C_4
REMARK    4  A    between atoms: C_4  and  C_5
REMARK    5  A    between atoms: C_5  and  C_6
REMARK    6  A    between atoms: C_12  and  C_13
REMARK    7  A    between atoms: C_13  and  N_14
REMARK                            x       y       z     vdW  Elec       q    Type
REMARK                         _______ _______ _______ _____ _____    ______ ____
ROOT
ATOM      1  C   UNL     1       9.245  -1.354  24.534  0.00  0.00    -0.021 A 
ATOM      2  C   UNL     1       9.340   0.015  24.121  0.00  0.00    +0.003 A 
ATOM      3  C   UNL     1       9.001   1.251  24.716  0.00  0.00    +0.015 A 
ATOM      4  C   UNL     1       9.230   2.456  24.021  0.00  0.00    -0.025 A 
ATOM      5  C   UNL     1       9.838   2.420  22.761  0.00  0.00    +0.007 A 
ATOM      6  C   UNL     1      10.178   1.210  22.149  0.00  0.00    +0.026 A 
ATOM      7  C   UNL     1       9.900   0.028  22.844  0.00  0.00    +0.047 A 
ATOM      8  N   UNL     1      10.088  -1.282  22.469  0.00  0.00    -0.360 N 
ATOM      9  H   UNL     1      10.460  -1.576  21.578  0.00  0.00    +0.165 HD
ATOM     10  C   UNL     1       9.691  -2.122  23.475  0.00  0.00    +0.087 A 
ENDROOT
BRANCH   1  11
ATOM     11  C   UNL     1       8.760  -1.871  25.859  0.00  0.00    +0.052 C 
BRANCH  11  12
ATOM     12  C   UNL     1       8.075  -3.244  25.721  0.00  0.00    +0.088 C 
BRANCH  12  14
ATOM     13  C   UNL     1       7.707  -5.254  26.985  0.00  0.00    +0.104 C 
ATOM     14  N   UNL     1       8.730  -4.346  26.456  0.00  0.00    -0.308 NA
ATOM     15  C   UNL     1       9.661  -5.096  25.611  0.00  0.00    +0.104 C 
ENDBRANCH  12  14
ENDBRANCH  11  12
ENDBRANCH   1  11
BRANCH   4  16
ATOM     16  C   UNL     1       8.792   3.770  24.622  0.00  0.00    +0.180 C 
BRANCH  16  17
ATOM     17  N   UNL     1       8.184   4.707  23.691  0.00  0.00    -0.248 N 
ATOM     18  N   UNL     1       8.813   5.876  23.433  0.00  0.00    -0.158 NA
ATOM     19  C   UNL     1       7.979   6.440  22.556  0.00  0.00    +0.245 A 
ATOM     20  N   UNL     1       6.870   5.704  22.254  0.00  0.00    -0.223 NA
ATOM     21  C   UNL     1       7.027   4.620  22.982  0.00  0.00    +0.219 A 
ENDBRANCH  16  17
ENDBRANCH   4  16
TORSDOF 5
ENDMDL
MODEL 8
REMARK VINA RESULT:      -5.6      2.109      6.655
REMARK  Name = 
REMARK  7 active torsions:
REMARK  status: ('A' for Active; 'I' for Inactive)
REMARK    1  A    between atoms: C_1  and  N_2
REMARK    2  A    between atoms: N_2  and  C_3
REMARK    3  A    between atoms: N_2  and  C_4
REMARK    4  A    between atoms: C_4  and  C_5
REMARK    5  A    between atoms: C_5  and  C_6
REMARK    6  A    between atoms: C_12  and  C_13
REMARK    7  A    between atoms: C_13  and  N_14
REMARK                            x       y       z     vdW  Elec       q    Type
REMARK                         _______ _______ _______ _____ _____    ______ ____
ROOT
ATOM      1  C   UNL     1       6.585  -4.389  23.340  0.00  0.00    -0.021 A 
ATOM      2  C   UNL     1       7.658  -3.459  23.147  0.00  0.00    +0.003 A 
ATOM      3  C   UNL     1       7.885  -2.384  22.258  0.00  0.00    +0.015 A 
ATOM      4  C   UNL     1       9.084  -1.647  22.332  0.00  0.00    -0.025 A 
ATOM      5  C   UNL     1      10.024  -1.958  23.322  0.00  0.00    +0.007 A 
ATOM      6  C   UNL     1       9.825  -3.021  24.210  0.00  0.00    +0.026 A 
ATOM      7  C   UNL     1       8.645  -3.761  24.084  0.00  0.00    +0.047 A 
ATOM      8  N   UNL     1       8.217  -4.864  24.784  0.00  0.00    -0.360 N 
ATOM      9  H   UNL     1       8.743  -5.320  25.516  0.00  0.00    +0.165 HD
ATOM     10  C   UNL     1       6.982  -5.255  24.341  0.00  0.00    +0.087 A 
ENDROOT
BRANCH   1  11
ATOM     11  C   UNL     1       5.273  -4.426  22.607  0.00  0.00    +0.052 C 
BRANCH  11  12
ATOM     12  C   UNL     1       4.361  -5.555  23.124  0.00  0.00    +0.088 C 
BRANCH  12  14
ATOM     13  C   UNL     1       2.183  -6.517  22.799  0.00  0.00    +0.104 C 
ATOM     14  N   UNL     1       2.913  -5.270  23.053  0.00  0.00    -0.308 NA
ATOM     15  C   UNL     1       2.411  -4.650  24.281  0.00  0.00    +0.104 C 
ENDBRANCH  12  14
ENDBRANCH  11  12
ENDBRANCH   1  11
BRANCH   4  16
ATOM     16  C   UNL     1       9.362  -0.553  21.331  0.00  0.00    +0.180 C 
BRANCH  16  17
ATOM     17  N   UNL     1       9.144   0.801  21.813  0.00  0.00    -0.248 N 
ATOM     18  N   UNL     1      10.157   1.446  22.435  0.00  0.00    -0.158 NA
ATOM     19  C   UNL     1       9.592   2.625  22.712  0.00  0.00    +0.245 A 
ATOM     20  N   UNL     1       8.294   2.755  22.310  0.00  0.00    -0.223 NA
ATOM     21  C   UNL     1       8.041   1.594  21.747  0.00  0.00    +0.219 A 
ENDBRANCH  16  17
ENDBRANCH   4  16
TORSDOF 5
ENDMDL
MODEL 9
REMARK VINA RESULT:      -5.5      2.674      4.764
REMARK  Name = 
REMARK  7 active torsions:
REMARK  status: ('A' for Active; 'I' for Inactive)
REMARK    1  A    between atoms: C_1  and  N_2
REMARK    2  A    between atoms: N_2  and  C_3
REMARK    3  A    between atoms: N_2  and  C_4
REMARK    4  A    between atoms: C_4  and  C_5
REMARK    5  A    between atoms: C_5  and  C_6
REMARK    6  A    between atoms: C_12  and  C_13
REMARK    7  A    between atoms: C_13  and  N_14
REMARK                            x       y       z     vdW  Elec       q    Type
REMARK                         _______ _______ _______ _____ _____    ______ ____
ROOT
ATOM      1  C   UNL     1       7.098   1.976  22.660  0.00  0.00    -0.021 A 
ATOM      2  C   UNL     1       7.659   0.668  22.492  0.00  0.00    +0.003 A 
ATOM      3  C   UNL     1       7.228  -0.640  22.809  0.00  0.00    +0.015 A 
ATOM      4  C   UNL     1       8.044  -1.747  22.502  0.00  0.00    -0.025 A 
ATOM      5  C   UNL     1       9.260  -1.544  21.839  0.00  0.00    +0.007 A 
ATOM      6  C   UNL     1       9.712  -0.260  21.519  0.00  0.00    +0.026 A 
ATOM      7  C   UNL     1       8.900   0.822  21.875  0.00  0.00    +0.047 A 
ATOM      8  N   UNL     1       9.112   2.173  21.722  0.00  0.00    -0.360 N 
ATOM      9  H   UNL     1       9.944   2.581  21.321  0.00  0.00    +0.165 HD
ATOM     10  C   UNL     1       8.039   2.876  22.197  0.00  0.00    +0.087 A 
ENDROOT
BRANCH   1  11
ATOM     11  C   UNL     1       5.748   2.319  23.224  0.00  0.00    +0.052 C 
BRANCH  11  12
ATOM     12  C   UNL     1       5.721   2.191  24.759  0.00  0.00    +0.088 C 
BRANCH  12  14
ATOM     13  C   UNL     1       5.285   0.082  25.826  0.00  0.00    +0.104 C 
ATOM     14  N   UNL     1       4.669   1.301  25.293  0.00  0.00    -0.308 NA
ATOM     15  C   UNL     1       3.877   1.948  26.341  0.00  0.00    +0.104 C 
ENDBRANCH  12  14
ENDBRANCH  11  12
ENDBRANCH   1  11
BRANCH   4  16
ATOM     16  C   UNL     1       7.620  -3.136  22.915  0.00  0.00    +0.180 C 
BRANCH  16  17
ATOM     17  N   UNL     1       8.237  -3.637  24.132  0.00  0.00    -0.248 N 
ATOM     18  N   UNL     1       8.738  -4.894  24.143  0.00  0.00    -0.158 NA
ATOM     19  C   UNL     1       9.211  -4.982  25.388  0.00  0.00    +0.245 A 
ATOM     20  N   UNL     1       9.034  -3.868  26.156  0.00  0.00    -0.223 NA
ATOM     21  C   UNL     1       8.420  -3.040  25.339  0.00  0.00    +0.219 A 
ENDBRANCH  16  17
ENDBRANCH   4  16
TORSDOF 5
ENDMDL
