MODEL 1
REMARK VINA RESULT:      -6.6      0.000      0.000
REMARK  Name = 
REMARK  23 active torsions:
REMARK  status: ('A' for Active; 'I' for Inactive)
REMARK    1  A    between atoms: C_1  and  C_2
REMARK    2  A    between atoms: C_2  and  C_3
REMARK    3  A    between atoms: C_2  and  C_4
REMARK    4  A    between atoms: C_4  and  C_6
REMARK    5  A    between atoms: C_7  and  O_8
REMARK    6  A    between atoms: C_9  and  C_10
REMARK    7  A    between atoms: C_10  and  C_11
REMARK    8  A    between atoms: C_12  and  C_13
REMARK    9  A    between atoms: C_12  and  C_14
REMARK   10  A    between atoms: C_17  and  C_18
REMARK   11  A    between atoms: C_18  and  C_19
REMARK   12  A    between atoms: C_20  and  C_21
REMARK   13  A    between atoms: C_20  and  C_22
REMARK   14  A    between atoms: C_24  and  C_25
REMARK   15  A    between atoms: C_25  and  C_26
REMARK   16  A    between atoms: C_27  and  C_28
REMARK   17  A    between atoms: C_27  and  C_29
REMARK   18  A    between atoms: C_30  and  C_31
REMARK   19  A    between atoms: C_30  and  C_32
REMARK   20  A    between atoms: C_32  and  C_33
REMARK   21  A    between atoms: C_33  and  C_34
REMARK   22  A    between atoms: C_35  and  C_36
REMARK   23  A    between atoms: C_35  and  C_37
REMARK                            x       y       z     vdW  Elec       q    Type
REMARK                         _______ _______ _______ _____ _____    ______ ____
ROOT
ATOM      1  C   UNL     1       5.053  -3.663  23.996  0.00  0.00    +0.150 C 
ATOM      2  C   UNL     1       4.871  -3.934  25.508  0.00  0.00    +0.168 C 
ATOM      3  O   UNL     1       3.860  -3.548  26.122  0.00  0.00    -0.295 OA
ATOM      4  C   UNL     1       5.885  -4.828  26.207  0.00  0.00    +0.096 C 
ATOM      5  C   UNL     1       7.174  -4.619  25.420  0.00  0.00    +0.027 C 
ATOM      6  C   UNL     1       7.406  -3.115  25.061  0.00  0.00    +0.002 C 
ATOM      7  C   UNL     1       5.113  -6.134  25.980  0.00  0.00    +0.176 C 
ATOM      8  O   UNL     1       5.208  -7.110  26.721  0.00  0.00    -0.291 OA
ATOM      9  C   UNL     1       4.121  -6.101  24.823  0.00  0.00    +0.038 C 
ATOM     10  C   UNL     1       6.056  -2.430  24.560  0.00  0.00    -0.002 C 
ATOM     11  C   UNL     1       5.523  -1.557  25.845  0.00  0.00    +0.013 C 
ATOM     12  C   UNL     1       4.128  -5.008  23.986  0.00  0.00    +0.122 C 
ENDROOT
BRANCH   1  13
ATOM     13  C   UNL     1       5.710  -4.201  22.615  0.00  0.00    +0.157 C 
ATOM     14  O   UNL     1       5.620  -3.392  21.664  0.00  0.00    -0.296 OA
BRANCH  13  16
ATOM     15  C   UNL     1       6.038  -5.949  20.730  0.00  0.00    +0.015 C 
ATOM     16  C   UNL     1       6.273  -5.631  22.203  0.00  0.00    +0.051 C 
ATOM     17  C   UNL     1       7.793  -5.854  22.447  0.00  0.00    +0.015 C 
ENDBRANCH  13  16
ENDBRANCH   1  13
BRANCH  12  18
ATOM     18  O   UNL     1       3.152  -5.012  22.968  0.00  0.00    -0.509 OA
ATOM     19  H   UNL     1       2.347  -5.493  23.267  0.00  0.00    +0.292 HD
ENDBRANCH  12  18
BRANCH   6  20
ATOM     20  C   UNL     1       8.584  -2.849  24.129  0.00  0.00    +0.031 C 
BRANCH  20  21
ATOM     21  C   UNL     1       9.492  -1.691  24.342  0.00  0.00    -0.028 C 
ATOM     22  C   UNL     1       9.891  -0.896  23.332  0.00  0.00    -0.080 C 
ATOM     23  C   UNL     1      10.804   0.261  23.573  0.00  0.00    +0.038 C 
ATOM     24  C   UNL     1       9.470  -1.060  21.884  0.00  0.00    +0.038 C 
ENDBRANCH  20  21
ENDBRANCH   6  20
BRANCH   4  25
ATOM     25  C   UNL     1       6.266  -4.622  27.693  0.00  0.00    +0.049 C 
BRANCH  25  26
ATOM     26  C   UNL     1       5.003  -4.524  28.551  0.00  0.00    -0.027 C 
ATOM     27  C   UNL     1       4.671  -5.162  29.686  0.00  0.00    -0.080 C 
ATOM     28  C   UNL     1       3.330  -4.909  30.335  0.00  0.00    +0.038 C 
ATOM     29  C   UNL     1       5.565  -6.107  30.421  0.00  0.00    +0.038 C 
ENDBRANCH  25  26
ENDBRANCH   4  25
BRANCH   9  30
ATOM     30  C   UNL     1       3.017  -7.130  24.865  0.00  0.00    +0.069 C 
BRANCH  30  31
ATOM     31  C   UNL     1       2.204  -7.082  26.126  0.00  0.00    -0.023 C 
ATOM     32  C   UNL     1       1.255  -6.172  26.421  0.00  0.00    -0.079 C 
ATOM     33  C   UNL     1       0.695  -6.089  27.812  0.00  0.00    +0.038 C 
ATOM     34  C   UNL     1       0.713  -5.149  25.459  0.00  0.00    +0.038 C 
ENDBRANCH  30  31
ENDBRANCH   9  30
BRANCH  10  35
ATOM     35  C   UNL     1       6.137  -1.177  23.573  0.00  0.00    +0.013 C 
BRANCH  35  36
ATOM     36  C   UNL     1       6.355   0.236  24.074  0.00  0.00    +0.028 C 
BRANCH  36  37
ATOM     37  C   UNL     1       6.873   1.230  23.089  0.00  0.00    -0.028 C 
ATOM     38  C   UNL     1       7.543   2.341  23.434  0.00  0.00    -0.080 C 
ATOM     39  C   UNL     1       7.540   3.522  22.512  0.00  0.00    +0.038 C 
ATOM     40  C   UNL     1       8.218   2.537  24.762  0.00  0.00    +0.038 C 
ENDBRANCH  36  37
ENDBRANCH  35  36
ENDBRANCH  10  35
TORSDOF 12
ENDMDL
MODEL 2
REMARK VINA RESULT:      -6.4      2.895      5.369
REMARK  Name = 
REMARK  23 active torsions:
REMARK  status: ('A' for Active; 'I' for Inactive)
REMARK    1  A    between atoms: C_1  and  C_2
REMARK    2  A    between atoms: C_2  and  C_3
REMARK    3  A    between atoms: C_2  and  C_4
REMARK    4  A    between atoms: C_4  and  C_6
REMARK    5  A    between atoms: C_7  and  O_8
REMARK    6  A    between atoms: C_9  and  C_10
REMARK    7  A    between atoms: C_10  and  C_11
REMARK    8  A    between atoms: C_12  and  C_13
REMARK    9  A    between atoms: C_12  and  C_14
REMARK   10  A    between atoms: C_17  and  C_18
REMARK   11  A    between atoms: C_18  and  C_19
REMARK   12  A    between atoms: C_20  and  C_21
REMARK   13  A    between atoms: C_20  and  C_22
REMARK   14  A    between atoms: C_24  and  C_25
REMARK   15  A    between atoms: C_25  and  C_26
REMARK   16  A    between atoms: C_27  and  C_28
REMARK   17  A    between atoms: C_27  and  C_29
REMARK   18  A    between atoms: C_30  and  C_31
REMARK   19  A    between atoms: C_30  and  C_32
REMARK   20  A    between atoms: C_32  and  C_33
REMARK   21  A    between atoms: C_33  and  C_34
REMARK   22  A    between atoms: C_35  and  C_36
REMARK   23  A    between atoms: C_35  and  C_37
REMARK                            x       y       z     vdW  Elec       q    Type
REMARK                         _______ _______ _______ _____ _____    ______ ____
ROOT
ATOM      1  C   UNL     1       7.015  -0.246  23.566  0.00  0.00    +0.150 C 
ATOM      2  C   UNL     1       6.186  -0.699  24.791  0.00  0.00    +0.168 C 
ATOM      3  O   UNL     1       5.030  -1.142  24.669  0.00  0.00    -0.295 OA
ATOM      4  C   UNL     1       6.874  -0.744  26.149  0.00  0.00    +0.096 C 
ATOM      5  C   UNL     1       7.942   0.339  26.064  0.00  0.00    +0.027 C 
ATOM      6  C   UNL     1       7.410   1.637  25.373  0.00  0.00    +0.002 C 
ATOM      7  C   UNL     1       7.326  -2.206  26.039  0.00  0.00    +0.176 C 
ATOM      8  O   UNL     1       7.515  -2.927  27.015  0.00  0.00    -0.291 OA
ATOM      9  C   UNL     1       7.419  -2.743  24.615  0.00  0.00    +0.038 C 
ATOM     10  C   UNL     1       6.538   1.286  24.085  0.00  0.00    -0.002 C 
ATOM     11  C   UNL     1       4.979   1.464  24.568  0.00  0.00    +0.013 C 
ATOM     12  C   UNL     1       7.277  -1.857  23.571  0.00  0.00    +0.122 C 
ENDROOT
BRANCH   1  13
ATOM     13  C   UNL     1       8.506  -0.086  22.951  0.00  0.00    +0.157 C 
ATOM     14  O   UNL     1       8.523   0.298  21.759  0.00  0.00    -0.296 OA
BRANCH  13  16
ATOM     15  C   UNL     1      10.651  -1.503  22.622  0.00  0.00    +0.015 C 
ATOM     16  C   UNL     1       9.932  -0.503  23.521  0.00  0.00    +0.051 C 
ATOM     17  C   UNL     1      10.937   0.662  23.747  0.00  0.00    +0.015 C 
ENDBRANCH  13  16
ENDBRANCH   1  13
BRANCH  12  18
ATOM     18  O   UNL     1       7.320  -2.423  22.280  0.00  0.00    -0.509 OA
ATOM     19  H   UNL     1       6.409  -2.618  21.961  0.00  0.00    +0.292 HD
ENDBRANCH  12  18
BRANCH   6  20
ATOM     20  C   UNL     1       8.468   2.701  25.098  0.00  0.00    +0.031 C 
BRANCH  20  21
ATOM     21  C   UNL     1       8.320   4.089  25.611  0.00  0.00    -0.028 C 
ATOM     22  C   UNL     1       8.888   5.145  25.000  0.00  0.00    -0.080 C 
ATOM     23  C   UNL     1       8.724   6.530  25.536  0.00  0.00    +0.038 C 
ATOM     24  C   UNL     1       9.721   5.068  23.735  0.00  0.00    +0.038 C 
ENDBRANCH  20  21
ENDBRANCH   6  20
BRANCH   4  25
ATOM     25  C   UNL     1       6.102  -0.466  27.462  0.00  0.00    +0.049 C 
BRANCH  25  26
ATOM     26  C   UNL     1       6.776   0.669  28.238  0.00  0.00    -0.027 C 
ATOM     27  C   UNL     1       6.279   1.837  28.678  0.00  0.00    -0.080 C 
ATOM     28  C   UNL     1       7.171   2.817  29.405  0.00  0.00    +0.038 C 
ATOM     29  C   UNL     1       4.851   2.255  28.545  0.00  0.00    +0.038 C 
ENDBRANCH  25  26
ENDBRANCH   4  25
BRANCH   9  30
ATOM     30  C   UNL     1       7.366  -4.244  24.467  0.00  0.00    +0.069 C 
BRANCH  30  31
ATOM     31  C   UNL     1       5.977  -4.776  24.267  0.00  0.00    -0.023 C 
ATOM     32  C   UNL     1       5.537  -5.450  23.186  0.00  0.00    -0.079 C 
ATOM     33  C   UNL     1       4.069  -5.706  23.003  0.00  0.00    +0.038 C 
ATOM     34  C   UNL     1       6.411  -5.950  22.067  0.00  0.00    +0.038 C 
ENDBRANCH  30  31
ENDBRANCH   9  30
BRANCH  10  35
ATOM     35  C   UNL     1       6.433   2.352  22.901  0.00  0.00    +0.013 C 
BRANCH  35  36
ATOM     36  C   UNL     1       5.334   3.394  22.844  0.00  0.00    +0.028 C 
BRANCH  36  37
ATOM     37  C   UNL     1       5.750   4.822  22.962  0.00  0.00    -0.028 C 
ATOM     38  C   UNL     1       5.384   5.624  23.974  0.00  0.00    -0.080 C 
ATOM     39  C   UNL     1       5.350   7.107  23.768  0.00  0.00    +0.038 C 
ATOM     40  C   UNL     1       4.880   5.127  25.300  0.00  0.00    +0.038 C 
ENDBRANCH  36  37
ENDBRANCH  35  36
ENDBRANCH  10  35
TORSDOF 12
ENDMDL
MODEL 3
REMARK VINA RESULT:      -6.4      2.248      8.009
REMARK  Name = 
REMARK  23 active torsions:
REMARK  status: ('A' for Active; 'I' for Inactive)
REMARK    1  A    between atoms: C_1  and  C_2
REMARK    2  A    between atoms: C_2  and  C_3
REMARK    3  A    between atoms: C_2  and  C_4
REMARK    4  A    between atoms: C_4  and  C_6
REMARK    5  A    between atoms: C_7  and  O_8
REMARK    6  A    between atoms: C_9  and  C_10
REMARK    7  A    between atoms: C_10  and  C_11
REMARK    8  A    between atoms: C_12  and  C_13
REMARK    9  A    between atoms: C_12  and  C_14
REMARK   10  A    between atoms: C_17  and  C_18
REMARK   11  A    between atoms: C_18  and  C_19
REMARK   12  A    between atoms: C_20  and  C_21
REMARK   13  A    between atoms: C_20  and  C_22
REMARK   14  A    between atoms: C_24  and  C_25
REMARK   15  A    between atoms: C_25  and  C_26
REMARK   16  A    between atoms: C_27  and  C_28
REMARK   17  A    between atoms: C_27  and  C_29
REMARK   18  A    between atoms: C_30  and  C_31
REMARK   19  A    between atoms: C_30  and  C_32
REMARK   20  A    between atoms: C_32  and  C_33
REMARK   21  A    between atoms: C_33  and  C_34
REMARK   22  A    between atoms: C_35  and  C_36
REMARK   23  A    between atoms: C_35  and  C_37
REMARK                            x       y       z     vdW  Elec       q    Type
REMARK                         _______ _______ _______ _____ _____    ______ ____
ROOT
ATOM      1  C   UNL     1       5.783  -0.585  24.357  0.00  0.00    +0.150 C 
ATOM      2  C   UNL     1       6.847  -1.115  23.367  0.00  0.00    +0.168 C 
ATOM      3  O   UNL     1       6.606  -1.234  22.152  0.00  0.00    -0.295 OA
ATOM      4  C   UNL     1       8.261  -1.342  23.884  0.00  0.00    +0.096 C 
ATOM      5  C   UNL     1       8.072  -1.681  25.358  0.00  0.00    +0.027 C 
ATOM      6  C   UNL     1       6.868  -2.653  25.587  0.00  0.00    +0.002 C 
ATOM      7  C   UNL     1       8.775   0.060  23.532  0.00  0.00    +0.176 C 
ATOM      8  O   UNL     1       9.955   0.303  23.289  0.00  0.00    -0.291 OA
ATOM      9  C   UNL     1       7.692   1.124  23.392  0.00  0.00    +0.038 C 
ATOM     10  C   UNL     1       5.608  -2.226  24.708  0.00  0.00    -0.002 C 
ATOM     11  C   UNL     1       5.605  -3.269  23.440  0.00  0.00    +0.013 C 
ATOM     12  C   UNL     1       6.406   0.801  23.761  0.00  0.00    +0.122 C 
ENDROOT
BRANCH   1  13
ATOM     13  C   UNL     1       5.534   0.216  25.744  0.00  0.00    +0.157 C 
ATOM     14  O   UNL     1       4.359   0.625  25.887  0.00  0.00    -0.296 OA
BRANCH  13  16
ATOM     15  C   UNL     1       6.773   2.241  26.783  0.00  0.00    +0.015 C 
ATOM     16  C   UNL     1       6.545   0.735  26.857  0.00  0.00    +0.051 C 
ATOM     17  C   UNL     1       6.140   0.440  28.329  0.00  0.00    +0.015 C 
ENDBRANCH  13  16
ENDBRANCH   1  13
BRANCH  12  18
ATOM     18  O   UNL     1       5.441   1.809  23.558  0.00  0.00    -0.509 OA
ATOM     19  H   UNL     1       4.581   1.545  23.958  0.00  0.00    +0.292 HD
ENDBRANCH  12  18
BRANCH   6  20
ATOM     20  C   UNL     1       6.511  -2.902  27.049  0.00  0.00    +0.031 C 
BRANCH  20  21
ATOM     21  C   UNL     1       6.365  -4.281  27.586  0.00  0.00    -0.028 C 
ATOM     22  C   UNL     1       5.369  -4.625  28.422  0.00  0.00    -0.080 C 
ATOM     23  C   UNL     1       5.246  -6.018  28.947  0.00  0.00    +0.038 C 
ATOM     24  C   UNL     1       4.282  -3.685  28.906  0.00  0.00    +0.038 C 
ENDBRANCH  20  21
ENDBRANCH   6  20
BRANCH   4  25
ATOM     25  C   UNL     1       9.167  -2.460  23.313  0.00  0.00    +0.049 C 
BRANCH  25  26
ATOM     26  C   UNL     1       9.664  -3.364  24.444  0.00  0.00    -0.027 C 
ATOM     27  C   UNL     1       9.316  -4.619  24.771  0.00  0.00    -0.080 C 
ATOM     28  C   UNL     1       9.941  -5.293  25.971  0.00  0.00    +0.038 C 
ATOM     29  C   UNL     1       8.356  -5.463  23.997  0.00  0.00    +0.038 C 
ENDBRANCH  25  26
ENDBRANCH   4  25
BRANCH   9  30
ATOM     30  C   UNL     1       8.063   2.346  22.587  0.00  0.00    +0.069 C 
BRANCH  30  31
ATOM     31  C   UNL     1       8.163   3.596  23.411  0.00  0.00    -0.023 C 
ATOM     32  C   UNL     1       9.297   4.125  23.911  0.00  0.00    -0.079 C 
ATOM     33  C   UNL     1       9.231   5.234  24.922  0.00  0.00    +0.038 C 
ATOM     34  C   UNL     1      10.688   3.656  23.577  0.00  0.00    +0.038 C 
ENDBRANCH  30  31
ENDBRANCH   9  30
BRANCH  10  35
ATOM     35  C   UNL     1       4.142  -2.616  25.205  0.00  0.00    +0.013 C 
BRANCH  35  36
ATOM     36  C   UNL     1       3.392  -3.812  24.657  0.00  0.00    +0.028 C 
BRANCH  36  37
ATOM     37  C   UNL     1       2.944  -4.838  25.643  0.00  0.00    -0.028 C 
ATOM     38  C   UNL     1       3.433  -6.088  25.693  0.00  0.00    -0.080 C 
ATOM     39  C   UNL     1       2.601  -7.185  26.282  0.00  0.00    +0.038 C 
ATOM     40  C   UNL     1       4.743  -6.502  25.083  0.00  0.00    +0.038 C 
ENDBRANCH  36  37
ENDBRANCH  35  36
ENDBRANCH  10  35
TORSDOF 12
ENDMDL
MODEL 4
REMARK VINA RESULT:      -6.3      1.878      7.849
REMARK  Name = 
REMARK  23 active torsions:
REMARK  status: ('A' for Active; 'I' for Inactive)
REMARK    1  A    between atoms: C_1  and  C_2
REMARK    2  A    between atoms: C_2  and  C_3
REMARK    3  A    between atoms: C_2  and  C_4
REMARK    4  A    between atoms: C_4  and  C_6
REMARK    5  A    between atoms: C_7  and  O_8
REMARK    6  A    between atoms: C_9  and  C_10
REMARK    7  A    between atoms: C_10  and  C_11
REMARK    8  A    between atoms: C_12  and  C_13
REMARK    9  A    between atoms: C_12  and  C_14
REMARK   10  A    between atoms: C_17  and  C_18
REMARK   11  A    between atoms: C_18  and  C_19
REMARK   12  A    between atoms: C_20  and  C_21
REMARK   13  A    between atoms: C_20  and  C_22
REMARK   14  A    between atoms: C_24  and  C_25
REMARK   15  A    between atoms: C_25  and  C_26
REMARK   16  A    between atoms: C_27  and  C_28
REMARK   17  A    between atoms: C_27  and  C_29
REMARK   18  A    between atoms: C_30  and  C_31
REMARK   19  A    between atoms: C_30  and  C_32
REMARK   20  A    between atoms: C_32  and  C_33
REMARK   21  A    between atoms: C_33  and  C_34
REMARK   22  A    between atoms: C_35  and  C_36
REMARK   23  A    between atoms: C_35  and  C_37
REMARK                            x       y       z     vdW  Elec       q    Type
REMARK                         _______ _______ _______ _____ _____    ______ ____
ROOT
ATOM      1  C   UNL     1       5.689  -1.448  24.394  0.00  0.00    +0.150 C 
ATOM      2  C   UNL     1       6.418  -2.449  23.466  0.00  0.00    +0.168 C 
ATOM      3  O   UNL     1       6.046  -2.642  22.295  0.00  0.00    -0.295 OA
ATOM      4  C   UNL     1       7.708  -3.085  23.965  0.00  0.00    +0.096 C 
ATOM      5  C   UNL     1       7.543  -3.129  25.480  0.00  0.00    +0.027 C 
ATOM      6  C   UNL     1       6.105  -3.575  25.902  0.00  0.00    +0.002 C 
ATOM      7  C   UNL     1       8.638  -2.016  23.377  0.00  0.00    +0.176 C 
ATOM      8  O   UNL     1       9.804  -2.238  23.060  0.00  0.00    -0.291 OA
ATOM      9  C   UNL     1       7.976  -0.669  23.106  0.00  0.00    +0.038 C 
ATOM     10  C   UNL     1       4.996  -2.858  25.008  0.00  0.00    -0.002 C 
ATOM     11  C   UNL     1       4.525  -3.998  23.924  0.00  0.00    +0.013 C 
ATOM     12  C   UNL     1       6.694  -0.466  23.564  0.00  0.00    +0.122 C 
ENDROOT
BRANCH   1  13
ATOM     13  C   UNL     1       5.851  -0.427  25.643  0.00  0.00    +0.157 C 
ATOM     14  O   UNL     1       4.822   0.245  25.882  0.00  0.00    -0.296 OA
BRANCH  13  16
ATOM     15  C   UNL     1       7.602   1.415  26.149  0.00  0.00    +0.015 C 
ATOM     16  C   UNL     1       7.125   0.007  26.490  0.00  0.00    +0.051 C 
ATOM     17  C   UNL     1       6.950  -0.017  28.036  0.00  0.00    +0.015 C 
ENDBRANCH  13  16
ENDBRANCH   1  13
BRANCH  12  18
ATOM     18  O   UNL     1       6.118   0.779  23.235  0.00  0.00    -0.509 OA
ATOM     19  H   UNL     1       5.650   1.156  24.015  0.00  0.00    +0.292 HD
ENDBRANCH  12  18
BRANCH   6  20
ATOM     20  C   UNL     1       5.813  -3.478  27.396  0.00  0.00    +0.031 C 
BRANCH  20  21
ATOM     21  C   UNL     1       5.710  -4.694  28.244  0.00  0.00    -0.028 C 
ATOM     22  C   UNL     1       4.919  -4.748  29.331  0.00  0.00    -0.080 C 
ATOM     23  C   UNL     1       4.835  -5.983  30.167  0.00  0.00    +0.038 C 
ATOM     24  C   UNL     1       4.038  -3.613  29.817  0.00  0.00    +0.038 C 
ENDBRANCH  20  21
ENDBRANCH   6  20
BRANCH   4  25
ATOM     25  C   UNL     1       8.124  -4.517  23.550  0.00  0.00    +0.049 C 
BRANCH  25  26
ATOM     26  C   UNL     1       7.494  -4.879  22.203  0.00  0.00    -0.027 C 
ATOM     27  C   UNL     1       6.614  -5.844  21.885  0.00  0.00    -0.080 C 
ATOM     28  C   UNL     1       6.161  -6.017  20.454  0.00  0.00    +0.038 C 
ATOM     29  C   UNL     1       5.983  -6.774  22.869  0.00  0.00    +0.038 C 
ENDBRANCH  25  26
ENDBRANCH   4  25
BRANCH   9  30
ATOM     30  C   UNL     1       8.671   0.221  22.104  0.00  0.00    +0.069 C 
BRANCH  30  31
ATOM     31  C   UNL     1       9.770   1.049  22.703  0.00  0.00    -0.023 C 
ATOM     32  C   UNL     1       9.699   2.362  23.000  0.00  0.00    -0.079 C 
ATOM     33  C   UNL     1      10.943   3.122  23.360  0.00  0.00    +0.038 C 
ATOM     34  C   UNL     1       8.443   3.190  22.954  0.00  0.00    +0.038 C 
ENDBRANCH  30  31
ENDBRANCH   9  30
BRANCH  10  35
ATOM     35  C   UNL     1       3.534  -2.636  25.610  0.00  0.00    +0.013 C 
BRANCH  35  36
ATOM     36  C   UNL     1       2.459  -3.701  25.541  0.00  0.00    +0.028 C 
BRANCH  36  37
ATOM     37  C   UNL     1       2.156  -4.437  26.803  0.00  0.00    -0.028 C 
ATOM     38  C   UNL     1       2.379  -5.751  26.971  0.00  0.00    -0.080 C 
ATOM     39  C   UNL     1       1.579  -6.514  27.982  0.00  0.00    +0.038 C 
ATOM     40  C   UNL     1       3.316  -6.559  26.118  0.00  0.00    +0.038 C 
ENDBRANCH  36  37
ENDBRANCH  35  36
ENDBRANCH  10  35
TORSDOF 12
ENDMDL
MODEL 5
REMARK VINA RESULT:      -6.2      3.144      8.382
REMARK  Name = 
REMARK  23 active torsions:
REMARK  status: ('A' for Active; 'I' for Inactive)
REMARK    1  A    between atoms: C_1  and  C_2
REMARK    2  A    between atoms: C_2  and  C_3
REMARK    3  A    between atoms: C_2  and  C_4
REMARK    4  A    between atoms: C_4  and  C_6
REMARK    5  A    between atoms: C_7  and  O_8
REMARK    6  A    between atoms: C_9  and  C_10
REMARK    7  A    between atoms: C_10  and  C_11
REMARK    8  A    between atoms: C_12  and  C_13
REMARK    9  A    between atoms: C_12  and  C_14
REMARK   10  A    between atoms: C_17  and  C_18
REMARK   11  A    between atoms: C_18  and  C_19
REMARK   12  A    between atoms: C_20  and  C_21
REMARK   13  A    between atoms: C_20  and  C_22
REMARK   14  A    between atoms: C_24  and  C_25
REMARK   15  A    between atoms: C_25  and  C_26
REMARK   16  A    between atoms: C_27  and  C_28
REMARK   17  A    between atoms: C_27  and  C_29
REMARK   18  A    between atoms: C_30  and  C_31
REMARK   19  A    between atoms: C_30  and  C_32
REMARK   20  A    between atoms: C_32  and  C_33
REMARK   21  A    between atoms: C_33  and  C_34
REMARK   22  A    between atoms: C_35  and  C_36
REMARK   23  A    between atoms: C_35  and  C_37
REMARK                            x       y       z     vdW  Elec       q    Type
REMARK                         _______ _______ _______ _____ _____    ______ ____
ROOT
ATOM      1  C   UNL     1       8.531   0.033  25.013  0.00  0.00    +0.150 C 
ATOM      2  C   UNL     1       7.430   0.926  25.631  0.00  0.00    +0.168 C 
ATOM      3  O   UNL     1       7.511   1.345  26.799  0.00  0.00    -0.295 OA
ATOM      4  C   UNL     1       6.312   1.421  24.725  0.00  0.00    +0.096 C 
ATOM      5  C   UNL     1       6.179   0.334  23.665  0.00  0.00    +0.027 C 
ATOM      6  C   UNL     1       6.262  -1.101  24.281  0.00  0.00    +0.002 C 
ATOM      7  C   UNL     1       7.010   2.728  24.326  0.00  0.00    +0.176 C 
ATOM      8  O   UNL     1       6.401   3.740  23.989  0.00  0.00    -0.291 OA
ATOM      9  C   UNL     1       8.526   2.719  24.486  0.00  0.00    +0.038 C 
ATOM     10  C   UNL     1       7.428  -1.194  25.365  0.00  0.00    -0.002 C 
ATOM     11  C   UNL     1       6.663  -1.122  26.816  0.00  0.00    +0.013 C 
ATOM     12  C   UNL     1       9.146   1.528  24.785  0.00  0.00    +0.122 C 
ENDROOT
BRANCH   1  13
ATOM     13  C   UNL     1       9.285  -0.399  23.644  0.00  0.00    +0.157 C 
ATOM     14  O   UNL     1      10.405  -0.927  23.829  0.00  0.00    -0.296 OA
BRANCH  13  16
ATOM     15  C   UNL     1       9.656   1.138  21.590  0.00  0.00    +0.015 C 
ATOM     16  C   UNL     1       8.948  -0.106  22.117  0.00  0.00    +0.051 C 
ATOM     17  C   UNL     1       9.293  -1.246  21.117  0.00  0.00    +0.015 C 
ENDBRANCH  13  16
ENDBRANCH   1  13
BRANCH  12  18
ATOM     18  O   UNL     1      10.542   1.596  24.972  0.00  0.00    -0.509 OA
ATOM     19  H   UNL     1      10.806   1.084  25.771  0.00  0.00    +0.292 HD
ENDBRANCH  12  18
BRANCH   6  20
ATOM     20  C   UNL     1       6.309  -2.237  23.264  0.00  0.00    +0.031 C 
BRANCH  20  21
ATOM     21  C   UNL     1       5.246  -3.276  23.216  0.00  0.00    -0.028 C 
ATOM     22  C   UNL     1       5.500  -4.547  22.857  0.00  0.00    -0.080 C 
ATOM     23  C   UNL     1       4.414  -5.572  22.816  0.00  0.00    +0.038 C 
ATOM     24  C   UNL     1       6.867  -5.083  22.476  0.00  0.00    +0.038 C 
ENDBRANCH  20  21
ENDBRANCH   6  20
BRANCH   4  25
ATOM     25  C   UNL     1       4.878   1.660  25.258  0.00  0.00    +0.049 C 
BRANCH  25  26
ATOM     26  C   UNL     1       4.932   2.260  26.665  0.00  0.00    -0.027 C 
ATOM     27  C   UNL     1       4.347   1.857  27.805  0.00  0.00    -0.080 C 
ATOM     28  C   UNL     1       4.536   2.651  29.078  0.00  0.00    +0.038 C 
ATOM     29  C   UNL     1       3.526   0.617  27.945  0.00  0.00    +0.038 C 
ENDBRANCH  25  26
ENDBRANCH   4  25
BRANCH   9  30
ATOM     30  C   UNL     1       9.189   4.071  24.592  0.00  0.00    +0.069 C 
BRANCH  30  31
ATOM     31  C   UNL     1      10.432   4.194  23.760  0.00  0.00    -0.023 C 
ATOM     32  C   UNL     1      11.272   5.247  23.744  0.00  0.00    -0.079 C 
ATOM     33  C   UNL     1      12.336   5.348  22.688  0.00  0.00    +0.038 C 
ATOM     34  C   UNL     1      11.213   6.412  24.696  0.00  0.00    +0.038 C 
ENDBRANCH  30  31
ENDBRANCH   9  30
BRANCH  10  35
ATOM     35  C   UNL     1       8.119  -2.605  25.648  0.00  0.00    +0.013 C 
BRANCH  35  36
ATOM     36  C   UNL     1       7.597  -3.566  26.697  0.00  0.00    +0.028 C 
BRANCH  36  37
ATOM     37  C   UNL     1       6.945  -4.815  26.204  0.00  0.00    -0.028 C 
ATOM     38  C   UNL     1       5.649  -5.107  26.403  0.00  0.00    -0.080 C 
ATOM     39  C   UNL     1       5.204  -6.537  26.394  0.00  0.00    +0.038 C 
ATOM     40  C   UNL     1       4.603  -4.088  26.756  0.00  0.00    +0.038 C 
ENDBRANCH  36  37
ENDBRANCH  35  36
ENDBRANCH  10  35
TORSDOF 12
ENDMDL
MODEL 6
REMARK VINA RESULT:      -6.2      2.102      7.413
REMARK  Name = 
REMARK  23 active torsions:
REMARK  status: ('A' for Active; 'I' for Inactive)
REMARK    1  A    between atoms: C_1  and  C_2
REMARK    2  A    between atoms: C_2  and  C_3
REMARK    3  A    between atoms: C_2  and  C_4
REMARK    4  A    between atoms: C_4  and  C_6
REMARK    5  A    between atoms: C_7  and  O_8
REMARK    6  A    between atoms: C_9  and  C_10
REMARK    7  A    between atoms: C_10  and  C_11
REMARK    8  A    between atoms: C_12  and  C_13
REMARK    9  A    between atoms: C_12  and  C_14
REMARK   10  A    between atoms: C_17  and  C_18
REMARK   11  A    between atoms: C_18  and  C_19
REMARK   12  A    between atoms: C_20  and  C_21
REMARK   13  A    between atoms: C_20  and  C_22
REMARK   14  A    between atoms: C_24  and  C_25
REMARK   15  A    between atoms: C_25  and  C_26
REMARK   16  A    between atoms: C_27  and  C_28
REMARK   17  A    between atoms: C_27  and  C_29
REMARK   18  A    between atoms: C_30  and  C_31
REMARK   19  A    between atoms: C_30  and  C_32
REMARK   20  A    between atoms: C_32  and  C_33
REMARK   21  A    between atoms: C_33  and  C_34
REMARK   22  A    between atoms: C_35  and  C_36
REMARK   23  A    between atoms: C_35  and  C_37
REMARK                            x       y       z     vdW  Elec       q    Type
REMARK                         _______ _______ _______ _____ _____    ______ ____
ROOT
ATOM      1  C   UNL     1       7.839  -2.693  23.973  0.00  0.00    +0.150 C 
ATOM      2  C   UNL     1       7.971  -1.331  24.693  0.00  0.00    +0.168 C 
ATOM      3  O   UNL     1       9.045  -0.963  25.201  0.00  0.00    -0.295 OA
ATOM      4  C   UNL     1       6.793  -0.368  24.632  0.00  0.00    +0.096 C 
ATOM      5  C   UNL     1       5.573  -1.273  24.513  0.00  0.00    +0.027 C 
ATOM      6  C   UNL     1       5.666  -2.513  25.462  0.00  0.00    +0.002 C 
ATOM      7  C   UNL     1       7.266   0.366  23.371  0.00  0.00    +0.176 C 
ATOM      8  O   UNL     1       6.969   1.531  23.118  0.00  0.00    -0.291 OA
ATOM      9  C   UNL     1       8.234  -0.423  22.495  0.00  0.00    +0.038 C 
ATOM     10  C   UNL     1       7.128  -3.150  25.433  0.00  0.00    -0.002 C 
ATOM     11  C   UNL     1       7.845  -2.626  26.814  0.00  0.00    +0.013 C 
ATOM     12  C   UNL     1       8.454  -1.749  22.793  0.00  0.00    +0.122 C 
ENDROOT
BRANCH   1  13
ATOM     13  C   UNL     1       7.072  -3.516  22.806  0.00  0.00    +0.157 C 
ATOM     14  O   UNL     1       6.599  -2.788  21.902  0.00  0.00    -0.296 OA
BRANCH  13  16
ATOM     15  C   UNL     1       5.149  -5.227  22.501  0.00  0.00    +0.015 C 
ATOM     16  C   UNL     1       6.651  -5.046  22.697  0.00  0.00    +0.051 C 
ATOM     17  C   UNL     1       7.327  -5.854  21.552  0.00  0.00    +0.015 C 
ENDBRANCH  13  16
ENDBRANCH   1  13
BRANCH  12  18
ATOM     18  O   UNL     1       9.399  -2.409  21.980  0.00  0.00    -0.509 OA
ATOM     19  H   UNL     1       9.038  -2.538  21.072  0.00  0.00    +0.292 HD
ENDBRANCH  12  18
BRANCH   6  20
ATOM     20  C   UNL     1       4.565  -3.552  25.275  0.00  0.00    +0.031 C 
BRANCH  20  21
ATOM     21  C   UNL     1       3.211  -3.356  25.856  0.00  0.00    -0.028 C 
ATOM     22  C   UNL     1       2.320  -4.360  25.956  0.00  0.00    -0.080 C 
ATOM     23  C   UNL     1       0.965  -4.136  26.542  0.00  0.00    +0.038 C 
ATOM     24  C   UNL     1       2.574  -5.789  25.516  0.00  0.00    +0.038 C 
ENDBRANCH  20  21
ENDBRANCH   6  20
BRANCH   4  25
ATOM     25  C   UNL     1       6.477   0.606  25.793  0.00  0.00    +0.049 C 
BRANCH  25  26
ATOM     26  C   UNL     1       4.974   0.605  26.087  0.00  0.00    -0.027 C 
ATOM     27  C   UNL     1       4.307   0.279  27.207  0.00  0.00    -0.080 C 
ATOM     28  C   UNL     1       2.797   0.332  27.234  0.00  0.00    +0.038 C 
ATOM     29  C   UNL     1       4.954  -0.107  28.498  0.00  0.00    +0.038 C 
ENDBRANCH  25  26
ENDBRANCH   4  25
BRANCH   9  30
ATOM     30  C   UNL     1       9.091   0.390  21.555  0.00  0.00    +0.069 C 
BRANCH  30  31
ATOM     31  C   UNL     1       9.442   1.747  22.090  0.00  0.00    -0.023 C 
ATOM     32  C   UNL     1      10.266   2.000  23.126  0.00  0.00    -0.079 C 
ATOM     33  C   UNL     1      10.336   3.380  23.715  0.00  0.00    +0.038 C 
ATOM     34  C   UNL     1      11.127   0.975  23.814  0.00  0.00    +0.038 C 
ENDBRANCH  30  31
ENDBRANCH   9  30
BRANCH  10  35
ATOM     35  C   UNL     1       7.310  -4.700  25.770  0.00  0.00    +0.013 C 
BRANCH  35  36
ATOM     36  C   UNL     1       7.126  -5.252  27.168  0.00  0.00    +0.028 C 
BRANCH  36  37
ATOM     37  C   UNL     1       5.888  -6.045  27.424  0.00  0.00    -0.028 C 
ATOM     38  C   UNL     1       4.979  -5.726  28.360  0.00  0.00    -0.080 C 
ATOM     39  C   UNL     1       4.103  -6.796  28.936  0.00  0.00    +0.038 C 
ATOM     40  C   UNL     1       4.848  -4.360  28.973  0.00  0.00    +0.038 C 
ENDBRANCH  36  37
ENDBRANCH  35  36
ENDBRANCH  10  35
TORSDOF 12
ENDMDL
MODEL 7
REMARK VINA RESULT:      -6.2      2.026      7.696
REMARK  Name = 
REMARK  23 active torsions:
REMARK  status: ('A' for Active; 'I' for Inactive)
REMARK    1  A    between atoms: C_1  and  C_2
REMARK    2  A    between atoms: C_2  and  C_3
REMARK    3  A    between atoms: C_2  and  C_4
REMARK    4  A    between atoms: C_4  and  C_6
REMARK    5  A    between atoms: C_7  and  O_8
REMARK    6  A    between atoms: C_9  and  C_10
REMARK    7  A    between atoms: C_10  and  C_11
REMARK    8  A    between atoms: C_12  and  C_13
REMARK    9  A    between atoms: C_12  and  C_14
REMARK   10  A    between atoms: C_17  and  C_18
REMARK   11  A    between atoms: C_18  and  C_19
REMARK   12  A    between atoms: C_20  and  C_21
REMARK   13  A    between atoms: C_20  and  C_22
REMARK   14  A    between atoms: C_24  and  C_25
REMARK   15  A    between atoms: C_25  and  C_26
REMARK   16  A    between atoms: C_27  and  C_28
REMARK   17  A    between atoms: C_27  and  C_29
REMARK   18  A    between atoms: C_30  and  C_31
REMARK   19  A    between atoms: C_30  and  C_32
REMARK   20  A    between atoms: C_32  and  C_33
REMARK   21  A    between atoms: C_33  and  C_34
REMARK   22  A    between atoms: C_35  and  C_36
REMARK   23  A    between atoms: C_35  and  C_37
REMARK                            x       y       z     vdW  Elec       q    Type
REMARK                         _______ _______ _______ _____ _____    ______ ____
ROOT
ATOM      1  C   UNL     1       7.682  -3.824  25.052  0.00  0.00    +0.150 C 
ATOM      2  C   UNL     1       7.373  -2.356  25.429  0.00  0.00    +0.168 C 
ATOM      3  O   UNL     1       8.029  -1.754  26.298  0.00  0.00    -0.295 OA
ATOM      4  C   UNL     1       6.343  -1.601  24.600  0.00  0.00    +0.096 C 
ATOM      5  C   UNL     1       5.390  -2.684  24.108  0.00  0.00    +0.027 C 
ATOM      6  C   UNL     1       5.050  -3.721  25.229  0.00  0.00    +0.002 C 
ATOM      7  C   UNL     1       7.352  -1.027  23.597  0.00  0.00    +0.176 C 
ATOM      8  O   UNL     1       7.170   0.023  22.986  0.00  0.00    -0.291 OA
ATOM      9  C   UNL     1       8.663  -1.799  23.493  0.00  0.00    +0.038 C 
ATOM     10  C   UNL     1       6.356  -4.131  26.048  0.00  0.00    -0.002 C 
ATOM     11  C   UNL     1       6.258  -3.284  27.451  0.00  0.00    +0.013 C 
ATOM     12  C   UNL     1       8.764  -3.009  24.141  0.00  0.00    +0.122 C 
ENDROOT
BRANCH   1  13
ATOM     13  C   UNL     1       7.643  -4.934  23.871  0.00  0.00    +0.157 C 
ATOM     14  O   UNL     1       8.618  -5.719  23.883  0.00  0.00    -0.296 OA
BRANCH  13  16
ATOM     15  C   UNL     1       7.120  -4.180  21.447  0.00  0.00    +0.015 C 
ATOM     16  C   UNL     1       6.699  -5.086  22.599  0.00  0.00    +0.051 C 
ATOM     17  C   UNL     1       6.600  -6.517  21.998  0.00  0.00    +0.015 C 
ENDBRANCH  13  16
ENDBRANCH   1  13
BRANCH  12  18
ATOM     18  O   UNL     1      10.017  -3.648  24.050  0.00  0.00    -0.509 OA
ATOM     19  H   UNL     1      10.743  -3.004  24.214  0.00  0.00    +0.292 HD
ENDBRANCH  12  18
BRANCH   6  20
ATOM     20  C   UNL     1       4.240  -4.928  24.766  0.00  0.00    +0.031 C 
BRANCH  20  21
ATOM     21  C   UNL     1       2.877  -5.193  25.297  0.00  0.00    -0.028 C 
ATOM     22  C   UNL     1       2.411  -6.441  25.488  0.00  0.00    -0.080 C 
ATOM     23  C   UNL     1       1.036  -6.680  26.022  0.00  0.00    +0.038 C 
ATOM     24  C   UNL     1       3.194  -7.709  25.211  0.00  0.00    +0.038 C 
ENDBRANCH  20  21
ENDBRANCH   6  20
BRANCH   4  25
ATOM     25  C   UNL     1       5.443  -0.505  25.220  0.00  0.00    +0.049 C 
BRANCH  25  26
ATOM     26  C   UNL     1       6.211   0.816  25.313  0.00  0.00    -0.027 C 
ATOM     27  C   UNL     1       6.693   1.468  26.384  0.00  0.00    -0.080 C 
ATOM     28  C   UNL     1       7.400   2.793  26.212  0.00  0.00    +0.038 C 
ATOM     29  C   UNL     1       6.629   0.959  27.787  0.00  0.00    +0.038 C 
ENDBRANCH  25  26
ENDBRANCH   4  25
BRANCH   9  30
ATOM     30  C   UNL     1       9.839  -1.036  22.932  0.00  0.00    +0.069 C 
BRANCH  30  31
ATOM     31  C   UNL     1      10.135   0.235  23.673  0.00  0.00    -0.023 C 
ATOM     32  C   UNL     1      10.188   1.469  23.135  0.00  0.00    -0.079 C 
ATOM     33  C   UNL     1      10.736   2.617  23.934  0.00  0.00    +0.038 C 
ATOM     34  C   UNL     1       9.780   1.816  21.728  0.00  0.00    +0.038 C 
ENDBRANCH  30  31
ENDBRANCH   9  30
BRANCH  10  35
ATOM     35  C   UNL     1       6.413  -5.559  26.759  0.00  0.00    +0.013 C 
BRANCH  35  36
ATOM     36  C   UNL     1       5.977  -5.767  28.195  0.00  0.00    +0.028 C 
BRANCH  36  37
ATOM     37  C   UNL     1       4.872  -6.743  28.430  0.00  0.00    -0.028 C 
ATOM     38  C   UNL     1       3.673  -6.404  28.931  0.00  0.00    -0.080 C 
ATOM     39  C   UNL     1       2.851  -7.433  29.643  0.00  0.00    +0.038 C 
ATOM     40  C   UNL     1       3.128  -5.003  28.930  0.00  0.00    +0.038 C 
ENDBRANCH  36  37
ENDBRANCH  35  36
ENDBRANCH  10  35
TORSDOF 12
ENDMDL
MODEL 8
REMARK VINA RESULT:      -6.1      2.844      6.556
REMARK  Name = 
REMARK  23 active torsions:
REMARK  status: ('A' for Active; 'I' for Inactive)
REMARK    1  A    between atoms: C_1  and  C_2
REMARK    2  A    between atoms: C_2  and  C_3
REMARK    3  A    between atoms: C_2  and  C_4
REMARK    4  A    between atoms: C_4  and  C_6
REMARK    5  A    between atoms: C_7  and  O_8
REMARK    6  A    between atoms: C_9  and  C_10
REMARK    7  A    between atoms: C_10  and  C_11
REMARK    8  A    between atoms: C_12  and  C_13
REMARK    9  A    between atoms: C_12  and  C_14
REMARK   10  A    between atoms: C_17  and  C_18
REMARK   11  A    between atoms: C_18  and  C_19
REMARK   12  A    between atoms: C_20  and  C_21
REMARK   13  A    between atoms: C_20  and  C_22
REMARK   14  A    between atoms: C_24  and  C_25
REMARK   15  A    between atoms: C_25  and  C_26
REMARK   16  A    between atoms: C_27  and  C_28
REMARK   17  A    between atoms: C_27  and  C_29
REMARK   18  A    between atoms: C_30  and  C_31
REMARK   19  A    between atoms: C_30  and  C_32
REMARK   20  A    between atoms: C_32  and  C_33
REMARK   21  A    between atoms: C_33  and  C_34
REMARK   22  A    between atoms: C_35  and  C_36
REMARK   23  A    between atoms: C_35  and  C_37
REMARK                            x       y       z     vdW  Elec       q    Type
REMARK                         _______ _______ _______ _____ _____    ______ ____
ROOT
ATOM      1  C   UNL     1       8.348   0.693  25.192  0.00  0.00    +0.150 C 
ATOM      2  C   UNL     1       8.318  -0.680  24.481  0.00  0.00    +0.168 C 
ATOM      3  O   UNL     1       9.041  -1.622  24.851  0.00  0.00    -0.295 OA
ATOM      4  C   UNL     1       7.263  -0.912  23.409  0.00  0.00    +0.096 C 
ATOM      5  C   UNL     1       7.009   0.473  22.826  0.00  0.00    +0.027 C 
ATOM      6  C   UNL     1       8.335   1.275  22.617  0.00  0.00    +0.002 C 
ATOM      7  C   UNL     1       6.209  -1.493  24.360  0.00  0.00    +0.176 C 
ATOM      8  O   UNL     1       5.339  -2.282  24.000  0.00  0.00    -0.291 OA
ATOM      9  C   UNL     1       6.384  -1.105  25.824  0.00  0.00    +0.038 C 
ATOM     10  C   UNL     1       9.309   1.112  23.870  0.00  0.00    -0.002 C 
ATOM     11  C   UNL     1      10.439   0.023  23.388  0.00  0.00    +0.013 C 
ATOM     12  C   UNL     1       7.325  -0.153  26.141  0.00  0.00    +0.122 C 
ENDROOT
BRANCH   1  13
ATOM     13  C   UNL     1       7.491   2.013  25.580  0.00  0.00    +0.157 C 
ATOM     14  O   UNL     1       8.186   3.045  25.718  0.00  0.00    -0.296 OA
BRANCH  13  16
ATOM     15  C   UNL     1       5.706   3.522  26.700  0.00  0.00    +0.015 C 
ATOM     16  C   UNL     1       5.966   2.194  25.997  0.00  0.00    +0.051 C 
ATOM     17  C   UNL     1       4.934   2.120  24.836  0.00  0.00    +0.015 C 
ENDBRANCH  13  16
ENDBRANCH   1  13
BRANCH  12  18
ATOM     18  O   UNL     1       7.476   0.123  27.516  0.00  0.00    -0.509 OA
ATOM     19  H   UNL     1       8.286  -0.315  27.866  0.00  0.00    +0.292 HD
ENDBRANCH  12  18
BRANCH   6  20
ATOM     20  C   UNL     1       8.150   2.730  22.199  0.00  0.00    +0.031 C 
BRANCH  20  21
ATOM     21  C   UNL     1       6.801   3.354  22.149  0.00  0.00    -0.028 C 
ATOM     22  C   UNL     1       6.543   4.554  22.700  0.00  0.00    -0.080 C 
ATOM     23  C   UNL     1       5.179   5.158  22.636  0.00  0.00    +0.038 C 
ATOM     24  C   UNL     1       7.567   5.416  23.414  0.00  0.00    +0.038 C 
ENDBRANCH  20  21
ENDBRANCH   6  20
BRANCH   4  25
ATOM     25  C   UNL     1       7.527  -1.833  22.193  0.00  0.00    +0.049 C 
BRANCH  25  26
ATOM     26  C   UNL     1       7.858  -3.251  22.668  0.00  0.00    -0.027 C 
ATOM     27  C   UNL     1       7.264  -4.423  22.388  0.00  0.00    -0.080 C 
ATOM     28  C   UNL     1       7.771  -5.700  23.017  0.00  0.00    +0.038 C 
ATOM     29  C   UNL     1       6.125  -4.591  21.436  0.00  0.00    +0.038 C 
ENDBRANCH  25  26
ENDBRANCH   4  25
BRANCH   9  30
ATOM     30  C   UNL     1       5.718  -2.009  26.834  0.00  0.00    +0.069 C 
BRANCH  30  31
ATOM     31  C   UNL     1       6.506  -3.250  27.136  0.00  0.00    -0.023 C 
ATOM     32  C   UNL     1       6.142  -4.511  26.834  0.00  0.00    -0.079 C 
ATOM     33  C   UNL     1       6.898  -5.674  27.410  0.00  0.00    +0.038 C 
ATOM     34  C   UNL     1       4.964  -4.887  25.974  0.00  0.00    +0.038 C 
ENDBRANCH  30  31
ENDBRANCH   9  30
BRANCH  10  35
ATOM     35  C   UNL     1      10.364   2.266  24.192  0.00  0.00    +0.013 C 
BRANCH  35  36
ATOM     36  C   UNL     1      10.768   3.304  23.166  0.00  0.00    +0.028 C 
BRANCH  36  37
ATOM     37  C   UNL     1      10.889   4.713  23.642  0.00  0.00    -0.028 C 
ATOM     38  C   UNL     1      12.047   5.392  23.671  0.00  0.00    -0.080 C 
ATOM     39  C   UNL     1      12.213   6.530  24.632  0.00  0.00    +0.038 C 
ATOM     40  C   UNL     1      13.263   5.015  22.873  0.00  0.00    +0.038 C 
ENDBRANCH  36  37
ENDBRANCH  35  36
ENDBRANCH  10  35
TORSDOF 12
ENDMDL
MODEL 9
REMARK VINA RESULT:      -6.0      1.965      3.080
REMARK  Name = 
REMARK  23 active torsions:
REMARK  status: ('A' for Active; 'I' for Inactive)
REMARK    1  A    between atoms: C_1  and  C_2
REMARK    2  A    between atoms: C_2  and  C_3
REMARK    3  A    between atoms: C_2  and  C_4
REMARK    4  A    between atoms: C_4  and  C_6
REMARK    5  A    between atoms: C_7  and  O_8
REMARK    6  A    between atoms: C_9  and  C_10
REMARK    7  A    between atoms: C_10  and  C_11
REMARK    8  A    between atoms: C_12  and  C_13
REMARK    9  A    between atoms: C_12  and  C_14
REMARK   10  A    between atoms: C_17  and  C_18
REMARK   11  A    between atoms: C_18  and  C_19
REMARK   12  A    between atoms: C_20  and  C_21
REMARK   13  A    between atoms: C_20  and  C_22
REMARK   14  A    between atoms: C_24  and  C_25
REMARK   15  A    between atoms: C_25  and  C_26
REMARK   16  A    between atoms: C_27  and  C_28
REMARK   17  A    between atoms: C_27  and  C_29
REMARK   18  A    between atoms: C_30  and  C_31
REMARK   19  A    between atoms: C_30  and  C_32
REMARK   20  A    between atoms: C_32  and  C_33
REMARK   21  A    between atoms: C_33  and  C_34
REMARK   22  A    between atoms: C_35  and  C_36
REMARK   23  A    between atoms: C_35  and  C_37
REMARK                            x       y       z     vdW  Elec       q    Type
REMARK                         _______ _______ _______ _____ _____    ______ ____
ROOT
ATOM      1  C   UNL     1       5.725  -1.890  24.308  0.00  0.00    +0.150 C 
ATOM      2  C   UNL     1       5.232  -2.884  25.386  0.00  0.00    +0.168 C 
ATOM      3  O   UNL     1       4.040  -3.233  25.454  0.00  0.00    -0.295 OA
ATOM      4  C   UNL     1       6.270  -3.558  26.272  0.00  0.00    +0.096 C 
ATOM      5  C   UNL     1       7.409  -2.548  26.351  0.00  0.00    +0.027 C 
ATOM      6  C   UNL     1       6.886  -1.087  26.539  0.00  0.00    +0.002 C 
ATOM      7  C   UNL     1       6.462  -4.784  25.369  0.00  0.00    +0.176 C 
ATOM      8  O   UNL     1       6.823  -5.880  25.791  0.00  0.00    -0.291 OA
ATOM      9  C   UNL     1       6.063  -4.577  23.913  0.00  0.00    +0.038 C 
ATOM     10  C   UNL     1       5.638  -0.796  25.590  0.00  0.00    -0.002 C 
ATOM     11  C   UNL     1       4.327  -0.894  26.573  0.00  0.00    +0.013 C 
ATOM     12  C   UNL     1       5.749  -3.304  23.494  0.00  0.00    +0.122 C 
ENDROOT
BRANCH   1  13
ATOM     13  C   UNL     1       6.981  -1.432  23.391  0.00  0.00    +0.157 C 
ATOM     14  O   UNL     1       6.911  -0.247  22.994  0.00  0.00    -0.296 OA
BRANCH  13  16
ATOM     15  C   UNL     1       8.986  -1.449  21.749  0.00  0.00    +0.015 C 
ATOM     16  C   UNL     1       8.179  -2.263  22.755  0.00  0.00    +0.051 C 
ATOM     17  C   UNL     1       9.216  -2.835  23.764  0.00  0.00    +0.015 C 
ENDBRANCH  13  16
ENDBRANCH   1  13
BRANCH  12  18
ATOM     18  O   UNL     1       5.336  -3.187  22.151  0.00  0.00    -0.509 OA
ATOM     19  H   UNL     1       4.366  -3.027  22.104  0.00  0.00    +0.292 HD
ENDBRANCH  12  18
BRANCH   6  20
ATOM     20  C   UNL     1       7.957  -0.003  26.455  0.00  0.00    +0.031 C 
BRANCH  20  21
ATOM     21  C   UNL     1       9.231  -0.231  25.723  0.00  0.00    -0.028 C 
ATOM     22  C   UNL     1       9.752   0.684  24.886  0.00  0.00    -0.080 C 
ATOM     23  C   UNL     1      11.034   0.430  24.162  0.00  0.00    +0.038 C 
ATOM     24  C   UNL     1       9.137   2.040  24.594  0.00  0.00    +0.038 C 
ENDBRANCH  20  21
ENDBRANCH   6  20
BRANCH   4  25
ATOM     25  C   UNL     1       5.960  -3.951  27.737  0.00  0.00    +0.049 C 
BRANCH  25  26
ATOM     26  C   UNL     1       4.497  -4.385  27.866  0.00  0.00    -0.027 C 
ATOM     27  C   UNL     1       3.966  -5.602  28.068  0.00  0.00    -0.080 C 
ATOM     28  C   UNL     1       2.466  -5.776  28.130  0.00  0.00    +0.038 C 
ATOM     29  C   UNL     1       4.760  -6.849  28.289  0.00  0.00    +0.038 C 
ENDBRANCH  25  26
ENDBRANCH   4  25
BRANCH   9  30
ATOM     30  C   UNL     1       5.760  -5.829  23.124  0.00  0.00    +0.069 C 
BRANCH  30  31
ATOM     31  C   UNL     1       4.819  -6.764  23.826  0.00  0.00    -0.023 C 
ATOM     32  C   UNL     1       3.488  -6.600  23.949  0.00  0.00    -0.079 C 
ATOM     33  C   UNL     1       2.703  -7.476  24.884  0.00  0.00    +0.038 C 
ATOM     34  C   UNL     1       2.680  -5.543  23.246  0.00  0.00    +0.038 C 
ENDBRANCH  30  31
ENDBRANCH   9  30
BRANCH  10  35
ATOM     35  C   UNL     1       5.344   0.703  25.126  0.00  0.00    +0.013 C 
BRANCH  35  36
ATOM     36  C   UNL     1       4.727   1.731  26.051  0.00  0.00    +0.028 C 
BRANCH  36  37
ATOM     37  C   UNL     1       5.646   2.753  26.633  0.00  0.00    -0.028 C 
ATOM     38  C   UNL     1       5.958   2.817  27.938  0.00  0.00    -0.080 C 
ATOM     39  C   UNL     1       6.396   4.122  28.530  0.00  0.00    +0.038 C 
ATOM     40  C   UNL     1       5.787   1.676  28.900  0.00  0.00    +0.038 C 
ENDBRANCH  36  37
ENDBRANCH  35  36
ENDBRANCH  10  35
TORSDOF 12
ENDMDL
