MODEL 1
REMARK VINA RESULT:      -6.8      0.000      0.000
REMARK  Name = 
REMARK  17 active torsions:
REMARK  status: ('A' for Active; 'I' for Inactive)
REMARK    1  A    between atoms: C_1  and  C_2
REMARK    2  A    between atoms: N_4  and  C_5
REMARK    3  A    between atoms: C_7  and  O_9
REMARK    4  A    between atoms: C_10  and  O_12
REMARK    5  A    between atoms: O_12  and  S_13
REMARK    6  A    between atoms: S_13  and  O_14
REMARK    7  A    between atoms: C_17  and  C_19
REMARK    8  A    between atoms: C_19  and  O_20
REMARK    9  A    between atoms: C_22  and  O_24
REMARK   10  A    between atoms: O_24  and  C_25
REMARK   11  A    between atoms: C_28  and  C_37
REMARK   12  A    between atoms: CA_33  and  C_35
REMARK   13  A    between atoms: C_35  and  O_36
REMARK   14  A    between atoms: N_39  and  C_40
REMARK   15  A    between atoms: C_40  and  C_41
REMARK   16  A    between atoms: C_41  and  S_42
REMARK   17  A    between atoms: S_42  and  O_43
REMARK                            x       y       z     vdW  Elec       q    Type
REMARK                         _______ _______ _______ _____ _____    ______ ____
ROOT
ATOM      1  C   UNL     1       7.966  -2.217  24.727  0.00  0.00    +0.160 C 
ATOM      2  C   UNL     1       7.583  -1.848  23.259  0.00  0.00    +0.274 C 
ATOM      3  O   UNL     1       6.701  -2.809  22.671  0.00  0.00    -0.341 OA
ATOM      4  C   UNL     1       7.299  -4.140  22.646  0.00  0.00    +0.180 C 
ATOM      5  C   UNL     1       7.585  -4.648  24.085  0.00  0.00    +0.213 C 
ATOM      6  C   UNL     1       8.552  -3.648  24.753  0.00  0.00    +0.173 C 
ENDROOT
BRANCH   1   9
ATOM      7  C   UNL     1       7.607  -0.243  27.059  0.00  0.00    +0.109 C 
ATOM      8  C   UNL     1       6.584  -1.268  26.684  0.00  0.00    +0.210 C 
ATOM      9  N   UNL     1       6.826  -2.105  25.648  0.00  0.00    -0.305 N 
ATOM     10  H   UNL     1       6.041  -2.732  25.511  0.00  0.00    +0.149 HD
ATOM     11  O   UNL     1       5.531  -1.380  27.307  0.00  0.00    -0.276 OA
ENDBRANCH   1   9
BRANCH   6  12
ATOM     12  O   UNL     1       9.862  -3.676  24.167  0.00  0.00    -0.387 OA
ATOM     13  H   UNL     1       9.849  -3.832  23.211  0.00  0.00    +0.210 HD
ENDBRANCH   6  12
BRANCH   4  14
ATOM     14  C   UNL     1       6.408  -5.087  21.829  0.00  0.00    +0.190 C 
BRANCH  14  15
ATOM     15  O   UNL     1       6.707  -6.450  22.083  0.00  0.00    -0.392 OA
ATOM     16  H   UNL     1       6.092  -6.973  21.535  0.00  0.00    +0.210 HD
ENDBRANCH  14  15
ENDBRANCH   4  14
BRANCH   5  17
ATOM     17  O   UNL     1       6.343  -4.707  24.797  0.00  0.00    -0.207 OA
BRANCH  17  18
ATOM     18  S   UNL     1       6.205  -5.635  26.138  0.00  0.00    +0.208 S 
ATOM     19  O   UNL     1       7.543  -6.020  26.545  0.00  0.00    -0.118 OA
ATOM     20  O   UNL     1       5.158  -6.593  25.901  0.00  0.00    -0.118 OA
BRANCH  18  21
ATOM     21  O   UNL     1       5.645  -4.573  27.198  0.00  0.00    -0.231 OA
ATOM     22  H   UNL     1       5.418  -5.050  28.028  0.00  0.00    +0.247 HD
ENDBRANCH  18  21
ENDBRANCH  17  18
ENDBRANCH   5  17
BRANCH   2  23
ATOM     23  O   UNL     1       7.093  -0.492  23.228  0.00  0.00    -0.340 OA
BRANCH  23  24
ATOM     24  C   UNL     1       8.061   0.555  23.350  0.00  0.00    +0.177 C 
ATOM     25  CA  UNL     1       7.631   1.953  22.804  0.00  0.00    +0.119 C 
ATOM     26  N   UNL     1       8.636   2.269  21.700  0.00  0.00    +0.241 N 
ATOM     27  H1  UNL     1       8.217   2.006  20.792  0.00  0.00    +0.203 HD
ATOM     28  H2  UNL     1       8.858   3.277  21.687  0.00  0.00    +0.203 HD
ATOM     29  C   UNL     1       9.878   1.469  21.982  0.00  0.00    +0.153 C 
ATOM     30  C   UNL     1       9.286   0.168  22.487  0.00  0.00    +0.101 C 
BRANCH  29  31
ATOM     31  C   UNL     1      10.762   2.249  22.979  0.00  0.00    +0.261 C 
ATOM     32  N   UNL     1      11.030   3.562  22.699  0.00  0.00    -0.309 N 
ATOM     33  H   UNL     1      10.538   4.040  21.950  0.00  0.00    +0.149 HD
ATOM     34  O   UNL     1      11.186   1.673  23.982  0.00  0.00    -0.270 OA
BRANCH  32  35
ATOM     35  C   UNL     1      11.922   4.378  23.519  0.00  0.00    +0.129 C 
BRANCH  35  36
ATOM     36  C   UNL     1      11.443   5.794  23.818  0.00  0.00    +0.216 C 
BRANCH  36  37
ATOM     37  S   UNL     1       9.711   5.881  24.218  0.00  0.00    +0.081 S 
ATOM     38  O   UNL     1       9.446   7.108  24.940  0.00  0.00    -0.147 OA
ATOM     39  O   UNL     1       9.274   4.593  24.705  0.00  0.00    -0.147 OA
BRANCH  37  40
ATOM     40  O   UNL     1       9.125   6.019  22.721  0.00  0.00    -0.254 OA
ATOM     41  H   UNL     1       8.453   6.738  22.717  0.00  0.00    +0.244 HD
ENDBRANCH  37  40
ENDBRANCH  36  37
ENDBRANCH  35  36
ENDBRANCH  32  35
ENDBRANCH  29  31
BRANCH  25  42
ATOM     42  C   UNL     1       6.263   2.082  22.133  0.00  0.00    +0.212 C 
BRANCH  42  43
ATOM     43  O   UNL     1       5.247   1.893  23.115  0.00  0.00    -0.389 OA
ATOM     44  H   UNL     1       4.624   1.217  22.783  0.00  0.00    +0.210 HD
ENDBRANCH  42  43
ENDBRANCH  25  42
ENDBRANCH  23  24
ENDBRANCH   2  23
TORSDOF 16
ENDMDL
MODEL 2
REMARK VINA RESULT:      -6.6      2.526      4.493
REMARK  Name = 
REMARK  17 active torsions:
REMARK  status: ('A' for Active; 'I' for Inactive)
REMARK    1  A    between atoms: C_1  and  C_2
REMARK    2  A    between atoms: N_4  and  C_5
REMARK    3  A    between atoms: C_7  and  O_9
REMARK    4  A    between atoms: C_10  and  O_12
REMARK    5  A    between atoms: O_12  and  S_13
REMARK    6  A    between atoms: S_13  and  O_14
REMARK    7  A    between atoms: C_17  and  C_19
REMARK    8  A    between atoms: C_19  and  O_20
REMARK    9  A    between atoms: C_22  and  O_24
REMARK   10  A    between atoms: O_24  and  C_25
REMARK   11  A    between atoms: C_28  and  C_37
REMARK   12  A    between atoms: CA_33  and  C_35
REMARK   13  A    between atoms: C_35  and  O_36
REMARK   14  A    between atoms: N_39  and  C_40
REMARK   15  A    between atoms: C_40  and  C_41
REMARK   16  A    between atoms: C_41  and  S_42
REMARK   17  A    between atoms: S_42  and  O_43
REMARK                            x       y       z     vdW  Elec       q    Type
REMARK                         _______ _______ _______ _____ _____    ______ ____
ROOT
ATOM      1  C   UNL     1       6.147  -2.801  24.606  0.00  0.00    +0.160 C 
ATOM      2  C   UNL     1       7.033  -2.439  25.840  0.00  0.00    +0.274 C 
ATOM      3  O   UNL     1       6.967  -3.435  26.866  0.00  0.00    -0.341 OA
ATOM      4  C   UNL     1       5.602  -3.620  27.346  0.00  0.00    +0.180 C 
ATOM      5  C   UNL     1       4.674  -4.120  26.206  0.00  0.00    +0.213 C 
ATOM      6  C   UNL     1       4.699  -3.063  25.082  0.00  0.00    +0.173 C 
ENDROOT
BRANCH   1   9
ATOM      7  C   UNL     1       5.864  -3.402  21.602  0.00  0.00    +0.109 C 
ATOM      8  C   UNL     1       6.599  -4.292  22.554  0.00  0.00    +0.210 C 
ATOM      9  N   UNL     1       6.668  -3.958  23.864  0.00  0.00    -0.305 N 
ATOM     10  H   UNL     1       7.203  -4.650  24.377  0.00  0.00    +0.149 HD
ATOM     11  O   UNL     1       7.129  -5.335  22.177  0.00  0.00    -0.276 OA
ENDBRANCH   1   9
BRANCH   6  12
ATOM     12  O   UNL     1       4.056  -1.839  25.466  0.00  0.00    -0.387 OA
ATOM     13  H   UNL     1       4.660  -1.204  25.879  0.00  0.00    +0.210 HD
ENDBRANCH   6  12
BRANCH   4  14
ATOM     14  C   UNL     1       5.611  -4.540  28.575  0.00  0.00    +0.190 C 
BRANCH  14  15
ATOM     15  O   UNL     1       6.583  -5.566  28.466  0.00  0.00    -0.392 OA
ATOM     16  H   UNL     1       6.693  -5.741  27.512  0.00  0.00    +0.210 HD
ENDBRANCH  14  15
ENDBRANCH   4  14
BRANCH   5  17
ATOM     17  O   UNL     1       5.178  -5.376  25.734  0.00  0.00    -0.207 OA
BRANCH  17  18
ATOM     18  S   UNL     1       4.231  -6.710  25.771  0.00  0.00    +0.208 S 
ATOM     19  O   UNL     1       4.476  -7.455  24.551  0.00  0.00    -0.118 OA
ATOM     20  O   UNL     1       2.915  -6.301  26.182  0.00  0.00    -0.118 OA
BRANCH  18  21
ATOM     21  O   UNL     1       4.878  -7.520  26.991  0.00  0.00    -0.231 OA
ATOM     22  H   UNL     1       5.425  -6.898  27.524  0.00  0.00    +0.247 HD
ENDBRANCH  18  21
ENDBRANCH  17  18
ENDBRANCH   5  17
BRANCH   2  23
ATOM     23  O   UNL     1       8.368  -2.136  25.388  0.00  0.00    -0.340 OA
BRANCH  23  24
ATOM     24  C   UNL     1       8.581  -0.852  24.793  0.00  0.00    +0.177 C 
ATOM     25  CA  UNL     1       9.217  -0.854  23.368  0.00  0.00    +0.119 C 
ATOM     26  N   UNL     1      10.528  -0.090  23.522  0.00  0.00    +0.241 N 
ATOM     27  H1  UNL     1      11.293  -0.775  23.648  0.00  0.00    +0.203 HD
ATOM     28  H2  UNL     1      10.721   0.476  22.681  0.00  0.00    +0.203 HD
ATOM     29  C   UNL     1      10.389   0.801  24.725  0.00  0.00    +0.153 C 
ATOM     30  C   UNL     1       9.607  -0.092  25.668  0.00  0.00    +0.101 C 
BRANCH  29  31
ATOM     31  C   UNL     1       9.700   2.115  24.300  0.00  0.00    +0.261 C 
ATOM     32  N   UNL     1       8.679   2.581  25.083  0.00  0.00    -0.309 N 
ATOM     33  H   UNL     1       8.493   2.162  25.990  0.00  0.00    +0.149 HD
ATOM     34  O   UNL     1      10.091   2.695  23.284  0.00  0.00    -0.270 OA
BRANCH  32  35
ATOM     35  C   UNL     1       7.897   3.766  24.739  0.00  0.00    +0.129 C 
BRANCH  35  36
ATOM     36  C   UNL     1       6.385   3.575  24.689  0.00  0.00    +0.216 C 
BRANCH  36  37
ATOM     37  S   UNL     1       5.900   1.914  24.271  0.00  0.00    +0.081 S 
ATOM     38  O   UNL     1       5.937   1.090  25.462  0.00  0.00    -0.147 OA
ATOM     39  O   UNL     1       6.557   1.525  23.046  0.00  0.00    -0.147 OA
BRANCH  37  40
ATOM     40  O   UNL     1       4.361   2.204  23.885  0.00  0.00    -0.254 OA
ATOM     41  H   UNL     1       3.870   1.350  23.906  0.00  0.00    +0.244 HD
ENDBRANCH  37  40
ENDBRANCH  36  37
ENDBRANCH  35  36
ENDBRANCH  32  35
ENDBRANCH  29  31
BRANCH  25  42
ATOM     42  C   UNL     1       9.619  -2.195  22.753  0.00  0.00    +0.212 C 
BRANCH  42  43
ATOM     43  O   UNL     1      10.334  -2.953  23.725  0.00  0.00    -0.389 OA
ATOM     44  H   UNL     1      10.984  -3.514  23.256  0.00  0.00    +0.210 HD
ENDBRANCH  42  43
ENDBRANCH  25  42
ENDBRANCH  23  24
ENDBRANCH   2  23
TORSDOF 16
ENDMDL
MODEL 3
REMARK VINA RESULT:      -6.5      3.147      8.571
REMARK  Name = 
REMARK  17 active torsions:
REMARK  status: ('A' for Active; 'I' for Inactive)
REMARK    1  A    between atoms: C_1  and  C_2
REMARK    2  A    between atoms: N_4  and  C_5
REMARK    3  A    between atoms: C_7  and  O_9
REMARK    4  A    between atoms: C_10  and  O_12
REMARK    5  A    between atoms: O_12  and  S_13
REMARK    6  A    between atoms: S_13  and  O_14
REMARK    7  A    between atoms: C_17  and  C_19
REMARK    8  A    between atoms: C_19  and  O_20
REMARK    9  A    between atoms: C_22  and  O_24
REMARK   10  A    between atoms: O_24  and  C_25
REMARK   11  A    between atoms: C_28  and  C_37
REMARK   12  A    between atoms: CA_33  and  C_35
REMARK   13  A    between atoms: C_35  and  O_36
REMARK   14  A    between atoms: N_39  and  C_40
REMARK   15  A    between atoms: C_40  and  C_41
REMARK   16  A    between atoms: C_41  and  S_42
REMARK   17  A    between atoms: S_42  and  O_43
REMARK                            x       y       z     vdW  Elec       q    Type
REMARK                         _______ _______ _______ _____ _____    ______ ____
ROOT
ATOM      1  C   UNL     1       7.006  -2.612  24.920  0.00  0.00    +0.160 C 
ATOM      2  C   UNL     1       6.019  -2.316  23.745  0.00  0.00    +0.274 C 
ATOM      3  O   UNL     1       6.398  -1.156  22.999  0.00  0.00    -0.341 OA
ATOM      4  C   UNL     1       6.443   0.034  23.843  0.00  0.00    +0.180 C 
ATOM      5  C   UNL     1       7.508  -0.119  24.962  0.00  0.00    +0.213 C 
ATOM      6  C   UNL     1       7.127  -1.352  25.809  0.00  0.00    +0.173 C 
ENDROOT
BRANCH   1   9
ATOM      7  C   UNL     1       8.991  -4.503  26.315  0.00  0.00    +0.109 C 
ATOM      8  C   UNL     1       9.253  -3.871  24.984  0.00  0.00    +0.210 C 
ATOM      9  N   UNL     1       8.328  -3.042  24.445  0.00  0.00    -0.305 N 
ATOM     10  H   UNL     1       8.643  -2.703  23.542  0.00  0.00    +0.149 HD
ATOM     11  O   UNL     1      10.300  -4.073  24.374  0.00  0.00    -0.276 OA
ENDBRANCH   1   9
BRANCH   6  12
ATOM     12  O   UNL     1       5.929  -1.145  26.571  0.00  0.00    -0.387 OA
ATOM     13  H   UNL     1       5.408  -1.953  26.690  0.00  0.00    +0.210 HD
ENDBRANCH   6  12
BRANCH   4  14
ATOM     14  C   UNL     1       6.652   1.277  22.966  0.00  0.00    +0.190 C 
BRANCH  14  15
ATOM     15  O   UNL     1       7.554   1.032  21.900  0.00  0.00    -0.392 OA
ATOM     16  H   UNL     1       8.313   1.629  22.039  0.00  0.00    +0.210 HD
ENDBRANCH  14  15
ENDBRANCH   4  14
BRANCH   5  17
ATOM     17  O   UNL     1       8.788  -0.303  24.345  0.00  0.00    -0.207 OA
BRANCH  17  18
ATOM     18  S   UNL     1       9.918   0.879  24.422  0.00  0.00    +0.208 S 
ATOM     19  O   UNL     1      10.120   1.381  23.076  0.00  0.00    -0.118 OA
ATOM     20  O   UNL     1      10.996   0.400  25.244  0.00  0.00    -0.118 OA
BRANCH  18  21
ATOM     21  O   UNL     1       9.141   2.000  25.262  0.00  0.00    -0.231 OA
ATOM     22  H   UNL     1       9.385   1.904  26.211  0.00  0.00    +0.247 HD
ENDBRANCH  18  21
ENDBRANCH  17  18
ENDBRANCH   5  17
BRANCH   2  23
ATOM     23  O   UNL     1       5.861  -3.510  22.953  0.00  0.00    -0.340 OA
BRANCH  23  24
ATOM     24  C   UNL     1       5.310  -4.659  23.605  0.00  0.00    +0.177 C 
ATOM     25  CA  UNL     1       5.436  -6.010  22.835  0.00  0.00    +0.119 C 
ATOM     26  N   UNL     1       3.999  -6.467  22.606  0.00  0.00    +0.241 N 
ATOM     27  H1  UNL     1       3.711  -6.180  21.655  0.00  0.00    +0.203 HD
ATOM     28  H2  UNL     1       3.926  -7.494  22.682  0.00  0.00    +0.203 HD
ATOM     29  C   UNL     1       3.147  -5.810  23.657  0.00  0.00    +0.153 C 
ATOM     30  C   UNL     1       3.784  -4.437  23.740  0.00  0.00    +0.101 C 
BRANCH  29  31
ATOM     31  C   UNL     1       3.189  -6.662  24.943  0.00  0.00    +0.261 C 
ATOM     32  N   UNL     1       2.942  -6.032  26.133  0.00  0.00    -0.309 N 
ATOM     33  H   UNL     1       2.591  -5.078  26.147  0.00  0.00    +0.149 HD
ATOM     34  O   UNL     1       3.437  -7.866  24.857  0.00  0.00    -0.270 OA
BRANCH  32  35
ATOM     35  C   UNL     1       3.036  -6.712  27.422  0.00  0.00    +0.129 C 
BRANCH  35  36
ATOM     36  C   UNL     1       4.027  -6.119  28.418  0.00  0.00    +0.216 C 
BRANCH  36  37
ATOM     37  S   UNL     1       5.466  -5.414  27.643  0.00  0.00    +0.081 S 
ATOM     38  O   UNL     1       5.170  -4.058  27.227  0.00  0.00    -0.147 OA
ATOM     39  O   UNL     1       6.041  -6.386  26.743  0.00  0.00    -0.147 OA
BRANCH  37  40
ATOM     40  O   UNL     1       6.433  -5.365  28.933  0.00  0.00    -0.254 OA
ATOM     41  H   UNL     1       7.365  -5.452  28.625  0.00  0.00    +0.244 HD
ENDBRANCH  37  40
ENDBRANCH  36  37
ENDBRANCH  35  36
ENDBRANCH  32  35
ENDBRANCH  29  31
BRANCH  25  42
ATOM     42  C   UNL     1       6.065  -5.996  21.441  0.00  0.00    +0.212 C 
BRANCH  42  43
ATOM     43  O   UNL     1       7.411  -5.537  21.546  0.00  0.00    -0.389 OA
ATOM     44  H   UNL     1       7.719  -5.290  20.651  0.00  0.00    +0.210 HD
ENDBRANCH  42  43
ENDBRANCH  25  42
ENDBRANCH  23  24
ENDBRANCH   2  23
TORSDOF 16
ENDMDL
MODEL 4
REMARK VINA RESULT:      -6.5      2.839      8.928
REMARK  Name = 
REMARK  17 active torsions:
REMARK  status: ('A' for Active; 'I' for Inactive)
REMARK    1  A    between atoms: C_1  and  C_2
REMARK    2  A    between atoms: N_4  and  C_5
REMARK    3  A    between atoms: C_7  and  O_9
REMARK    4  A    between atoms: C_10  and  O_12
REMARK    5  A    between atoms: O_12  and  S_13
REMARK    6  A    between atoms: S_13  and  O_14
REMARK    7  A    between atoms: C_17  and  C_19
REMARK    8  A    between atoms: C_19  and  O_20
REMARK    9  A    between atoms: C_22  and  O_24
REMARK   10  A    between atoms: O_24  and  C_25
REMARK   11  A    between atoms: C_28  and  C_37
REMARK   12  A    between atoms: CA_33  and  C_35
REMARK   13  A    between atoms: C_35  and  O_36
REMARK   14  A    between atoms: N_39  and  C_40
REMARK   15  A    between atoms: C_40  and  C_41
REMARK   16  A    between atoms: C_41  and  S_42
REMARK   17  A    between atoms: S_42  and  O_43
REMARK                            x       y       z     vdW  Elec       q    Type
REMARK                         _______ _______ _______ _____ _____    ______ ____
ROOT
ATOM      1  C   UNL     1       8.186  -0.724  24.356  0.00  0.00    +0.160 C 
ATOM      2  C   UNL     1       6.736  -1.236  24.629  0.00  0.00    +0.274 C 
ATOM      3  O   UNL     1       5.754  -0.216  24.422  0.00  0.00    -0.341 OA
ATOM      4  C   UNL     1       5.983   0.933  25.291  0.00  0.00    +0.180 C 
ATOM      5  C   UNL     1       7.354   1.595  24.989  0.00  0.00    +0.213 C 
ATOM      6  C   UNL     1       8.450   0.532  25.219  0.00  0.00    +0.173 C 
ENDROOT
BRANCH   1   9
ATOM      7  C   UNL     1      10.588  -1.568  22.630  0.00  0.00    +0.109 C 
ATOM      8  C   UNL     1       9.434  -0.775  22.103  0.00  0.00    +0.210 C 
ATOM      9  N   UNL     1       8.420  -0.437  22.934  0.00  0.00    -0.305 N 
ATOM     10  H   UNL     1       7.712   0.087  22.432  0.00  0.00    +0.149 HD
ATOM     11  O   UNL     1       9.392  -0.406  20.931  0.00  0.00    -0.276 OA
ENDBRANCH   1   9
BRANCH   6  12
ATOM     12  O   UNL     1       8.593   0.184  26.603  0.00  0.00    -0.387 OA
ATOM     13  H   UNL     1       8.321   0.892  27.205  0.00  0.00    +0.210 HD
ENDBRANCH   6  12
BRANCH   4  14
ATOM     14  C   UNL     1       4.798   1.904  25.181  0.00  0.00    +0.190 C 
BRANCH  14  15
ATOM     15  O   UNL     1       4.487   2.215  23.833  0.00  0.00    -0.392 OA
ATOM     16  H   UNL     1       5.339   2.270  23.360  0.00  0.00    +0.210 HD
ENDBRANCH  14  15
ENDBRANCH   4  14
BRANCH   5  17
ATOM     17  O   UNL     1       7.351   2.034  23.624  0.00  0.00    -0.207 OA
BRANCH  17  18
ATOM     18  S   UNL     1       8.350   3.238  23.143  0.00  0.00    +0.208 S 
ATOM     19  O   UNL     1       9.361   3.405  24.170  0.00  0.00    -0.118 OA
ATOM     20  O   UNL     1       7.532   4.323  22.672  0.00  0.00    -0.118 OA
BRANCH  18  21
ATOM     21  O   UNL     1       9.044   2.575  21.861  0.00  0.00    -0.231 OA
ATOM     22  H   UNL     1       8.339   2.293  21.235  0.00  0.00    +0.247 HD
ENDBRANCH  18  21
ENDBRANCH  17  18
ENDBRANCH   5  17
BRANCH   2  23
ATOM     23  O   UNL     1       6.513  -2.442  23.870  0.00  0.00    -0.340 OA
BRANCH  23  24
ATOM     24  C   UNL     1       6.045  -3.588  24.588  0.00  0.00    +0.177 C 
ATOM     25  CA  UNL     1       6.585  -4.969  24.099  0.00  0.00    +0.119 C 
ATOM     26  N   UNL     1       5.343  -5.747  23.676  0.00  0.00    +0.241 N 
ATOM     27  H1  UNL     1       5.230  -5.652  22.652  0.00  0.00    +0.203 HD
ATOM     28  H2  UNL     1       5.442  -6.747  23.910  0.00  0.00    +0.203 HD
ATOM     29  C   UNL     1       4.172  -5.157  24.412  0.00  0.00    +0.153 C 
ATOM     30  C   UNL     1       4.515  -3.681  24.383  0.00  0.00    +0.101 C 
BRANCH  29  31
ATOM     31  C   UNL     1       4.076  -5.809  25.807  0.00  0.00    +0.261 C 
ATOM     32  N   UNL     1       3.717  -5.010  26.860  0.00  0.00    -0.309 N 
ATOM     33  H   UNL     1       3.376  -4.067  26.697  0.00  0.00    +0.149 HD
ATOM     34  O   UNL     1       4.318  -7.012  25.925  0.00  0.00    -0.270 OA
BRANCH  32  35
ATOM     35  C   UNL     1       3.675  -5.492  28.238  0.00  0.00    +0.129 C 
BRANCH  35  36
ATOM     36  C   UNL     1       4.873  -5.129  29.108  0.00  0.00    +0.216 C 
BRANCH  36  37
ATOM     37  S   UNL     1       6.140  -6.379  29.116  0.00  0.00    +0.081 S 
ATOM     38  O   UNL     1       6.440  -6.748  30.484  0.00  0.00    -0.147 OA
ATOM     39  O   UNL     1       7.172  -6.011  28.175  0.00  0.00    -0.147 OA
BRANCH  37  40
ATOM     40  O   UNL     1       5.304  -7.572  28.425  0.00  0.00    -0.254 OA
ATOM     41  H   UNL     1       4.724  -7.981  29.108  0.00  0.00    +0.244 HD
ENDBRANCH  37  40
ENDBRANCH  36  37
ENDBRANCH  35  36
ENDBRANCH  32  35
ENDBRANCH  29  31
BRANCH  25  42
ATOM     42  C   UNL     1       7.499  -5.000  22.874  0.00  0.00    +0.212 C 
BRANCH  42  43
ATOM     43  O   UNL     1       6.902  -4.230  21.833  0.00  0.00    -0.389 OA
ATOM     44  H   UNL     1       5.974  -4.047  22.083  0.00  0.00    +0.210 HD
ENDBRANCH  42  43
ENDBRANCH  25  42
ENDBRANCH  23  24
ENDBRANCH   2  23
TORSDOF 16
ENDMDL
MODEL 5
REMARK VINA RESULT:      -6.5      2.288      8.717
REMARK  Name = 
REMARK  17 active torsions:
REMARK  status: ('A' for Active; 'I' for Inactive)
REMARK    1  A    between atoms: C_1  and  C_2
REMARK    2  A    between atoms: N_4  and  C_5
REMARK    3  A    between atoms: C_7  and  O_9
REMARK    4  A    between atoms: C_10  and  O_12
REMARK    5  A    between atoms: O_12  and  S_13
REMARK    6  A    between atoms: S_13  and  O_14
REMARK    7  A    between atoms: C_17  and  C_19
REMARK    8  A    between atoms: C_19  and  O_20
REMARK    9  A    between atoms: C_22  and  O_24
REMARK   10  A    between atoms: O_24  and  C_25
REMARK   11  A    between atoms: C_28  and  C_37
REMARK   12  A    between atoms: CA_33  and  C_35
REMARK   13  A    between atoms: C_35  and  O_36
REMARK   14  A    between atoms: N_39  and  C_40
REMARK   15  A    between atoms: C_40  and  C_41
REMARK   16  A    between atoms: C_41  and  S_42
REMARK   17  A    between atoms: S_42  and  O_43
REMARK                            x       y       z     vdW  Elec       q    Type
REMARK                         _______ _______ _______ _____ _____    ______ ____
ROOT
ATOM      1  C   UNL     1       8.146   2.241  24.463  0.00  0.00    +0.160 C 
ATOM      2  C   UNL     1       9.472   1.500  24.099  0.00  0.00    +0.274 C 
ATOM      3  O   UNL     1      10.613   2.359  24.183  0.00  0.00    -0.341 OA
ATOM      4  C   UNL     1      10.490   3.504  23.287  0.00  0.00    +0.180 C 
ATOM      5  C   UNL     1       9.267   4.381  23.669  0.00  0.00    +0.213 C 
ATOM      6  C   UNL     1       8.006   3.497  23.572  0.00  0.00    +0.173 C 
ENDROOT
BRANCH   1   9
ATOM      7  C   UNL     1       5.664   2.322  26.279  0.00  0.00    +0.109 C 
ATOM      8  C   UNL     1       7.043   2.655  26.755  0.00  0.00    +0.210 C 
ATOM      9  N   UNL     1       8.080   2.603  25.886  0.00  0.00    -0.305 N 
ATOM     10  H   UNL     1       8.946   2.844  26.356  0.00  0.00    +0.149 HD
ATOM     11  O   UNL     1       7.256   2.993  27.917  0.00  0.00    -0.276 OA
ENDBRANCH   1   9
BRANCH   6  12
ATOM     12  O   UNL     1       7.693   3.134  22.220  0.00  0.00    -0.387 OA
ATOM     13  H   UNL     1       6.742   3.046  22.058  0.00  0.00    +0.210 HD
ENDBRANCH   6  12
BRANCH   4  14
ATOM     14  C   UNL     1      11.815   4.280  23.261  0.00  0.00    +0.190 C 
BRANCH  14  15
ATOM     15  O   UNL     1      11.643   5.612  22.805  0.00  0.00    -0.392 OA
ATOM     16  H   UNL     1      11.252   5.549  21.914  0.00  0.00    +0.210 HD
ENDBRANCH  14  15
ENDBRANCH   4  14
BRANCH   5  17
ATOM     17  O   UNL     1       9.454   4.854  25.009  0.00  0.00    -0.207 OA
BRANCH  17  18
ATOM     18  S   UNL     1       9.290   6.447  25.351  0.00  0.00    +0.208 S 
ATOM     19  O   UNL     1       8.093   6.918  24.680  0.00  0.00    -0.118 OA
ATOM     20  O   UNL     1      10.576   7.066  25.176  0.00  0.00    -0.118 OA
BRANCH  18  21
ATOM     21  O   UNL     1       8.995   6.400  26.924  0.00  0.00    -0.231 OA
ATOM     22  H   UNL     1       8.030   6.261  27.058  0.00  0.00    +0.247 HD
ENDBRANCH  18  21
ENDBRANCH  17  18
ENDBRANCH   5  17
BRANCH   2  23
ATOM     23  O   UNL     1       9.571   0.298  24.888  0.00  0.00    -0.340 OA
BRANCH  23  24
ATOM     24  C   UNL     1       8.858  -0.852  24.420  0.00  0.00    +0.177 C 
ATOM     25  CA  UNL     1       7.862  -1.500  25.432  0.00  0.00    +0.119 C 
ATOM     26  N   UNL     1       8.380  -2.921  25.635  0.00  0.00    +0.241 N 
ATOM     27  H1  UNL     1       8.956  -2.939  26.495  0.00  0.00    +0.203 HD
ATOM     28  H2  UNL     1       7.596  -3.583  25.744  0.00  0.00    +0.203 HD
ATOM     29  C   UNL     1       9.194  -3.279  24.423  0.00  0.00    +0.153 C 
ATOM     30  C   UNL     1       9.894  -1.965  24.136  0.00  0.00    +0.101 C 
BRANCH  29  31
ATOM     31  C   UNL     1       8.250  -3.805  23.322  0.00  0.00    +0.261 C 
ATOM     32  N   UNL     1       7.757  -5.075  23.459  0.00  0.00    -0.309 N 
ATOM     33  H   UNL     1       7.884  -5.585  24.328  0.00  0.00    +0.149 HD
ATOM     34  O   UNL     1       7.972  -3.073  22.370  0.00  0.00    -0.270 OA
BRANCH  32  35
ATOM     35  C   UNL     1       6.924  -5.713  22.442  0.00  0.00    +0.129 C 
BRANCH  35  36
ATOM     36  C   UNL     1       5.503  -6.063  22.868  0.00  0.00    +0.216 C 
BRANCH  36  37
ATOM     37  S   UNL     1       4.522  -4.637  23.281  0.00  0.00    +0.081 S 
ATOM     38  O   UNL     1       4.939  -4.124  24.569  0.00  0.00    -0.147 OA
ATOM     39  O   UNL     1       3.137  -4.912  22.975  0.00  0.00    -0.147 OA
BRANCH  37  40
ATOM     40  O   UNL     1       5.049  -3.641  22.127  0.00  0.00    -0.254 OA
ATOM     41  H   UNL     1       4.817  -2.719  22.383  0.00  0.00    +0.244 HD
ENDBRANCH  37  40
ENDBRANCH  36  37
ENDBRANCH  35  36
ENDBRANCH  32  35
ENDBRANCH  29  31
BRANCH  25  42
ATOM     42  C   UNL     1       7.774  -0.914  26.841  0.00  0.00    +0.212 C 
BRANCH  42  43
ATOM     43  O   UNL     1       9.093  -0.712  27.341  0.00  0.00    -0.389 OA
ATOM     44  H   UNL     1       9.326  -1.477  27.904  0.00  0.00    +0.210 HD
ENDBRANCH  42  43
ENDBRANCH  25  42
ENDBRANCH  23  24
ENDBRANCH   2  23
TORSDOF 16
ENDMDL
MODEL 6
REMARK VINA RESULT:      -6.5      2.005      8.848
REMARK  Name = 
REMARK  17 active torsions:
REMARK  status: ('A' for Active; 'I' for Inactive)
REMARK    1  A    between atoms: C_1  and  C_2
REMARK    2  A    between atoms: N_4  and  C_5
REMARK    3  A    between atoms: C_7  and  O_9
REMARK    4  A    between atoms: C_10  and  O_12
REMARK    5  A    between atoms: O_12  and  S_13
REMARK    6  A    between atoms: S_13  and  O_14
REMARK    7  A    between atoms: C_17  and  C_19
REMARK    8  A    between atoms: C_19  and  O_20
REMARK    9  A    between atoms: C_22  and  O_24
REMARK   10  A    between atoms: O_24  and  C_25
REMARK   11  A    between atoms: C_28  and  C_37
REMARK   12  A    between atoms: CA_33  and  C_35
REMARK   13  A    between atoms: C_35  and  O_36
REMARK   14  A    between atoms: N_39  and  C_40
REMARK   15  A    between atoms: C_40  and  C_41
REMARK   16  A    between atoms: C_41  and  S_42
REMARK   17  A    between atoms: S_42  and  O_43
REMARK                            x       y       z     vdW  Elec       q    Type
REMARK                         _______ _______ _______ _____ _____    ______ ____
ROOT
ATOM      1  C   UNL     1       8.469   1.483  23.564  0.00  0.00    +0.160 C 
ATOM      2  C   UNL     1       9.946   1.017  23.774  0.00  0.00    +0.274 C 
ATOM      3  O   UNL     1      10.814   2.105  24.107  0.00  0.00    -0.341 OA
ATOM      4  C   UNL     1      10.821   3.125  23.064  0.00  0.00    +0.180 C 
ATOM      5  C   UNL     1       9.409   3.746  22.884  0.00  0.00    +0.213 C 
ATOM      6  C   UNL     1       8.439   2.608  22.503  0.00  0.00    +0.173 C 
ENDROOT
BRANCH   1   9
ATOM      7  C   UNL     1       5.664   0.790  24.620  0.00  0.00    +0.109 C 
ATOM      8  C   UNL     1       6.627   1.668  25.356  0.00  0.00    +0.210 C 
ATOM      9  N   UNL     1       7.840   1.930  24.814  0.00  0.00    -0.305 N 
ATOM     10  H   UNL     1       8.380   2.527  25.432  0.00  0.00    +0.149 HD
ATOM     11  O   UNL     1       6.336   2.173  26.437  0.00  0.00    -0.276 OA
ENDBRANCH   1   9
BRANCH   6  12
ATOM     12  O   UNL     1       8.696   2.085  21.193  0.00  0.00    -0.387 OA
ATOM     13  H   UNL     1       7.948   2.191  20.586  0.00  0.00    +0.210 HD
ENDBRANCH   6  12
BRANCH   4  14
ATOM     14  C   UNL     1      11.911   4.162  23.367  0.00  0.00    +0.190 C 
BRANCH  14  15
ATOM     15  O   UNL     1      11.625   5.422  22.784  0.00  0.00    -0.392 OA
ATOM     16  H   UNL     1      10.796   5.311  22.282  0.00  0.00    +0.210 HD
ENDBRANCH  14  15
ENDBRANCH   4  14
BRANCH   5  17
ATOM     17  O   UNL     1       9.022   4.349  24.126  0.00  0.00    -0.207 OA
BRANCH  17  18
ATOM     18  S   UNL     1       8.624   5.936  24.182  0.00  0.00    +0.208 S 
ATOM     19  O   UNL     1       9.698   6.633  24.863  0.00  0.00    -0.118 OA
ATOM     20  O   UNL     1       7.250   6.028  24.596  0.00  0.00    -0.118 OA
BRANCH  18  21
ATOM     21  O   UNL     1       8.678   6.328  22.630  0.00  0.00    -0.231 OA
ATOM     22  H   UNL     1       8.867   7.291  22.557  0.00  0.00    +0.247 HD
ENDBRANCH  18  21
ENDBRANCH  17  18
ENDBRANCH   5  17
BRANCH   2  23
ATOM     23  O   UNL     1       9.965  -0.073  24.718  0.00  0.00    -0.340 OA
BRANCH  23  24
ATOM     24  C   UNL     1       9.048  -1.149  24.492  0.00  0.00    +0.177 C 
ATOM     25  CA  UNL     1       8.377  -1.755  25.764  0.00  0.00    +0.119 C 
ATOM     26  N   UNL     1       8.814  -3.216  25.779  0.00  0.00    +0.241 N 
ATOM     27  H1  UNL     1       9.630  -3.307  26.408  0.00  0.00    +0.203 HD
ATOM     28  H2  UNL     1       8.054  -3.821  26.127  0.00  0.00    +0.203 HD
ATOM     29  C   UNL     1       9.168  -3.593  24.367  0.00  0.00    +0.153 C 
ATOM     30  C   UNL     1       9.845  -2.326  23.882  0.00  0.00    +0.101 C 
BRANCH  29  31
ATOM     31  C   UNL     1       7.883  -4.009  23.621  0.00  0.00    +0.261 C 
ATOM     32  N   UNL     1       6.998  -4.819  24.280  0.00  0.00    -0.309 N 
ATOM     33  H   UNL     1       7.112  -5.005  25.272  0.00  0.00    +0.149 HD
ATOM     34  O   UNL     1       7.696  -3.599  22.473  0.00  0.00    -0.270 OA
BRANCH  32  35
ATOM     35  C   UNL     1       5.790  -5.347  23.650  0.00  0.00    +0.129 C 
BRANCH  35  36
ATOM     36  C   UNL     1       5.010  -6.375  24.462  0.00  0.00    +0.216 C 
BRANCH  36  37
ATOM     37  S   UNL     1       5.049  -6.064  26.214  0.00  0.00    +0.081 S 
ATOM     38  O   UNL     1       4.424  -4.785  26.487  0.00  0.00    -0.147 OA
ATOM     39  O   UNL     1       6.355  -6.407  26.726  0.00  0.00    -0.147 OA
BRANCH  37  40
ATOM     40  O   UNL     1       4.055  -7.242  26.689  0.00  0.00    -0.254 OA
ATOM     41  H   UNL     1       3.948  -7.877  25.944  0.00  0.00    +0.244 HD
ENDBRANCH  37  40
ENDBRANCH  36  37
ENDBRANCH  35  36
ENDBRANCH  32  35
ENDBRANCH  29  31
BRANCH  25  42
ATOM     42  C   UNL     1       8.790  -1.212  27.133  0.00  0.00    +0.212 C 
BRANCH  42  43
ATOM     43  O   UNL     1       8.437   0.167  27.208  0.00  0.00    -0.389 OA
ATOM     44  H   UNL     1       7.830   0.285  27.966  0.00  0.00    +0.210 HD
ENDBRANCH  42  43
ENDBRANCH  25  42
ENDBRANCH  23  24
ENDBRANCH   2  23
TORSDOF 16
ENDMDL
MODEL 7
REMARK VINA RESULT:      -6.4      3.356      8.364
REMARK  Name = 
REMARK  17 active torsions:
REMARK  status: ('A' for Active; 'I' for Inactive)
REMARK    1  A    between atoms: C_1  and  C_2
REMARK    2  A    between atoms: N_4  and  C_5
REMARK    3  A    between atoms: C_7  and  O_9
REMARK    4  A    between atoms: C_10  and  O_12
REMARK    5  A    between atoms: O_12  and  S_13
REMARK    6  A    between atoms: S_13  and  O_14
REMARK    7  A    between atoms: C_17  and  C_19
REMARK    8  A    between atoms: C_19  and  O_20
REMARK    9  A    between atoms: C_22  and  O_24
REMARK   10  A    between atoms: O_24  and  C_25
REMARK   11  A    between atoms: C_28  and  C_37
REMARK   12  A    between atoms: CA_33  and  C_35
REMARK   13  A    between atoms: C_35  and  O_36
REMARK   14  A    between atoms: N_39  and  C_40
REMARK   15  A    between atoms: C_40  and  C_41
REMARK   16  A    between atoms: C_41  and  S_42
REMARK   17  A    between atoms: S_42  and  O_43
REMARK                            x       y       z     vdW  Elec       q    Type
REMARK                         _______ _______ _______ _____ _____    ______ ____
ROOT
ATOM      1  C   UNL     1       7.432  -1.653  22.598  0.00  0.00    +0.160 C 
ATOM      2  C   UNL     1       7.264  -3.200  22.728  0.00  0.00    +0.274 C 
ATOM      3  O   UNL     1       7.804  -3.702  23.955  0.00  0.00    -0.341 OA
ATOM      4  C   UNL     1       9.228  -3.404  24.076  0.00  0.00    +0.180 C 
ATOM      5  C   UNL     1       9.475  -1.872  24.096  0.00  0.00    +0.213 C 
ATOM      6  C   UNL     1       8.924  -1.288  22.778  0.00  0.00    +0.173 C 
ENDROOT
BRANCH   1   9
ATOM      7  C   UNL     1       6.644   1.320  22.525  0.00  0.00    +0.109 C 
ATOM      8  C   UNL     1       6.196   0.376  23.596  0.00  0.00    +0.210 C 
ATOM      9  N   UNL     1       6.597  -0.916  23.558  0.00  0.00    -0.305 N 
ATOM     10  H   UNL     1       6.207  -1.430  24.340  0.00  0.00    +0.149 HD
ATOM     11  O   UNL     1       5.484   0.752  24.524  0.00  0.00    -0.276 OA
ENDBRANCH   1   9
BRANCH   6  12
ATOM     12  O   UNL     1       9.693  -1.692  21.636  0.00  0.00    -0.387 OA
ATOM     13  H   UNL     1       9.994  -0.947  21.095  0.00  0.00    +0.210 HD
ENDBRANCH   6  12
BRANCH   4  14
ATOM     14  C   UNL     1       9.803  -4.133  25.299  0.00  0.00    +0.190 C 
BRANCH  14  15
ATOM     15  O   UNL     1      10.183  -5.465  24.995  0.00  0.00    -0.392 OA
ATOM     16  H   UNL     1      10.364  -5.901  25.848  0.00  0.00    +0.210 HD
ENDBRANCH  14  15
ENDBRANCH   4  14
BRANCH   5  17
ATOM     17  O   UNL     1       8.785  -1.319  25.224  0.00  0.00    -0.207 OA
BRANCH  17  18
ATOM     18  S   UNL     1       9.326   0.056  25.929  0.00  0.00    +0.208 S 
ATOM     19  O   UNL     1       8.264   1.040  25.842  0.00  0.00    -0.118 OA
ATOM     20  O   UNL     1      10.657   0.301  25.444  0.00  0.00    -0.118 OA
BRANCH  18  21
ATOM     21  O   UNL     1       9.455  -0.407  27.457  0.00  0.00    -0.231 OA
ATOM     22  H   UNL     1      10.108  -1.142  27.507  0.00  0.00    +0.247 HD
ENDBRANCH  18  21
ENDBRANCH  17  18
ENDBRANCH   5  17
BRANCH   2  23
ATOM     23  O   UNL     1       5.883  -3.544  22.500  0.00  0.00    -0.340 OA
BRANCH  23  24
ATOM     24  C   UNL     1       5.347  -4.635  23.257  0.00  0.00    +0.177 C 
ATOM     25  CA  UNL     1       5.672  -6.064  22.721  0.00  0.00    +0.119 C 
ATOM     26  N   UNL     1       4.313  -6.684  22.410  0.00  0.00    +0.241 N 
ATOM     27  H1  UNL     1       4.122  -6.564  21.400  0.00  0.00    +0.203 HD
ATOM     28  H2  UNL     1       4.312  -7.691  22.634  0.00  0.00    +0.203 HD
ATOM     29  C   UNL     1       3.291  -5.967  23.249  0.00  0.00    +0.153 C 
ATOM     30  C   UNL     1       3.804  -4.542  23.190  0.00  0.00    +0.101 C 
BRANCH  29  31
ATOM     31  C   UNL     1       3.243  -6.618  24.647  0.00  0.00    +0.261 C 
ATOM     32  N   UNL     1       2.993  -5.805  25.720  0.00  0.00    -0.309 N 
ATOM     33  H   UNL     1       2.697  -4.843  25.579  0.00  0.00    +0.149 HD
ATOM     34  O   UNL     1       3.423  -7.833  24.749  0.00  0.00    -0.270 OA
BRANCH  32  35
ATOM     35  C   UNL     1       3.007  -6.289  27.098  0.00  0.00    +0.129 C 
BRANCH  35  36
ATOM     36  C   UNL     1       3.958  -5.570  28.048  0.00  0.00    +0.216 C 
BRANCH  36  37
ATOM     37  S   UNL     1       5.635  -6.154  27.939  0.00  0.00    +0.081 S 
ATOM     38  O   UNL     1       6.464  -5.406  28.862  0.00  0.00    -0.147 OA
ATOM     39  O   UNL     1       5.989  -6.318  26.549  0.00  0.00    -0.147 OA
BRANCH  37  40
ATOM     40  O   UNL     1       5.410  -7.640  28.526  0.00  0.00    -0.254 OA
ATOM     41  H   UNL     1       6.055  -8.245  28.092  0.00  0.00    +0.244 HD
ENDBRANCH  37  40
ENDBRANCH  36  37
ENDBRANCH  35  36
ENDBRANCH  32  35
ENDBRANCH  29  31
BRANCH  25  42
ATOM     42  C   UNL     1       6.463  -6.190  21.418  0.00  0.00    +0.212 C 
BRANCH  42  43
ATOM     43  O   UNL     1       5.829  -5.401  20.415  0.00  0.00    -0.389 OA
ATOM     44  H   UNL     1       4.988  -5.836  20.171  0.00  0.00    +0.210 HD
ENDBRANCH  42  43
ENDBRANCH  25  42
ENDBRANCH  23  24
ENDBRANCH   2  23
TORSDOF 16
ENDMDL
MODEL 8
REMARK VINA RESULT:      -6.4      2.848      4.529
REMARK  Name = 
REMARK  17 active torsions:
REMARK  status: ('A' for Active; 'I' for Inactive)
REMARK    1  A    between atoms: C_1  and  C_2
REMARK    2  A    between atoms: N_4  and  C_5
REMARK    3  A    between atoms: C_7  and  O_9
REMARK    4  A    between atoms: C_10  and  O_12
REMARK    5  A    between atoms: O_12  and  S_13
REMARK    6  A    between atoms: S_13  and  O_14
REMARK    7  A    between atoms: C_17  and  C_19
REMARK    8  A    between atoms: C_19  and  O_20
REMARK    9  A    between atoms: C_22  and  O_24
REMARK   10  A    between atoms: O_24  and  C_25
REMARK   11  A    between atoms: C_28  and  C_37
REMARK   12  A    between atoms: CA_33  and  C_35
REMARK   13  A    between atoms: C_35  and  O_36
REMARK   14  A    between atoms: N_39  and  C_40
REMARK   15  A    between atoms: C_40  and  C_41
REMARK   16  A    between atoms: C_41  and  S_42
REMARK   17  A    between atoms: S_42  and  O_43
REMARK                            x       y       z     vdW  Elec       q    Type
REMARK                         _______ _______ _______ _____ _____    ______ ____
ROOT
ATOM      1  C   UNL     1       7.407  -3.541  26.407  0.00  0.00    +0.160 C 
ATOM      2  C   UNL     1       8.106  -2.145  26.373  0.00  0.00    +0.274 C 
ATOM      3  O   UNL     1       8.507  -1.772  25.050  0.00  0.00    -0.341 OA
ATOM      4  C   UNL     1       9.435  -2.741  24.478  0.00  0.00    +0.180 C 
ATOM      5  C   UNL     1       8.769  -4.137  24.344  0.00  0.00    +0.213 C 
ATOM      6  C   UNL     1       8.338  -4.590  25.755  0.00  0.00    +0.173 C 
ENDROOT
BRANCH   1   9
ATOM      7  C   UNL     1       4.634  -3.864  27.699  0.00  0.00    +0.109 C 
ATOM      8  C   UNL     1       4.838  -3.649  26.232  0.00  0.00    +0.210 C 
ATOM      9  N   UNL     1       6.095  -3.526  25.744  0.00  0.00    -0.305 N 
ATOM     10  H   UNL     1       6.070  -3.376  24.741  0.00  0.00    +0.149 HD
ATOM     11  O   UNL     1       3.889  -3.599  25.453  0.00  0.00    -0.276 OA
ENDBRANCH   1   9
BRANCH   6  12
ATOM     12  O   UNL     1       9.457  -4.881  26.604  0.00  0.00    -0.387 OA
ATOM     13  H   UNL     1       9.652  -5.828  26.666  0.00  0.00    +0.210 HD
ENDBRANCH   6  12
BRANCH   4  14
ATOM     14  C   UNL     1       9.991  -2.199  23.153  0.00  0.00    +0.190 C 
BRANCH  14  15
ATOM     15  O   UNL     1       8.961  -1.908  22.223  0.00  0.00    -0.392 OA
ATOM     16  H   UNL     1       8.159  -2.355  22.552  0.00  0.00    +0.210 HD
ENDBRANCH  14  15
ENDBRANCH   4  14
BRANCH   5  17
ATOM     17  O   UNL     1       7.632  -4.012  23.480  0.00  0.00    -0.207 OA
BRANCH  17  18
ATOM     18  S   UNL     1       6.986  -5.339  22.772  0.00  0.00    +0.208 S 
ATOM     19  O   UNL     1       5.871  -5.774  23.591  0.00  0.00    -0.118 OA
ATOM     20  O   UNL     1       8.069  -6.210  22.405  0.00  0.00    -0.118 OA
BRANCH  18  21
ATOM     21  O   UNL     1       6.399  -4.716  21.418  0.00  0.00    -0.231 OA
ATOM     22  H   UNL     1       7.150  -4.530  20.808  0.00  0.00    +0.247 HD
ENDBRANCH  18  21
ENDBRANCH  17  18
ENDBRANCH   5  17
BRANCH   2  23
ATOM     23  O   UNL     1       7.264  -1.180  27.035  0.00  0.00    -0.340 OA
BRANCH  23  24
ATOM     24  C   UNL     1       7.002   0.044  26.341  0.00  0.00    +0.177 C 
ATOM     25  CA  UNL     1       6.927   1.329  27.224  0.00  0.00    +0.119 C 
ATOM     26  N   UNL     1       5.513   1.864  27.017  0.00  0.00    +0.241 N 
ATOM     27  H1  UNL     1       4.920   1.533  27.798  0.00  0.00    +0.203 HD
ATOM     28  H2  UNL     1       5.511   2.896  27.010  0.00  0.00    +0.203 HD
ATOM     29  C   UNL     1       5.023   1.337  25.697  0.00  0.00    +0.153 C 
ATOM     30  C   UNL     1       5.595  -0.066  25.706  0.00  0.00    +0.101 C 
BRANCH  29  31
ATOM     31  C   UNL     1       5.515   2.269  24.570  0.00  0.00    +0.261 C 
ATOM     32  N   UNL     1       5.921   1.691  23.398  0.00  0.00    -0.309 N 
ATOM     33  H   UNL     1       5.755   0.703  23.226  0.00  0.00    +0.149 HD
ATOM     34  O   UNL     1       5.522   3.487  24.759  0.00  0.00    -0.270 OA
BRANCH  32  35
ATOM     35  C   UNL     1       6.486   2.460  22.291  0.00  0.00    +0.129 C 
BRANCH  35  36
ATOM     36  C   UNL     1       7.909   2.971  22.492  0.00  0.00    +0.216 C 
BRANCH  36  37
ATOM     37  S   UNL     1       9.144   1.704  22.300  0.00  0.00    +0.081 S 
ATOM     38  O   UNL     1      10.460   2.293  22.439  0.00  0.00    -0.147 OA
ATOM     39  O   UNL     1       8.791   0.867  21.178  0.00  0.00    -0.147 OA
BRANCH  37  40
ATOM     40  O   UNL     1       8.814   0.845  23.625  0.00  0.00    -0.254 OA
ATOM     41  H   UNL     1       7.849   0.649  23.635  0.00  0.00    +0.244 HD
ENDBRANCH  37  40
ENDBRANCH  36  37
ENDBRANCH  35  36
ENDBRANCH  32  35
ENDBRANCH  29  31
BRANCH  25  42
ATOM     42  C   UNL     1       7.068   1.180  28.739  0.00  0.00    +0.212 C 
BRANCH  42  43
ATOM     43  O   UNL     1       8.360   0.654  29.032  0.00  0.00    -0.389 OA
ATOM     44  H   UNL     1       8.369  -0.292  28.782  0.00  0.00    +0.210 HD
ENDBRANCH  42  43
ENDBRANCH  25  42
ENDBRANCH  23  24
ENDBRANCH   2  23
TORSDOF 16
ENDMDL
MODEL 9
REMARK VINA RESULT:      -6.4      1.789      2.318
REMARK  Name = 
REMARK  17 active torsions:
REMARK  status: ('A' for Active; 'I' for Inactive)
REMARK    1  A    between atoms: C_1  and  C_2
REMARK    2  A    between atoms: N_4  and  C_5
REMARK    3  A    between atoms: C_7  and  O_9
REMARK    4  A    between atoms: C_10  and  O_12
REMARK    5  A    between atoms: O_12  and  S_13
REMARK    6  A    between atoms: S_13  and  O_14
REMARK    7  A    between atoms: C_17  and  C_19
REMARK    8  A    between atoms: C_19  and  O_20
REMARK    9  A    between atoms: C_22  and  O_24
REMARK   10  A    between atoms: O_24  and  C_25
REMARK   11  A    between atoms: C_28  and  C_37
REMARK   12  A    between atoms: CA_33  and  C_35
REMARK   13  A    between atoms: C_35  and  O_36
REMARK   14  A    between atoms: N_39  and  C_40
REMARK   15  A    between atoms: C_40  and  C_41
REMARK   16  A    between atoms: C_41  and  S_42
REMARK   17  A    between atoms: S_42  and  O_43
REMARK                            x       y       z     vdW  Elec       q    Type
REMARK                         _______ _______ _______ _____ _____    ______ ____
ROOT
ATOM      1  C   UNL     1       7.631  -3.625  25.600  0.00  0.00    +0.160 C 
ATOM      2  C   UNL     1       7.766  -2.326  24.744  0.00  0.00    +0.274 C 
ATOM      3  O   UNL     1       6.813  -2.279  23.677  0.00  0.00    -0.341 OA
ATOM      4  C   UNL     1       6.962  -3.416  22.774  0.00  0.00    +0.180 C 
ATOM      5  C   UNL     1       6.704  -4.754  23.518  0.00  0.00    +0.213 C 
ATOM      6  C   UNL     1       7.727  -4.857  24.670  0.00  0.00    +0.173 C 
ENDROOT
BRANCH   1   9
ATOM      7  C   UNL     1       6.816  -5.633  27.784  0.00  0.00    +0.109 C 
ATOM      8  C   UNL     1       5.953  -4.489  27.354  0.00  0.00    +0.210 C 
ATOM      9  N   UNL     1       6.384  -3.656  26.378  0.00  0.00    -0.305 N 
ATOM     10  H   UNL     1       5.698  -2.930  26.206  0.00  0.00    +0.149 HD
ATOM     11  O   UNL     1       4.848  -4.296  27.857  0.00  0.00    -0.276 OA
ENDBRANCH   1   9
BRANCH   6  12
ATOM     12  O   UNL     1       9.068  -5.040  24.197  0.00  0.00    -0.387 OA
ATOM     13  H   UNL     1       9.207  -4.701  23.300  0.00  0.00    +0.210 HD
ENDBRANCH   6  12
BRANCH   4  14
ATOM     14  C   UNL     1       6.064  -3.217  21.545  0.00  0.00    +0.190 C 
BRANCH  14  15
ATOM     15  O   UNL     1       5.749  -4.445  20.911  0.00  0.00    -0.392 OA
ATOM     16  H   UNL     1       5.029  -4.847  21.433  0.00  0.00    +0.210 HD
ENDBRANCH  14  15
ENDBRANCH   4  14
BRANCH   5  17
ATOM     17  O   UNL     1       5.365  -4.735  24.028  0.00  0.00    -0.207 OA
BRANCH  17  18
ATOM     18  S   UNL     1       4.323  -5.940  23.652  0.00  0.00    +0.208 S 
ATOM     19  O   UNL     1       3.182  -5.342  22.986  0.00  0.00    -0.118 OA
ATOM     20  O   UNL     1       4.194  -6.783  24.811  0.00  0.00    -0.118 OA
BRANCH  18  21
ATOM     21  O   UNL     1       5.168  -6.757  22.564  0.00  0.00    -0.231 OA
ATOM     22  H   UNL     1       5.658  -6.113  22.002  0.00  0.00    +0.247 HD
ENDBRANCH  18  21
ENDBRANCH  17  18
ENDBRANCH   5  17
BRANCH   2  23
ATOM     23  O   UNL     1       7.737  -1.181  25.620  0.00  0.00    -0.340 OA
BRANCH  23  24
ATOM     24  C   UNL     1       8.514  -0.043  25.232  0.00  0.00    +0.177 C 
ATOM     25  CA  UNL     1       7.710   1.251  24.893  0.00  0.00    +0.119 C 
ATOM     26  N   UNL     1       8.048   1.552  23.436  0.00  0.00    +0.241 N 
ATOM     27  H1  UNL     1       7.295   1.166  22.840  0.00  0.00    +0.203 HD
ATOM     28  H2  UNL     1       8.111   2.570  23.279  0.00  0.00    +0.203 HD
ATOM     29  C   UNL     1       9.369   0.900  23.139  0.00  0.00    +0.153 C 
ATOM     30  C   UNL     1       9.243  -0.396  23.914  0.00  0.00    +0.101 C 
BRANCH  29  31
ATOM     31  C   UNL     1      10.507   1.848  23.574  0.00  0.00    +0.261 C 
ATOM     32  N   UNL     1      10.471   3.137  23.116  0.00  0.00    -0.309 N 
ATOM     33  H   UNL     1       9.646   3.492  22.640  0.00  0.00    +0.149 HD
ATOM     34  O   UNL     1      11.395   1.420  24.313  0.00  0.00    -0.270 OA
BRANCH  32  35
ATOM     35  C   UNL     1      11.532   4.103  23.389  0.00  0.00    +0.129 C 
BRANCH  35  36
ATOM     36  C   UNL     1      11.089   5.552  23.557  0.00  0.00    +0.216 C 
BRANCH  36  37
ATOM     37  S   UNL     1       9.387   5.713  24.049  0.00  0.00    +0.081 S 
ATOM     38  O   UNL     1       9.093   7.108  24.309  0.00  0.00    -0.147 OA
ATOM     39  O   UNL     1       9.069   4.672  24.998  0.00  0.00    -0.147 OA
BRANCH  37  40
ATOM     40  O   UNL     1       8.692   5.283  22.659  0.00  0.00    -0.254 OA
ATOM     41  H   UNL     1       8.886   5.978  21.988  0.00  0.00    +0.244 HD
ENDBRANCH  37  40
ENDBRANCH  36  37
ENDBRANCH  35  36
ENDBRANCH  32  35
ENDBRANCH  29  31
BRANCH  25  42
ATOM     42  C   UNL     1       6.182   1.190  24.933  0.00  0.00    +0.212 C 
BRANCH  42  43
ATOM     43  O   UNL     1       5.727   0.337  23.886  0.00  0.00    -0.389 OA
ATOM     44  H   UNL     1       6.460   0.218  23.249  0.00  0.00    +0.210 HD
ENDBRANCH  42  43
ENDBRANCH  25  42
ENDBRANCH  23  24
ENDBRANCH   2  23
TORSDOF 16
ENDMDL
