MODEL 1
REMARK VINA RESULT:      -7.6      0.000      0.000
REMARK  Name = 
REMARK  9 active torsions:
REMARK  status: ('A' for Active; 'I' for Inactive)
REMARK    1  A    between atoms: C_2  and  O_3
REMARK    2  A    between atoms: C_2  and  C_4
REMARK    3  A    between atoms: C_2  and  C_6
REMARK    4  A    between atoms: C_4  and  O_5
REMARK    5  A    between atoms: C_6  and  N_7
REMARK    6  A    between atoms: N_7  and  C_8
REMARK    7  A    between atoms: C_12  and  C_14
REMARK    8  A    between atoms: C_15  and  C_21
REMARK    9  A    between atoms: N_23  and  C_24
REMARK                            x       y       z     vdW  Elec       q    Type
REMARK                         _______ _______ _______ _____ _____    ______ ____
ROOT
ATOM      1  C   UNL     1       6.486   0.522  24.519  0.00  0.00    +0.057 C 
ATOM      2  C   UNL     1       5.434   1.443  25.003  0.00  0.00    +0.252 C 
ATOM      3  O   UNL     1       5.257   2.592  24.638  0.00  0.00    -0.270 OA
ATOM      4  N   UNL     1       4.682   0.769  25.885  0.00  0.00    -0.248 N 
ATOM      5  H   UNL     1       3.818   1.128  26.253  0.00  0.00    +0.158 HD
ATOM      6  C   UNL     1       4.951  -0.546  25.784  0.00  0.00    +0.252 C 
ATOM      7  O   UNL     1       4.200  -1.431  26.150  0.00  0.00    -0.270 OA
ATOM      8  C   UNL     1       6.232  -0.698  25.038  0.00  0.00    +0.059 C 
ENDROOT
BRANCH   8   9
ATOM      9  C   UNL     1       6.976  -1.919  24.941  0.00  0.00    +0.013 A 
ATOM     10  C   UNL     1       6.947  -2.940  23.920  0.00  0.00    +0.010 A 
ATOM     11  C   UNL     1       7.759  -3.995  24.367  0.00  0.00    +0.050 A 
ATOM     12  C   UNL     1       7.949  -5.180  23.629  0.00  0.00    +0.029 A 
ATOM     13  C   UNL     1       7.322  -5.295  22.390  0.00  0.00    +0.040 A 
ATOM     14  C   UNL     1       6.517  -4.268  21.926  0.00  0.00    +0.124 A 
ATOM     15  F   UNL     1       5.926  -4.393  20.728  0.00  0.00    -0.205 F 
ATOM     16  N   UNL     1       8.252  -3.627  25.598  0.00  0.00    -0.349 N 
ATOM     17  C   UNL     1       8.997  -4.488  26.489  0.00  0.00    +0.149 C 
ATOM     18  C   UNL     1       6.301  -3.108  22.673  0.00  0.00    +0.049 A 
ATOM     19  C   UNL     1       7.875  -2.347  25.897  0.00  0.00    +0.095 A 
ENDBRANCH   8   9
BRANCH   1  22
ATOM     20  C   UNL     1       9.582   2.399  23.416  0.00  0.00    +0.028 A 
ATOM     21  C   UNL     1       8.444   2.007  24.142  0.00  0.00    +0.031 A 
ATOM     22  C   UNL     1       7.570   1.014  23.665  0.00  0.00    -0.010 A 
ATOM     23  C   UNL     1       7.811   0.434  22.418  0.00  0.00    +0.009 A 
ATOM     24  C   UNL     1       8.908   0.844  21.664  0.00  0.00    +0.002 A 
ATOM     25  C   UNL     1       9.775   1.825  22.155  0.00  0.00    +0.023 A 
BRANCH  20  26
ATOM     26  N   UNL     1      10.410   3.391  23.961  0.00  0.00    -0.341 N 
ATOM     27  H   UNL     1      10.561   3.214  24.959  0.00  0.00    +0.146 HD
BRANCH  26  28
ATOM     28  C   UNL     1      11.686   3.699  23.304  0.00  0.00    +0.135 C 
BRANCH  28  29
ATOM     29  C   UNL     1      11.980   5.208  23.321  0.00  0.00    +0.157 C 
BRANCH  29  30
ATOM     30  O   UNL     1      10.833   5.940  22.860  0.00  0.00    -0.388 OA
ATOM     31  H   UNL     1      11.156   6.500  22.130  0.00  0.00    +0.210 HD
ENDBRANCH  29  30
BRANCH  29  32
ATOM     32  C   UNL     1      13.193   5.586  22.470  0.00  0.00    +0.188 C 
BRANCH  32  33
ATOM     33  O   UNL     1      14.381   5.109  23.112  0.00  0.00    -0.392 OA
ATOM     34  H   UNL     1      14.728   4.393  22.550  0.00  0.00    +0.210 HD
ENDBRANCH  32  33
ENDBRANCH  29  32
ENDBRANCH  28  29
ENDBRANCH  26  28
ENDBRANCH  20  26
ENDBRANCH   1  22
TORSDOF 8
ENDMDL
MODEL 2
REMARK VINA RESULT:      -7.6      3.843      5.799
REMARK  Name = 
REMARK  9 active torsions:
REMARK  status: ('A' for Active; 'I' for Inactive)
REMARK    1  A    between atoms: C_2  and  O_3
REMARK    2  A    between atoms: C_2  and  C_4
REMARK    3  A    between atoms: C_2  and  C_6
REMARK    4  A    between atoms: C_4  and  O_5
REMARK    5  A    between atoms: C_6  and  N_7
REMARK    6  A    between atoms: N_7  and  C_8
REMARK    7  A    between atoms: C_12  and  C_14
REMARK    8  A    between atoms: C_15  and  C_21
REMARK    9  A    between atoms: N_23  and  C_24
REMARK                            x       y       z     vdW  Elec       q    Type
REMARK                         _______ _______ _______ _____ _____    ______ ____
ROOT
ATOM      1  C   UNL     1       6.392  -4.930  23.375  0.00  0.00    +0.057 C 
ATOM      2  C   UNL     1       6.250  -5.787  22.176  0.00  0.00    +0.252 C 
ATOM      3  O   UNL     1       7.097  -5.981  21.323  0.00  0.00    -0.270 OA
ATOM      4  N   UNL     1       5.032  -6.346  22.223  0.00  0.00    -0.248 N 
ATOM      5  H   UNL     1       4.742  -7.078  21.597  0.00  0.00    +0.158 HD
ATOM      6  C   UNL     1       4.514  -6.182  23.455  0.00  0.00    +0.252 C 
ATOM      7  O   UNL     1       3.632  -6.873  23.927  0.00  0.00    -0.270 OA
ATOM      8  C   UNL     1       5.301  -5.123  24.147  0.00  0.00    +0.059 C 
ENDROOT
BRANCH   8   9
ATOM      9  C   UNL     1       4.913  -4.491  25.373  0.00  0.00    +0.013 A 
ATOM     10  C   UNL     1       5.186  -4.874  26.738  0.00  0.00    +0.010 A 
ATOM     11  C   UNL     1       4.462  -4.002  27.566  0.00  0.00    +0.050 A 
ATOM     12  C   UNL     1       4.473  -4.095  28.972  0.00  0.00    +0.029 A 
ATOM     13  C   UNL     1       5.259  -5.083  29.562  0.00  0.00    +0.040 A 
ATOM     14  C   UNL     1       5.983  -5.955  28.768  0.00  0.00    +0.124 A 
ATOM     15  F   UNL     1       6.739  -6.897  29.354  0.00  0.00    -0.205 F 
ATOM     16  N   UNL     1       3.785  -3.135  26.739  0.00  0.00    -0.349 N 
ATOM     17  C   UNL     1       2.789  -2.179  27.169  0.00  0.00    +0.149 C 
ATOM     18  C   UNL     1       5.945  -5.885  27.373  0.00  0.00    +0.049 A 
ATOM     19  C   UNL     1       4.133  -3.352  25.435  0.00  0.00    +0.095 A 
ENDBRANCH   8   9
BRANCH   1  22
ATOM     20  C   UNL     1       8.597  -1.864  23.139  0.00  0.00    +0.028 A 
ATOM     21  C   UNL     1       7.572  -2.794  22.899  0.00  0.00    +0.031 A 
ATOM     22  C   UNL     1       7.555  -4.052  23.527  0.00  0.00    -0.010 A 
ATOM     23  C   UNL     1       8.607  -4.407  24.375  0.00  0.00    +0.009 A 
ATOM     24  C   UNL     1       9.655  -3.514  24.587  0.00  0.00    +0.002 A 
ATOM     25  C   UNL     1       9.654  -2.262  23.965  0.00  0.00    +0.023 A 
BRANCH  20  26
ATOM     26  N   UNL     1       8.541  -0.626  22.480  0.00  0.00    -0.341 N 
ATOM     27  H   UNL     1       7.919   0.012  22.984  0.00  0.00    +0.146 HD
BRANCH  26  28
ATOM     28  C   UNL     1       9.793   0.057  22.132  0.00  0.00    +0.135 C 
BRANCH  28  29
ATOM     29  C   UNL     1       9.803   1.509  22.638  0.00  0.00    +0.157 C 
BRANCH  29  30
ATOM     30  O   UNL     1      10.382   2.373  21.646  0.00  0.00    -0.388 OA
ATOM     31  H   UNL     1      11.045   2.907  22.121  0.00  0.00    +0.210 HD
ENDBRANCH  29  30
BRANCH  29  32
ATOM     32  C   UNL     1      10.561   1.675  23.955  0.00  0.00    +0.188 C 
BRANCH  32  33
ATOM     33  O   UNL     1       9.778   1.121  25.018  0.00  0.00    -0.392 OA
ATOM     34  H   UNL     1       9.000   1.698  25.115  0.00  0.00    +0.210 HD
ENDBRANCH  32  33
ENDBRANCH  29  32
ENDBRANCH  28  29
ENDBRANCH  26  28
ENDBRANCH  20  26
ENDBRANCH   1  22
TORSDOF 8
ENDMDL
MODEL 3
REMARK VINA RESULT:      -7.5      3.197      5.368
REMARK  Name = 
REMARK  9 active torsions:
REMARK  status: ('A' for Active; 'I' for Inactive)
REMARK    1  A    between atoms: C_2  and  O_3
REMARK    2  A    between atoms: C_2  and  C_4
REMARK    3  A    between atoms: C_2  and  C_6
REMARK    4  A    between atoms: C_4  and  O_5
REMARK    5  A    between atoms: C_6  and  N_7
REMARK    6  A    between atoms: N_7  and  C_8
REMARK    7  A    between atoms: C_12  and  C_14
REMARK    8  A    between atoms: C_15  and  C_21
REMARK    9  A    between atoms: N_23  and  C_24
REMARK                            x       y       z     vdW  Elec       q    Type
REMARK                         _______ _______ _______ _____ _____    ______ ____
ROOT
ATOM      1  C   UNL     1       8.224  -3.876  25.301  0.00  0.00    +0.057 C 
ATOM      2  C   UNL     1       9.131  -5.015  25.569  0.00  0.00    +0.252 C 
ATOM      3  O   UNL     1      10.230  -5.194  25.074  0.00  0.00    -0.270 OA
ATOM      4  N   UNL     1       8.542  -5.792  26.489  0.00  0.00    -0.248 N 
ATOM      5  H   UNL     1       9.013  -6.555  26.943  0.00  0.00    +0.158 HD
ATOM      6  C   UNL     1       7.518  -5.120  27.048  0.00  0.00    +0.252 C 
ATOM      7  O   UNL     1       7.041  -5.378  28.137  0.00  0.00    -0.270 OA
ATOM      8  C   UNL     1       7.195  -3.959  26.171  0.00  0.00    +0.059 C 
ENDROOT
BRANCH   8   9
ATOM      9  C   UNL     1       6.018  -3.152  26.292  0.00  0.00    +0.013 A 
ATOM     10  C   UNL     1       5.885  -1.759  26.650  0.00  0.00    +0.010 A 
ATOM     11  C   UNL     1       4.511  -1.489  26.762  0.00  0.00    +0.050 A 
ATOM     12  C   UNL     1       4.006  -0.224  27.122  0.00  0.00    +0.029 A 
ATOM     13  C   UNL     1       4.913   0.809  27.349  0.00  0.00    +0.040 A 
ATOM     14  C   UNL     1       6.273   0.570  27.244  0.00  0.00    +0.124 A 
ATOM     15  F   UNL     1       7.131   1.577  27.462  0.00  0.00    -0.205 F 
ATOM     16  N   UNL     1       3.849  -2.664  26.486  0.00  0.00    -0.349 N 
ATOM     17  C   UNL     1       2.429  -2.879  26.649  0.00  0.00    +0.149 C 
ATOM     18  C   UNL     1       6.775  -0.694  26.922  0.00  0.00    +0.049 A 
ATOM     19  C   UNL     1       4.737  -3.630  26.100  0.00  0.00    +0.095 A 
ENDBRANCH   8   9
BRANCH   1  22
ATOM     20  C   UNL     1       9.827  -1.037  23.379  0.00  0.00    +0.028 A 
ATOM     21  C   UNL     1       9.409  -1.871  24.430  0.00  0.00    +0.031 A 
ATOM     22  C   UNL     1       8.514  -2.934  24.217  0.00  0.00    -0.010 A 
ATOM     23  C   UNL     1       7.989  -3.140  22.938  0.00  0.00    +0.009 A 
ATOM     24  C   UNL     1       8.358  -2.294  21.895  0.00  0.00    +0.002 A 
ATOM     25  C   UNL     1       9.257  -1.247  22.119  0.00  0.00    +0.023 A 
BRANCH  20  26
ATOM     26  N   UNL     1      10.729  -0.002  23.670  0.00  0.00    -0.341 N 
ATOM     27  H   UNL     1      10.991   0.488  22.810  0.00  0.00    +0.146 HD
BRANCH  26  28
ATOM     28  C   UNL     1      10.390   0.967  24.720  0.00  0.00    +0.135 C 
BRANCH  28  29
ATOM     29  C   UNL     1       9.793   2.255  24.128  0.00  0.00    +0.157 C 
BRANCH  29  30
ATOM     30  O   UNL     1       8.449   2.014  23.678  0.00  0.00    -0.388 OA
ATOM     31  H   UNL     1       7.930   2.779  23.988  0.00  0.00    +0.210 HD
ENDBRANCH  29  30
BRANCH  29  32
ATOM     32  C   UNL     1      10.619   2.815  22.971  0.00  0.00    +0.188 C 
BRANCH  32  33
ATOM     33  O   UNL     1      10.165   2.228  21.746  0.00  0.00    -0.392 OA
ATOM     34  H   UNL     1       9.486   1.574  21.989  0.00  0.00    +0.210 HD
ENDBRANCH  32  33
ENDBRANCH  29  32
ENDBRANCH  28  29
ENDBRANCH  26  28
ENDBRANCH  20  26
ENDBRANCH   1  22
TORSDOF 8
ENDMDL
MODEL 4
REMARK VINA RESULT:      -7.4      3.176      4.940
REMARK  Name = 
REMARK  9 active torsions:
REMARK  status: ('A' for Active; 'I' for Inactive)
REMARK    1  A    between atoms: C_2  and  O_3
REMARK    2  A    between atoms: C_2  and  C_4
REMARK    3  A    between atoms: C_2  and  C_6
REMARK    4  A    between atoms: C_4  and  O_5
REMARK    5  A    between atoms: C_6  and  N_7
REMARK    6  A    between atoms: N_7  and  C_8
REMARK    7  A    between atoms: C_12  and  C_14
REMARK    8  A    between atoms: C_15  and  C_21
REMARK    9  A    between atoms: N_23  and  C_24
REMARK                            x       y       z     vdW  Elec       q    Type
REMARK                         _______ _______ _______ _____ _____    ______ ____
ROOT
ATOM      1  C   UNL     1       8.137  -4.031  25.308  0.00  0.00    +0.057 C 
ATOM      2  C   UNL     1       9.199  -5.031  25.557  0.00  0.00    +0.252 C 
ATOM      3  O   UNL     1      10.318  -5.031  25.076  0.00  0.00    -0.270 OA
ATOM      4  N   UNL     1       8.720  -5.915  26.444  0.00  0.00    -0.248 N 
ATOM      5  H   UNL     1       9.294  -6.614  26.883  0.00  0.00    +0.158 HD
ATOM      6  C   UNL     1       7.602  -5.419  27.006  0.00  0.00    +0.252 C 
ATOM      7  O   UNL     1       7.155  -5.779  28.078  0.00  0.00    -0.270 OA
ATOM      8  C   UNL     1       7.122  -4.292  26.158  0.00  0.00    +0.059 C 
ENDROOT
BRANCH   8   9
ATOM      9  C   UNL     1       5.836  -3.671  26.283  0.00  0.00    +0.013 A 
ATOM     10  C   UNL     1       4.563  -4.061  25.724  0.00  0.00    +0.010 A 
ATOM     11  C   UNL     1       3.648  -3.040  26.027  0.00  0.00    +0.050 A 
ATOM     12  C   UNL     1       2.300  -3.073  25.617  0.00  0.00    +0.029 A 
ATOM     13  C   UNL     1       1.855  -4.182  24.900  0.00  0.00    +0.040 A 
ATOM     14  C   UNL     1       2.738  -5.203  24.589  0.00  0.00    +0.124 A 
ATOM     15  F   UNL     1       2.290  -6.266  23.903  0.00  0.00    -0.205 F 
ATOM     16  N   UNL     1       4.337  -2.081  26.734  0.00  0.00    -0.349 N 
ATOM     17  C   UNL     1       3.819  -0.782  27.101  0.00  0.00    +0.149 C 
ATOM     18  C   UNL     1       4.082  -5.154  24.966  0.00  0.00    +0.049 A 
ATOM     19  C   UNL     1       5.615  -2.501  26.982  0.00  0.00    +0.095 A 
ENDBRANCH   8   9
BRANCH   1  22
ATOM     20  C   UNL     1       9.414  -0.992  23.450  0.00  0.00    +0.028 A 
ATOM     21  C   UNL     1       9.115  -1.901  24.478  0.00  0.00    +0.031 A 
ATOM     22  C   UNL     1       8.298  -3.023  24.257  0.00  0.00    -0.010 A 
ATOM     23  C   UNL     1       7.729  -3.215  22.995  0.00  0.00    +0.009 A 
ATOM     24  C   UNL     1       7.978  -2.298  21.977  0.00  0.00    +0.002 A 
ATOM     25  C   UNL     1       8.801  -1.193  22.208  0.00  0.00    +0.023 A 
BRANCH  20  26
ATOM     26  N   UNL     1      10.244   0.100  23.747  0.00  0.00    -0.341 N 
ATOM     27  H   UNL     1      10.598   0.518  22.882  0.00  0.00    +0.146 HD
BRANCH  26  28
ATOM     28  C   UNL     1       9.752   1.147  24.650  0.00  0.00    +0.135 C 
BRANCH  28  29
ATOM     29  C   UNL     1       9.715   2.520  23.956  0.00  0.00    +0.157 C 
BRANCH  29  30
ATOM     30  O   UNL     1       8.992   3.462  24.765  0.00  0.00    -0.388 OA
ATOM     31  H   UNL     1       9.608   3.722  25.475  0.00  0.00    +0.210 HD
ENDBRANCH  29  30
BRANCH  29  32
ATOM     32  C   UNL     1       9.084   2.464  22.565  0.00  0.00    +0.188 C 
BRANCH  32  33
ATOM     33  O   UNL     1      10.113   2.240  21.594  0.00  0.00    -0.392 OA
ATOM     34  H   UNL     1      10.065   1.297  21.355  0.00  0.00    +0.210 HD
ENDBRANCH  32  33
ENDBRANCH  29  32
ENDBRANCH  28  29
ENDBRANCH  26  28
ENDBRANCH  20  26
ENDBRANCH   1  22
TORSDOF 8
ENDMDL
MODEL 5
REMARK VINA RESULT:      -7.3      3.583      5.608
REMARK  Name = 
REMARK  9 active torsions:
REMARK  status: ('A' for Active; 'I' for Inactive)
REMARK    1  A    between atoms: C_2  and  O_3
REMARK    2  A    between atoms: C_2  and  C_4
REMARK    3  A    between atoms: C_2  and  C_6
REMARK    4  A    between atoms: C_4  and  O_5
REMARK    5  A    between atoms: C_6  and  N_7
REMARK    6  A    between atoms: N_7  and  C_8
REMARK    7  A    between atoms: C_12  and  C_14
REMARK    8  A    between atoms: C_15  and  C_21
REMARK    9  A    between atoms: N_23  and  C_24
REMARK                            x       y       z     vdW  Elec       q    Type
REMARK                         _______ _______ _______ _____ _____    ______ ____
ROOT
ATOM      1  C   UNL     1       6.439  -5.148  23.502  0.00  0.00    +0.057 C 
ATOM      2  C   UNL     1       6.121  -5.736  22.182  0.00  0.00    +0.252 C 
ATOM      3  O   UNL     1       6.812  -5.677  21.181  0.00  0.00    -0.270 OA
ATOM      4  N   UNL     1       4.953  -6.384  22.301  0.00  0.00    -0.248 N 
ATOM      5  H   UNL     1       4.586  -6.984  21.583  0.00  0.00    +0.158 HD
ATOM      6  C   UNL     1       4.654  -6.527  23.605  0.00  0.00    +0.252 C 
ATOM      7  O   UNL     1       3.896  -7.368  24.048  0.00  0.00    -0.270 OA
ATOM      8  C   UNL     1       5.509  -5.584  24.379  0.00  0.00    +0.059 C 
ENDROOT
BRANCH   8   9
ATOM      9  C   UNL     1       5.319  -5.261  25.762  0.00  0.00    +0.013 A 
ATOM     10  C   UNL     1       4.940  -4.009  26.375  0.00  0.00    +0.010 A 
ATOM     11  C   UNL     1       5.031  -4.185  27.766  0.00  0.00    +0.050 A 
ATOM     12  C   UNL     1       4.753  -3.156  28.687  0.00  0.00    +0.029 A 
ATOM     13  C   UNL     1       4.345  -1.919  28.193  0.00  0.00    +0.040 A 
ATOM     14  C   UNL     1       4.247  -1.720  26.826  0.00  0.00    +0.124 A 
ATOM     15  F   UNL     1       3.847  -0.524  26.368  0.00  0.00    -0.205 F 
ATOM     16  N   UNL     1       5.445  -5.480  27.979  0.00  0.00    -0.349 N 
ATOM     17  C   UNL     1       5.827  -6.033  29.259  0.00  0.00    +0.149 C 
ATOM     18  C   UNL     1       4.556  -2.729  25.911  0.00  0.00    +0.049 A 
ATOM     19  C   UNL     1       5.515  -6.158  26.793  0.00  0.00    +0.095 A 
ENDBRANCH   8   9
BRANCH   1  22
ATOM     20  C   UNL     1       8.534  -2.002  23.319  0.00  0.00    +0.028 A 
ATOM     21  C   UNL     1       7.534  -2.958  23.072  0.00  0.00    +0.031 A 
ATOM     22  C   UNL     1       7.576  -4.236  23.655  0.00  0.00    -0.010 A 
ATOM     23  C   UNL     1       8.661  -4.584  24.463  0.00  0.00    +0.009 A 
ATOM     24  C   UNL     1       9.684  -3.664  24.680  0.00  0.00    +0.002 A 
ATOM     25  C   UNL     1       9.625  -2.393  24.103  0.00  0.00    +0.023 A 
BRANCH  20  26
ATOM     26  N   UNL     1       8.419  -0.745  22.706  0.00  0.00    -0.341 N 
ATOM     27  H   UNL     1       7.882  -0.111  23.304  0.00  0.00    +0.146 HD
BRANCH  26  28
ATOM     28  C   UNL     1       9.630  -0.074  22.217  0.00  0.00    +0.135 C 
BRANCH  28  29
ATOM     29  C   UNL     1       9.695   1.388  22.689  0.00  0.00    +0.157 C 
BRANCH  29  30
ATOM     30  O   UNL     1      10.228   2.221  21.645  0.00  0.00    -0.388 OA
ATOM     31  H   UNL     1       9.916   3.122  21.846  0.00  0.00    +0.210 HD
ENDBRANCH  29  30
BRANCH  29  32
ATOM     32  C   UNL     1      10.535   1.567  23.953  0.00  0.00    +0.188 C 
BRANCH  32  33
ATOM     33  O   UNL     1       9.821   1.027  25.070  0.00  0.00    -0.392 OA
ATOM     34  H   UNL     1       9.231   0.339  24.712  0.00  0.00    +0.210 HD
ENDBRANCH  32  33
ENDBRANCH  29  32
ENDBRANCH  28  29
ENDBRANCH  26  28
ENDBRANCH  20  26
ENDBRANCH   1  22
TORSDOF 8
ENDMDL
MODEL 6
REMARK VINA RESULT:      -7.2      2.499      3.230
REMARK  Name = 
REMARK  9 active torsions:
REMARK  status: ('A' for Active; 'I' for Inactive)
REMARK    1  A    between atoms: C_2  and  O_3
REMARK    2  A    between atoms: C_2  and  C_4
REMARK    3  A    between atoms: C_2  and  C_6
REMARK    4  A    between atoms: C_4  and  O_5
REMARK    5  A    between atoms: C_6  and  N_7
REMARK    6  A    between atoms: N_7  and  C_8
REMARK    7  A    between atoms: C_12  and  C_14
REMARK    8  A    between atoms: C_15  and  C_21
REMARK    9  A    between atoms: N_23  and  C_24
REMARK                            x       y       z     vdW  Elec       q    Type
REMARK                         _______ _______ _______ _____ _____    ______ ____
ROOT
ATOM      1  C   UNL     1       7.242   0.330  26.079  0.00  0.00    +0.057 C 
ATOM      2  C   UNL     1       6.816   1.170  27.220  0.00  0.00    +0.252 C 
ATOM      3  O   UNL     1       7.196   2.301  27.465  0.00  0.00    -0.270 OA
ATOM      4  N   UNL     1       5.902   0.475  27.913  0.00  0.00    -0.248 N 
ATOM      5  H   UNL     1       5.357   0.878  28.655  0.00  0.00    +0.158 HD
ATOM      6  C   UNL     1       5.484  -0.570  27.174  0.00  0.00    +0.252 C 
ATOM      7  O   UNL     1       4.428  -1.150  27.340  0.00  0.00    -0.270 OA
ATOM      8  C   UNL     1       6.464  -0.774  26.071  0.00  0.00    +0.059 C 
ENDROOT
BRANCH   8   9
ATOM      9  C   UNL     1       6.506  -1.929  25.223  0.00  0.00    +0.013 A 
ATOM     10  C   UNL     1       7.438  -3.032  25.209  0.00  0.00    +0.010 A 
ATOM     11  C   UNL     1       7.122  -3.827  24.096  0.00  0.00    +0.050 A 
ATOM     12  C   UNL     1       7.844  -4.988  23.754  0.00  0.00    +0.029 A 
ATOM     13  C   UNL     1       8.902  -5.373  24.575  0.00  0.00    +0.040 A 
ATOM     14  C   UNL     1       9.233  -4.607  25.680  0.00  0.00    +0.124 A 
ATOM     15  F   UNL     1      10.251  -4.997  26.462  0.00  0.00    -0.205 F 
ATOM     16  N   UNL     1       6.051  -3.231  23.470  0.00  0.00    -0.349 N 
ATOM     17  C   UNL     1       5.509  -3.626  22.189  0.00  0.00    +0.149 C 
ATOM     18  C   UNL     1       8.539  -3.437  25.999  0.00  0.00    +0.049 A 
ATOM     19  C   UNL     1       5.612  -2.159  24.196  0.00  0.00    +0.095 A 
ENDBRANCH   8   9
BRANCH   1  22
ATOM     20  C   UNL     1       9.273   2.337  23.596  0.00  0.00    +0.028 A 
ATOM     21  C   UNL     1       8.192   1.811  24.322  0.00  0.00    +0.031 A 
ATOM     22  C   UNL     1       8.357   0.746  25.225  0.00  0.00    -0.010 A 
ATOM     23  C   UNL     1       9.619   0.163  25.370  0.00  0.00    +0.009 A 
ATOM     24  C   UNL     1      10.692   0.643  24.623  0.00  0.00    +0.002 A 
ATOM     25  C   UNL     1      10.516   1.709  23.737  0.00  0.00    +0.023 A 
BRANCH  20  26
ATOM     26  N   UNL     1       9.030   3.405  22.719  0.00  0.00    -0.341 N 
ATOM     27  H   UNL     1       9.525   3.255  21.836  0.00  0.00    +0.146 HD
BRANCH  26  28
ATOM     28  C   UNL     1       7.644   3.815  22.459  0.00  0.00    +0.135 C 
BRANCH  28  29
ATOM     29  C   UNL     1       7.463   5.332  22.631  0.00  0.00    +0.157 C 
BRANCH  29  30
ATOM     30  O   UNL     1       7.572   5.990  21.358  0.00  0.00    -0.388 OA
ATOM     31  H   UNL     1       7.971   6.860  21.547  0.00  0.00    +0.210 HD
ENDBRANCH  29  30
BRANCH  29  32
ATOM     32  C   UNL     1       8.472   5.944  23.602  0.00  0.00    +0.188 C 
BRANCH  32  33
ATOM     33  O   UNL     1       9.689   6.219  22.901  0.00  0.00    -0.392 OA
ATOM     34  H   UNL     1       9.629   7.143  22.598  0.00  0.00    +0.210 HD
ENDBRANCH  32  33
ENDBRANCH  29  32
ENDBRANCH  28  29
ENDBRANCH  26  28
ENDBRANCH  20  26
ENDBRANCH   1  22
TORSDOF 8
ENDMDL
MODEL 7
REMARK VINA RESULT:      -7.1      4.195      6.139
REMARK  Name = 
REMARK  9 active torsions:
REMARK  status: ('A' for Active; 'I' for Inactive)
REMARK    1  A    between atoms: C_2  and  O_3
REMARK    2  A    between atoms: C_2  and  C_4
REMARK    3  A    between atoms: C_2  and  C_6
REMARK    4  A    between atoms: C_4  and  O_5
REMARK    5  A    between atoms: C_6  and  N_7
REMARK    6  A    between atoms: N_7  and  C_8
REMARK    7  A    between atoms: C_12  and  C_14
REMARK    8  A    between atoms: C_15  and  C_21
REMARK    9  A    between atoms: N_23  and  C_24
REMARK                            x       y       z     vdW  Elec       q    Type
REMARK                         _______ _______ _______ _____ _____    ______ ____
ROOT
ATOM      1  C   UNL     1       6.722  -4.863  25.661  0.00  0.00    +0.057 C 
ATOM      2  C   UNL     1       8.127  -5.186  25.998  0.00  0.00    +0.252 C 
ATOM      3  O   UNL     1       9.115  -4.842  25.375  0.00  0.00    -0.270 OA
ATOM      4  N   UNL     1       8.115  -5.891  27.138  0.00  0.00    -0.248 N 
ATOM      5  H   UNL     1       8.951  -6.113  27.651  0.00  0.00    +0.158 HD
ATOM      6  C   UNL     1       6.902  -5.788  27.712  0.00  0.00    +0.252 C 
ATOM      7  O   UNL     1       6.684  -5.978  28.894  0.00  0.00    -0.270 OA
ATOM      8  C   UNL     1       5.949  -5.279  26.687  0.00  0.00    +0.059 C 
ENDROOT
BRANCH   8   9
ATOM      9  C   UNL     1       4.524  -5.268  26.835  0.00  0.00    +0.013 A 
ATOM     10  C   UNL     1       3.516  -6.032  26.139  0.00  0.00    +0.010 A 
ATOM     11  C   UNL     1       2.266  -5.546  26.555  0.00  0.00    +0.050 A 
ATOM     12  C   UNL     1       1.046  -6.048  26.061  0.00  0.00    +0.029 A 
ATOM     13  C   UNL     1       1.086  -7.091  25.138  0.00  0.00    +0.040 A 
ATOM     14  C   UNL     1       2.306  -7.589  24.712  0.00  0.00    +0.124 A 
ATOM     15  F   UNL     1       2.326  -8.598  23.827  0.00  0.00    -0.205 F 
ATOM     16  N   UNL     1       2.511  -4.536  27.458  0.00  0.00    -0.349 N 
ATOM     17  C   UNL     1       1.510  -3.651  28.010  0.00  0.00    +0.149 C 
ATOM     18  C   UNL     1       3.516  -7.068  25.176  0.00  0.00    +0.049 A 
ATOM     19  C   UNL     1       3.851  -4.438  27.710  0.00  0.00    +0.095 A 
ENDBRANCH   8   9
BRANCH   1  22
ATOM     20  C   UNL     1       6.317  -2.219  22.984  0.00  0.00    +0.028 A 
ATOM     21  C   UNL     1       6.480  -2.843  24.233  0.00  0.00    +0.031 A 
ATOM     22  C   UNL     1       6.390  -4.238  24.378  0.00  0.00    -0.010 A 
ATOM     23  C   UNL     1       6.085  -5.023  23.263  0.00  0.00    +0.009 A 
ATOM     24  C   UNL     1       5.874  -4.416  22.027  0.00  0.00    +0.002 A 
ATOM     25  C   UNL     1       5.977  -3.028  21.895  0.00  0.00    +0.023 A 
BRANCH  20  26
ATOM     26  N   UNL     1       6.428  -0.822  22.919  0.00  0.00    -0.341 N 
ATOM     27  H   UNL     1       5.584  -0.383  23.299  0.00  0.00    +0.146 HD
BRANCH  26  28
ATOM     28  C   UNL     1       7.626  -0.173  23.467  0.00  0.00    +0.135 C 
BRANCH  28  29
ATOM     29  C   UNL     1       8.673   0.095  22.373  0.00  0.00    +0.157 C 
BRANCH  29  30
ATOM     30  O   UNL     1       9.994   0.067  22.938  0.00  0.00    -0.388 OA
ATOM     31  H   UNL     1      10.181  -0.873  23.119  0.00  0.00    +0.210 HD
ENDBRANCH  29  30
BRANCH  29  32
ATOM     32  C   UNL     1       8.459   1.431  21.661  0.00  0.00    +0.188 C 
BRANCH  32  33
ATOM     33  O   UNL     1       9.732   2.035  21.407  0.00  0.00    -0.392 OA
ATOM     34  H   UNL     1      10.237   1.971  22.237  0.00  0.00    +0.210 HD
ENDBRANCH  32  33
ENDBRANCH  29  32
ENDBRANCH  28  29
ENDBRANCH  26  28
ENDBRANCH  20  26
ENDBRANCH   1  22
TORSDOF 8
ENDMDL
MODEL 8
REMARK VINA RESULT:      -6.8      4.180      6.044
REMARK  Name = 
REMARK  9 active torsions:
REMARK  status: ('A' for Active; 'I' for Inactive)
REMARK    1  A    between atoms: C_2  and  O_3
REMARK    2  A    between atoms: C_2  and  C_4
REMARK    3  A    between atoms: C_2  and  C_6
REMARK    4  A    between atoms: C_4  and  O_5
REMARK    5  A    between atoms: C_6  and  N_7
REMARK    6  A    between atoms: N_7  and  C_8
REMARK    7  A    between atoms: C_12  and  C_14
REMARK    8  A    between atoms: C_15  and  C_21
REMARK    9  A    between atoms: N_23  and  C_24
REMARK                            x       y       z     vdW  Elec       q    Type
REMARK                         _______ _______ _______ _____ _____    ______ ____
ROOT
ATOM      1  C   UNL     1       6.838  -4.958  25.702  0.00  0.00    +0.057 C 
ATOM      2  C   UNL     1       7.945  -5.128  26.670  0.00  0.00    +0.252 C 
ATOM      3  O   UNL     1       8.991  -4.504  26.687  0.00  0.00    -0.270 OA
ATOM      4  N   UNL     1       7.569  -6.067  27.550  0.00  0.00    -0.248 N 
ATOM      5  H   UNL     1       8.087  -6.268  28.388  0.00  0.00    +0.158 HD
ATOM      6  C   UNL     1       6.246  -6.285  27.430  0.00  0.00    +0.252 C 
ATOM      7  O   UNL     1       5.548  -6.768  28.301  0.00  0.00    -0.270 OA
ATOM      8  C   UNL     1       5.801  -5.709  26.130  0.00  0.00    +0.059 C 
ENDROOT
BRANCH   8   9
ATOM      9  C   UNL     1       4.524  -5.952  25.528  0.00  0.00    +0.013 A 
ATOM     10  C   UNL     1       3.344  -5.121  25.497  0.00  0.00    +0.010 A 
ATOM     11  C   UNL     1       2.320  -5.877  24.905  0.00  0.00    +0.050 A 
ATOM     12  C   UNL     1       1.010  -5.388  24.729  0.00  0.00    +0.029 A 
ATOM     13  C   UNL     1       0.731  -4.086  25.139  0.00  0.00    +0.040 A 
ATOM     14  C   UNL     1       1.723  -3.319  25.726  0.00  0.00    +0.124 A 
ATOM     15  F   UNL     1       1.437  -2.065  26.110  0.00  0.00    -0.205 F 
ATOM     16  N   UNL     1       2.858  -7.105  24.594  0.00  0.00    -0.349 N 
ATOM     17  C   UNL     1       2.109  -8.248  24.121  0.00  0.00    +0.149 C 
ATOM     18  C   UNL     1       3.012  -3.816  25.931  0.00  0.00    +0.049 A 
ATOM     19  C   UNL     1       4.198  -7.119  24.865  0.00  0.00    +0.095 A 
ENDBRANCH   8   9
BRANCH   1  22
ATOM     20  C   UNL     1       7.407  -1.891  23.559  0.00  0.00    +0.028 A 
ATOM     21  C   UNL     1       7.093  -2.720  24.649  0.00  0.00    +0.031 A 
ATOM     22  C   UNL     1       7.012  -4.117  24.515  0.00  0.00    -0.010 A 
ATOM     23  C   UNL     1       7.202  -4.694  23.257  0.00  0.00    +0.009 A 
ATOM     24  C   UNL     1       7.469  -3.883  22.157  0.00  0.00    +0.002 A 
ATOM     25  C   UNL     1       7.557  -2.496  22.307  0.00  0.00    +0.023 A 
BRANCH  20  26
ATOM     26  N   UNL     1       7.477  -0.506  23.774  0.00  0.00    -0.341 N 
ATOM     27  H   UNL     1       6.536  -0.123  23.908  0.00  0.00    +0.146 HD
BRANCH  26  28
ATOM     28  C   UNL     1       8.384   0.013  24.805  0.00  0.00    +0.135 C 
BRANCH  28  29
ATOM     29  C   UNL     1       9.839   0.055  24.307  0.00  0.00    +0.157 C 
BRANCH  29  30
ATOM     30  O   UNL     1      10.709   0.500  25.361  0.00  0.00    -0.388 OA
ATOM     31  H   UNL     1      11.148  -0.304  25.694  0.00  0.00    +0.210 HD
ENDBRANCH  29  30
BRANCH  29  32
ATOM     32  C   UNL     1      10.023   0.958  23.087  0.00  0.00    +0.188 C 
BRANCH  32  33
ATOM     33  O   UNL     1       9.841   0.181  21.899  0.00  0.00    -0.392 OA
ATOM     34  H   UNL     1      10.448   0.551  21.233  0.00  0.00    +0.210 HD
ENDBRANCH  32  33
ENDBRANCH  29  32
ENDBRANCH  28  29
ENDBRANCH  26  28
ENDBRANCH  20  26
ENDBRANCH   1  22
TORSDOF 8
ENDMDL
MODEL 9
REMARK VINA RESULT:      -6.8      2.994      3.909
REMARK  Name = 
REMARK  9 active torsions:
REMARK  status: ('A' for Active; 'I' for Inactive)
REMARK    1  A    between atoms: C_2  and  O_3
REMARK    2  A    between atoms: C_2  and  C_4
REMARK    3  A    between atoms: C_2  and  C_6
REMARK    4  A    between atoms: C_4  and  O_5
REMARK    5  A    between atoms: C_6  and  N_7
REMARK    6  A    between atoms: N_7  and  C_8
REMARK    7  A    between atoms: C_12  and  C_14
REMARK    8  A    between atoms: C_15  and  C_21
REMARK    9  A    between atoms: N_23  and  C_24
REMARK                            x       y       z     vdW  Elec       q    Type
REMARK                         _______ _______ _______ _____ _____    ______ ____
ROOT
ATOM      1  C   UNL     1       8.217  -1.443  24.627  0.00  0.00    +0.057 C 
ATOM      2  C   UNL     1       8.914  -1.041  25.869  0.00  0.00    +0.252 C 
ATOM      3  O   UNL     1       9.462   0.027  26.076  0.00  0.00    -0.270 OA
ATOM      4  N   UNL     1       8.795  -2.052  26.742  0.00  0.00    -0.248 N 
ATOM      5  H   UNL     1       9.063  -1.973  27.708  0.00  0.00    +0.158 HD
ATOM      6  C   UNL     1       7.853  -2.908  26.306  0.00  0.00    +0.252 C 
ATOM      7  O   UNL     1       7.253  -3.690  27.018  0.00  0.00    -0.270 OA
ATOM      8  C   UNL     1       7.603  -2.621  24.865  0.00  0.00    +0.059 C 
ENDROOT
BRANCH   8   9
ATOM      9  C   UNL     1       6.856  -3.470  23.985  0.00  0.00    +0.013 A 
ATOM     10  C   UNL     1       5.468  -3.866  24.038  0.00  0.00    +0.010 A 
ATOM     11  C   UNL     1       5.269  -4.818  23.026  0.00  0.00    +0.050 A 
ATOM     12  C   UNL     1       4.028  -5.444  22.797  0.00  0.00    +0.029 A 
ATOM     13  C   UNL     1       2.947  -5.080  23.596  0.00  0.00    +0.040 A 
ATOM     14  C   UNL     1       3.116  -4.143  24.601  0.00  0.00    +0.124 A 
ATOM     15  F   UNL     1       2.063  -3.800  25.358  0.00  0.00    -0.205 F 
ATOM     16  N   UNL     1       6.480  -4.988  22.393  0.00  0.00    -0.349 N 
ATOM     17  C   UNL     1       6.767  -5.998  21.399  0.00  0.00    +0.149 C 
ATOM     18  C   UNL     1       4.355  -3.547  24.851  0.00  0.00    +0.049 A 
ATOM     19  C   UNL     1       7.403  -4.110  22.889  0.00  0.00    +0.095 A 
ENDBRANCH   8   9
BRANCH   1  22
ATOM     20  C   UNL     1       7.652   1.420  22.218  0.00  0.00    +0.028 A 
ATOM     21  C   UNL     1       7.491   0.519  23.284  0.00  0.00    +0.031 A 
ATOM     22  C   UNL     1       8.310  -0.615  23.422  0.00  0.00    -0.010 A 
ATOM     23  C   UNL     1       9.279  -0.880  22.451  0.00  0.00    +0.009 A 
ATOM     24  C   UNL     1       9.421  -0.022  21.363  0.00  0.00    +0.002 A 
ATOM     25  C   UNL     1       8.606   1.108  21.244  0.00  0.00    +0.023 A 
BRANCH  20  26
ATOM     26  N   UNL     1       6.799   2.533  22.152  0.00  0.00    -0.341 N 
ATOM     27  H   UNL     1       5.851   2.235  21.908  0.00  0.00    +0.146 HD
BRANCH  26  28
ATOM     28  C   UNL     1       6.761   3.471  23.281  0.00  0.00    +0.135 C 
BRANCH  28  29
ATOM     29  C   UNL     1       8.062   4.284  23.384  0.00  0.00    +0.157 C 
BRANCH  29  30
ATOM     30  O   UNL     1       8.531   4.295  24.742  0.00  0.00    -0.388 OA
ATOM     31  H   UNL     1       8.274   3.431  25.114  0.00  0.00    +0.210 HD
ENDBRANCH  29  30
BRANCH  29  32
ATOM     32  C   UNL     1       7.903   5.724  22.895  0.00  0.00    +0.188 C 
BRANCH  32  33
ATOM     33  O   UNL     1       7.481   5.709  21.527  0.00  0.00    -0.392 OA
ATOM     34  H   UNL     1       8.219   6.074  21.008  0.00  0.00    +0.210 HD
ENDBRANCH  32  33
ENDBRANCH  29  32
ENDBRANCH  28  29
ENDBRANCH  26  28
ENDBRANCH  20  26
ENDBRANCH   1  22
TORSDOF 8
ENDMDL
