MODEL 1
REMARK VINA RESULT:      -5.6      0.000      0.000
REMARK  Name = 
REMARK  7 active torsions:
REMARK  status: ('A' for Active; 'I' for Inactive)
REMARK    1  A    between atoms: N_1  and  C_2
REMARK    2  A    between atoms: C_2  and  C_4
REMARK    3  A    between atoms: C_2  and  C_13
REMARK    4  A    between atoms: C_4  and  S_5
REMARK    5  A    between atoms: S_5  and  C_6
REMARK    6  A    between atoms: C_6  and  C_7
REMARK    7  A    between atoms: C_13  and  O_14
REMARK                            x       y       z     vdW  Elec       q    Type
REMARK                         _______ _______ _______ _____ _____    ______ ____
ROOT
ATOM      1  C   UNK     1       8.332  -4.509  24.018  0.00  0.00    +0.099 C 
ENDROOT
BRANCH   1   2
ATOM      2  C   UNK     1       9.178  -4.501  25.299  0.00  0.00    +0.171 C 
BRANCH   2   3
ATOM      3  N   UNK     1      10.227  -5.574  25.335  0.00  0.00    -0.318 NA
ATOM      4  H   UNK     1      11.145  -5.117  25.341  0.00  0.00    +0.119 HD
ATOM      5  H   UNK     1      10.174  -5.984  26.278  0.00  0.00    +0.119 HD
ENDBRANCH   2   3
BRANCH   2   6
ATOM      6  C   UNK     1       8.292  -4.669  26.539  0.00  0.00    +0.323 C 
ATOM      7  O   UNK     1       7.712  -3.770  27.128  0.00  0.00    -0.249 OA
BRANCH   6   8
ATOM      8  O   UNK     1       8.257  -5.970  26.933  0.00  0.00    -0.480 OA
ATOM      9  H   UNK     1       7.407  -6.340  26.583  0.00  0.00    +0.295 HD
ENDBRANCH   6   8
ENDBRANCH   2   6
ENDBRANCH   1   2
BRANCH   1  10
ATOM     10  S   UNK     1       8.186  -2.810  23.352  0.00  0.00    -0.154 S 
BRANCH  10  11
ATOM     11  C   UNK     1       9.863  -2.203  23.723  0.00  0.00    +0.104 C 
BRANCH  11  12
ATOM     12  C   UNK     1       9.985  -0.733  23.407  0.00  0.00    -0.038 A 
ATOM     13  C   UNK     1      10.472   0.168  24.366  0.00  0.00    +0.004 A 
ATOM     14  C   UNK     1      10.609   1.524  24.061  0.00  0.00    +0.000 A 
ATOM     15  C   UNK     1      10.264   1.994  22.796  0.00  0.00    +0.000 A 
ATOM     16  C   UNK     1       9.787   1.109  21.831  0.00  0.00    +0.000 A 
ATOM     17  C   UNK     1       9.649  -0.248  22.134  0.00  0.00    +0.004 A 
ENDBRANCH  11  12
ENDBRANCH  10  11
ENDBRANCH   1  10
TORSDOF 7
ENDMDL
MODEL 2
REMARK VINA RESULT:      -5.5      1.554      2.209
REMARK  Name = 
REMARK  7 active torsions:
REMARK  status: ('A' for Active; 'I' for Inactive)
REMARK    1  A    between atoms: N_1  and  C_2
REMARK    2  A    between atoms: C_2  and  C_4
REMARK    3  A    between atoms: C_2  and  C_13
REMARK    4  A    between atoms: C_4  and  S_5
REMARK    5  A    between atoms: S_5  and  C_6
REMARK    6  A    between atoms: C_6  and  C_7
REMARK    7  A    between atoms: C_13  and  O_14
REMARK                            x       y       z     vdW  Elec       q    Type
REMARK                         _______ _______ _______ _____ _____    ______ ____
ROOT
ATOM      1  C   UNK     1       8.651  -3.274  26.297  0.00  0.00    +0.099 C 
ENDROOT
BRANCH   1   2
ATOM      2  C   UNK     1       8.133  -4.687  25.991  0.00  0.00    +0.171 C 
BRANCH   2   3
ATOM      3  N   UNK     1       8.131  -5.599  27.183  0.00  0.00    -0.318 NA
ATOM      4  H   UNK     1       9.081  -5.616  27.567  0.00  0.00    +0.119 HD
ATOM      5  H   UNK     1       7.603  -5.101  27.913  0.00  0.00    +0.119 HD
ENDBRANCH   2   3
BRANCH   2   6
ATOM      6  C   UNK     1       8.974  -5.350  24.893  0.00  0.00    +0.323 C 
ATOM      7  O   UNK     1       8.607  -5.572  23.751  0.00  0.00    -0.249 OA
BRANCH   6   8
ATOM      8  O   UNK     1      10.199  -5.699  25.370  0.00  0.00    -0.480 OA
ATOM      9  H   UNK     1      10.674  -4.849  25.555  0.00  0.00    +0.295 HD
ENDBRANCH   6   8
ENDBRANCH   2   6
ENDBRANCH   1   2
BRANCH   1  10
ATOM     10  S   UNK     1       8.149  -2.120  24.968  0.00  0.00    -0.154 S 
BRANCH  10  11
ATOM     11  C   UNK     1       9.741  -1.964  24.096  0.00  0.00    +0.104 C 
BRANCH  11  12
ATOM     12  C   UNK     1       9.943  -0.556  23.593  0.00  0.00    -0.038 A 
ATOM     13  C   UNK     1       9.647  -0.221  22.263  0.00  0.00    +0.004 A 
ATOM     14  C   UNK     1       9.811   1.090  21.808  0.00  0.00    +0.000 A 
ATOM     15  C   UNK     1      10.270   2.078  22.676  0.00  0.00    +0.000 A 
ATOM     16  C   UNK     1      10.560   1.761  24.001  0.00  0.00    +0.000 A 
ATOM     17  C   UNK     1      10.397   0.451  24.459  0.00  0.00    +0.004 A 
ENDBRANCH  11  12
ENDBRANCH  10  11
ENDBRANCH   1  10
TORSDOF 7
ENDMDL
MODEL 3
REMARK VINA RESULT:      -5.2      6.172      7.942
REMARK  Name = 
REMARK  7 active torsions:
REMARK  status: ('A' for Active; 'I' for Inactive)
REMARK    1  A    between atoms: N_1  and  C_2
REMARK    2  A    between atoms: C_2  and  C_4
REMARK    3  A    between atoms: C_2  and  C_13
REMARK    4  A    between atoms: C_4  and  S_5
REMARK    5  A    between atoms: S_5  and  C_6
REMARK    6  A    between atoms: C_6  and  C_7
REMARK    7  A    between atoms: C_13  and  O_14
REMARK                            x       y       z     vdW  Elec       q    Type
REMARK                         _______ _______ _______ _____ _____    ______ ____
ROOT
ATOM      1  C   UNK     1      11.392   3.511  23.351  0.00  0.00    +0.099 C 
ENDROOT
BRANCH   1   2
ATOM      2  C   UNK     1      11.857   4.966  23.509  0.00  0.00    +0.171 C 
BRANCH   2   3
ATOM      3  N   UNK     1      10.812   5.976  23.136  0.00  0.00    -0.318 NA
ATOM      4  H   UNK     1      11.287   6.865  22.947  0.00  0.00    +0.119 HD
ATOM      5  H   UNK     1      10.477   5.698  22.203  0.00  0.00    +0.119 HD
ENDBRANCH   2   3
BRANCH   2   6
ATOM      6  C   UNK     1      13.100   5.237  22.652  0.00  0.00    +0.323 C 
ATOM      7  O   UNK     1      13.098   5.588  21.483  0.00  0.00    -0.249 OA
BRANCH   6   8
ATOM      8  O   UNK     1      14.235   4.999  23.363  0.00  0.00    -0.480 OA
ATOM      9  H   UNK     1      13.945   4.564  24.206  0.00  0.00    +0.295 HD
ENDBRANCH   6   8
ENDBRANCH   2   6
ENDBRANCH   1   2
BRANCH   1  10
ATOM     10  S   UNK     1       9.621   3.368  23.790  0.00  0.00    -0.154 S 
BRANCH  10  11
ATOM     11  C   UNK     1       9.067   2.288  22.433  0.00  0.00    +0.104 C 
BRANCH  11  12
ATOM     12  C   UNK     1       9.399   0.845  22.723  0.00  0.00    -0.038 A 
ATOM     13  C   UNK     1       9.630  -0.061  21.676  0.00  0.00    +0.004 A 
ATOM     14  C   UNK     1       9.963  -1.390  21.949  0.00  0.00    +0.000 A 
ATOM     15  C   UNK     1      10.070  -1.827  23.267  0.00  0.00    +0.000 A 
ATOM     16  C   UNK     1       9.851  -0.936  24.315  0.00  0.00    +0.000 A 
ATOM     17  C   UNK     1       9.518   0.393  24.046  0.00  0.00    +0.004 A 
ENDBRANCH  11  12
ENDBRANCH  10  11
ENDBRANCH   1  10
TORSDOF 7
ENDMDL
MODEL 4
REMARK VINA RESULT:      -5.2      6.603      8.406
REMARK  Name = 
REMARK  7 active torsions:
REMARK  status: ('A' for Active; 'I' for Inactive)
REMARK    1  A    between atoms: N_1  and  C_2
REMARK    2  A    between atoms: C_2  and  C_4
REMARK    3  A    between atoms: C_2  and  C_13
REMARK    4  A    between atoms: C_4  and  S_5
REMARK    5  A    between atoms: S_5  and  C_6
REMARK    6  A    between atoms: C_6  and  C_7
REMARK    7  A    between atoms: C_13  and  O_14
REMARK                            x       y       z     vdW  Elec       q    Type
REMARK                         _______ _______ _______ _____ _____    ______ ____
ROOT
ATOM      1  C   UNK     1      10.761   6.003  23.509  0.00  0.00    +0.099 C 
ENDROOT
BRANCH   1   2
ATOM      2  C   UNK     1      12.163   5.636  24.018  0.00  0.00    +0.171 C 
BRANCH   2   3
ATOM      3  N   UNK     1      12.763   6.667  24.927  0.00  0.00    -0.318 NA
ATOM      4  H   UNK     1      13.150   7.415  24.342  0.00  0.00    +0.119 HD
ATOM      5  H   UNK     1      11.966   7.131  25.385  0.00  0.00    +0.119 HD
ENDBRANCH   2   3
BRANCH   2   6
ATOM      6  C   UNK     1      13.129   5.422  22.847  0.00  0.00    +0.323 C 
ATOM      7  O   UNK     1      12.861   5.567  21.665  0.00  0.00    -0.249 OA
BRANCH   6   8
ATOM      8  O   UNK     1      14.345   5.007  23.295  0.00  0.00    -0.480 OA
ATOM      9  H   UNK     1      14.989   5.212  22.570  0.00  0.00    +0.295 HD
ENDBRANCH   6   8
ENDBRANCH   2   6
ENDBRANCH   1   2
BRANCH   1  10
ATOM     10  S   UNK     1       9.532   4.799  24.133  0.00  0.00    -0.154 S 
BRANCH  10  11
ATOM     11  C   UNK     1      10.251   3.267  23.460  0.00  0.00    +0.104 C 
BRANCH  11  12
ATOM     12  C   UNK     1       9.780   2.064  24.239  0.00  0.00    -0.038 A 
ATOM     13  C   UNK     1       8.515   2.054  24.846  0.00  0.00    +0.004 A 
ATOM     14  C   UNK     1       8.071   0.929  25.545  0.00  0.00    +0.000 A 
ATOM     15  C   UNK     1       8.884  -0.198  25.642  0.00  0.00    +0.000 A 
ATOM     16  C   UNK     1      10.139  -0.205  25.037  0.00  0.00    +0.000 A 
ATOM     17  C   UNK     1      10.585   0.919  24.338  0.00  0.00    +0.004 A 
ENDBRANCH  11  12
ENDBRANCH  10  11
ENDBRANCH   1  10
TORSDOF 7
ENDMDL
MODEL 5
REMARK VINA RESULT:      -5.2      1.353      1.507
REMARK  Name = 
REMARK  7 active torsions:
REMARK  status: ('A' for Active; 'I' for Inactive)
REMARK    1  A    between atoms: N_1  and  C_2
REMARK    2  A    between atoms: C_2  and  C_4
REMARK    3  A    between atoms: C_2  and  C_13
REMARK    4  A    between atoms: C_4  and  S_5
REMARK    5  A    between atoms: S_5  and  C_6
REMARK    6  A    between atoms: C_6  and  C_7
REMARK    7  A    between atoms: C_13  and  O_14
REMARK                            x       y       z     vdW  Elec       q    Type
REMARK                         _______ _______ _______ _____ _____    ______ ____
ROOT
ATOM      1  C   UNK     1       8.469  -3.210  24.420  0.00  0.00    +0.099 C 
ENDROOT
BRANCH   1   2
ATOM      2  C   UNK     1       8.261  -4.730  24.338  0.00  0.00    +0.171 C 
BRANCH   2   3
ATOM      3  N   UNK     1       6.837  -5.129  24.082  0.00  0.00    -0.318 NA
ATOM      4  H   UNK     1       6.714  -6.089  24.422  0.00  0.00    +0.119 HD
ATOM      5  H   UNK     1       6.271  -4.582  24.745  0.00  0.00    +0.119 HD
ENDBRANCH   2   3
BRANCH   2   6
ATOM      6  C   UNK     1       8.716  -5.414  25.632  0.00  0.00    +0.323 C 
ATOM      7  O   UNK     1       8.003  -5.684  26.585  0.00  0.00    -0.249 OA
BRANCH   6   8
ATOM      8  O   UNK     1      10.054  -5.659  25.602  0.00  0.00    -0.480 OA
ATOM      9  H   UNK     1      10.151  -6.641  25.511  0.00  0.00    +0.295 HD
ENDBRANCH   6   8
ENDBRANCH   2   6
ENDBRANCH   1   2
BRANCH   1  10
ATOM     10  S   UNK     1       8.448  -2.482  22.742  0.00  0.00    -0.154 S 
BRANCH  10  11
ATOM     11  C   UNK     1      10.151  -1.840  22.677  0.00  0.00    +0.104 C 
BRANCH  11  12
ATOM     12  C   UNK     1      10.168  -0.342  22.856  0.00  0.00    -0.038 A 
ATOM     13  C   UNK     1      10.586   0.230  24.067  0.00  0.00    +0.004 A 
ATOM     14  C   UNK     1      10.626   1.618  24.221  0.00  0.00    +0.000 A 
ATOM     15  C   UNK     1      10.252   2.448  23.167  0.00  0.00    +0.000 A 
ATOM     16  C   UNK     1       9.843   1.894  21.956  0.00  0.00    +0.000 A 
ATOM     17  C   UNK     1       9.801   0.506  21.800  0.00  0.00    +0.004 A 
ENDBRANCH  11  12
ENDBRANCH  10  11
ENDBRANCH   1  10
TORSDOF 7
ENDMDL
MODEL 6
REMARK VINA RESULT:      -5.0      2.724      2.913
REMARK  Name = 
REMARK  7 active torsions:
REMARK  status: ('A' for Active; 'I' for Inactive)
REMARK    1  A    between atoms: N_1  and  C_2
REMARK    2  A    between atoms: C_2  and  C_4
REMARK    3  A    between atoms: C_2  and  C_13
REMARK    4  A    between atoms: C_4  and  S_5
REMARK    5  A    between atoms: S_5  and  C_6
REMARK    6  A    between atoms: C_6  and  C_7
REMARK    7  A    between atoms: C_13  and  O_14
REMARK                            x       y       z     vdW  Elec       q    Type
REMARK                         _______ _______ _______ _____ _____    ______ ____
ROOT
ATOM      1  C   UNK     1       7.418  -2.904  23.512  0.00  0.00    +0.099 C 
ENDROOT
BRANCH   1   2
ATOM      2  C   UNK     1       7.095  -4.390  23.302  0.00  0.00    +0.171 C 
BRANCH   2   3
ATOM      3  N   UNK     1       8.259  -5.302  23.558  0.00  0.00    -0.318 NA
ATOM      4  H   UNK     1       8.314  -5.968  22.780  0.00  0.00    +0.119 HD
ATOM      5  H   UNK     1       9.100  -4.725  23.418  0.00  0.00    +0.119 HD
ENDBRANCH   2   3
BRANCH   2   6
ATOM      6  C   UNK     1       6.603  -4.645  21.873  0.00  0.00    +0.323 C 
ATOM      7  O   UNK     1       5.785  -3.970  21.269  0.00  0.00    -0.249 OA
BRANCH   6   8
ATOM      8  O   UNK     1       7.179  -5.765  21.358  0.00  0.00    -0.480 OA
ATOM      9  H   UNK     1       7.951  -5.971  21.945  0.00  0.00    +0.295 HD
ENDBRANCH   6   8
ENDBRANCH   2   6
ENDBRANCH   1   2
BRANCH   1  10
ATOM     10  S   UNK     1       9.132  -2.715  24.124  0.00  0.00    -0.154 S 
BRANCH  10  11
ATOM     11  C   UNK     1       9.884  -1.934  22.661  0.00  0.00    +0.104 C 
BRANCH  11  12
ATOM     12  C   UNK     1      10.031  -0.446  22.861  0.00  0.00    -0.038 A 
ATOM     13  C   UNK     1      10.463   0.072  24.091  0.00  0.00    +0.004 A 
ATOM     14  C   UNK     1      10.622   1.449  24.265  0.00  0.00    +0.000 A 
ATOM     15  C   UNK     1      10.357   2.321  23.212  0.00  0.00    +0.000 A 
ATOM     16  C   UNK     1       9.936   1.820  21.982  0.00  0.00    +0.000 A 
ATOM     17  C   UNK     1       9.775   0.443  21.806  0.00  0.00    +0.004 A 
ENDBRANCH  11  12
ENDBRANCH  10  11
ENDBRANCH   1  10
TORSDOF 7
ENDMDL
MODEL 7
REMARK VINA RESULT:      -4.9      4.058      6.389
REMARK  Name = 
REMARK  7 active torsions:
REMARK  status: ('A' for Active; 'I' for Inactive)
REMARK    1  A    between atoms: N_1  and  C_2
REMARK    2  A    between atoms: C_2  and  C_4
REMARK    3  A    between atoms: C_2  and  C_13
REMARK    4  A    between atoms: C_4  and  S_5
REMARK    5  A    between atoms: S_5  and  C_6
REMARK    6  A    between atoms: C_6  and  C_7
REMARK    7  A    between atoms: C_13  and  O_14
REMARK                            x       y       z     vdW  Elec       q    Type
REMARK                         _______ _______ _______ _____ _____    ______ ____
ROOT
ATOM      1  C   UNK     1       9.219  -0.478  23.877  0.00  0.00    +0.099 C 
ENDROOT
BRANCH   1   2
ATOM      2  C   UNK     1      10.243   0.511  23.302  0.00  0.00    +0.171 C 
BRANCH   2   3
ATOM      3  N   UNK     1      10.461   1.720  24.163  0.00  0.00    -0.318 NA
ATOM      4  H   UNK     1      11.359   2.138  23.897  0.00  0.00    +0.119 HD
ATOM      5  H   UNK     1       9.783   2.421  23.835  0.00  0.00    +0.119 HD
ENDBRANCH   2   3
BRANCH   2   6
ATOM      6  C   UNK     1       9.813   0.994  21.912  0.00  0.00    +0.323 C 
ATOM      7  O   UNK     1       9.172   0.349  21.098  0.00  0.00    -0.249 OA
BRANCH   6   8
ATOM      8  O   UNK     1      10.276   2.252  21.676  0.00  0.00    -0.480 OA
ATOM      9  H   UNK     1       9.524   2.864  21.884  0.00  0.00    +0.295 HD
ENDBRANCH   6   8
ENDBRANCH   2   6
ENDBRANCH   1   2
BRANCH   1  10
ATOM     10  S   UNK     1       9.814  -2.195  23.659  0.00  0.00    -0.154 S 
BRANCH  10  11
ATOM     11  C   UNK     1       8.402  -3.091  24.381  0.00  0.00    +0.104 C 
BRANCH  11  12
ATOM     12  C   UNK     1       7.650  -3.855  23.320  0.00  0.00    -0.038 A 
ATOM     13  C   UNK     1       7.784  -5.248  23.209  0.00  0.00    +0.004 A 
ATOM     14  C   UNK     1       7.066  -5.955  22.242  0.00  0.00    +0.000 A 
ATOM     15  C   UNK     1       6.207  -5.281  21.378  0.00  0.00    +0.000 A 
ATOM     16  C   UNK     1       6.057  -3.900  21.482  0.00  0.00    +0.000 A 
ATOM     17  C   UNK     1       6.774  -3.190  22.448  0.00  0.00    +0.004 A 
ENDBRANCH  11  12
ENDBRANCH  10  11
ENDBRANCH   1  10
TORSDOF 7
ENDMDL
MODEL 8
REMARK VINA RESULT:      -4.9      1.876      2.117
REMARK  Name = 
REMARK  7 active torsions:
REMARK  status: ('A' for Active; 'I' for Inactive)
REMARK    1  A    between atoms: N_1  and  C_2
REMARK    2  A    between atoms: C_2  and  C_4
REMARK    3  A    between atoms: C_2  and  C_13
REMARK    4  A    between atoms: C_4  and  S_5
REMARK    5  A    between atoms: S_5  and  C_6
REMARK    6  A    between atoms: C_6  and  C_7
REMARK    7  A    between atoms: C_13  and  O_14
REMARK                            x       y       z     vdW  Elec       q    Type
REMARK                         _______ _______ _______ _____ _____    ______ ____
ROOT
ATOM      1  C   UNK     1       8.266  -4.737  25.435  0.00  0.00    +0.099 C 
ENDROOT
BRANCH   1   2
ATOM      2  C   UNK     1       7.219  -5.083  26.504  0.00  0.00    +0.171 C 
BRANCH   2   3
ATOM      3  N   UNK     1       7.759  -5.917  27.629  0.00  0.00    -0.318 NA
ATOM      4  H   UNK     1       8.745  -6.113  27.429  0.00  0.00    +0.119 HD
ATOM      5  H   UNK     1       7.815  -5.286  28.440  0.00  0.00    +0.119 HD
ENDBRANCH   2   3
BRANCH   2   6
ATOM      6  C   UNK     1       6.037  -5.838  25.884  0.00  0.00    +0.323 C 
ATOM      7  O   UNK     1       5.414  -6.745  26.412  0.00  0.00    -0.249 OA
BRANCH   6   8
ATOM      8  O   UNK     1       5.781  -5.384  24.628  0.00  0.00    -0.480 OA
ATOM      9  H   UNK     1       6.665  -5.272  24.192  0.00  0.00    +0.295 HD
ENDBRANCH   6   8
ENDBRANCH   2   6
ENDBRANCH   1   2
BRANCH   1  10
ATOM     10  S   UNK     1       8.409  -2.921  25.262  0.00  0.00    -0.154 S 
BRANCH  10  11
ATOM     11  C   UNK     1       9.732  -2.847  24.013  0.00  0.00    +0.104 C 
BRANCH  11  12
ATOM     12  C   UNK     1       9.791  -1.483  23.371  0.00  0.00    -0.038 A 
ATOM     13  C   UNK     1      10.261  -0.373  24.090  0.00  0.00    +0.004 A 
ATOM     14  C   UNK     1      10.338   0.884  23.484  0.00  0.00    +0.000 A 
ATOM     15  C   UNK     1       9.951   1.045  22.156  0.00  0.00    +0.000 A 
ATOM     16  C   UNK     1       9.491  -0.051  21.428  0.00  0.00    +0.000 A 
ATOM     17  C   UNK     1       9.411  -1.308  22.031  0.00  0.00    +0.004 A 
ENDBRANCH  11  12
ENDBRANCH  10  11
ENDBRANCH   1  10
TORSDOF 7
ENDMDL
MODEL 9
REMARK VINA RESULT:      -4.9      2.880      3.450
REMARK  Name = 
REMARK  7 active torsions:
REMARK  status: ('A' for Active; 'I' for Inactive)
REMARK    1  A    between atoms: N_1  and  C_2
REMARK    2  A    between atoms: C_2  and  C_4
REMARK    3  A    between atoms: C_2  and  C_13
REMARK    4  A    between atoms: C_4  and  S_5
REMARK    5  A    between atoms: S_5  and  C_6
REMARK    6  A    between atoms: C_6  and  C_7
REMARK    7  A    between atoms: C_13  and  O_14
REMARK                            x       y       z     vdW  Elec       q    Type
REMARK                         _______ _______ _______ _____ _____    ______ ____
ROOT
ATOM      1  C   UNK     1       7.862  -3.106  22.506  0.00  0.00    +0.099 C 
ENDROOT
BRANCH   1   2
ATOM      2  C   UNK     1       6.848  -4.204  22.857  0.00  0.00    +0.171 C 
BRANCH   2   3
ATOM      3  N   UNK     1       7.333  -5.158  23.908  0.00  0.00    -0.318 NA
ATOM      4  H   UNK     1       6.706  -5.970  23.909  0.00  0.00    +0.119 HD
ATOM      5  H   UNK     1       8.210  -5.554  23.542  0.00  0.00    +0.119 HD
ENDBRANCH   2   3
BRANCH   2   6
ATOM      6  C   UNK     1       6.478  -5.022  21.614  0.00  0.00    +0.323 C 
ATOM      7  O   UNK     1       6.819  -6.172  21.389  0.00  0.00    -0.249 OA
BRANCH   6   8
ATOM      8  O   UNK     1       5.733  -4.278  20.752  0.00  0.00    -0.480 OA
ATOM      9  H   UNK     1       5.197  -3.662  21.314  0.00  0.00    +0.295 HD
ENDBRANCH   6   8
ENDBRANCH   2   6
ENDBRANCH   1   2
BRANCH   1  10
ATOM     10  S   UNK     1       8.718  -2.536  24.020  0.00  0.00    -0.154 S 
BRANCH  10  11
ATOM     11  C   UNK     1      10.272  -1.945  23.276  0.00  0.00    +0.104 C 
BRANCH  11  12
ATOM     12  C   UNK     1      10.257  -0.445  23.118  0.00  0.00    -0.038 A 
ATOM     13  C   UNK     1       9.780   0.146  21.938  0.00  0.00    +0.004 A 
ATOM     14  C   UNK     1       9.743   1.536  21.805  0.00  0.00    +0.000 A 
ATOM     15  C   UNK     1      10.178   2.349  22.848  0.00  0.00    +0.000 A 
ATOM     16  C   UNK     1      10.646   1.776  24.029  0.00  0.00    +0.000 A 
ATOM     17  C   UNK     1      10.685   0.386  24.164  0.00  0.00    +0.004 A 
ENDBRANCH  11  12
ENDBRANCH  10  11
ENDBRANCH   1  10
TORSDOF 7
ENDMDL
