MODEL 1
REMARK VINA RESULT:      -6.9      0.000      0.000
REMARK  Name = 
REMARK  11 active torsions:
REMARK  status: ('A' for Active; 'I' for Inactive)
REMARK    1  A    between atoms: C_1  and  C_2
REMARK    2  A    between atoms: C_2  and  C_6
REMARK    3  A    between atoms: C_3  and  C_4
REMARK    4  A    between atoms: C_4  and  O_5
REMARK    5  A    between atoms: C_7  and  C_8
REMARK    6  A    between atoms: C_9  and  C_10
REMARK    7  A    between atoms: C_9  and  C_11
REMARK    8  A    between atoms: C_12  and  C_13
REMARK    9  A    between atoms: C_14  and  C_15
REMARK   10  A    between atoms: C_19  and  C_20
REMARK   11  A    between atoms: C_19  and  C_21
REMARK                            x       y       z     vdW  Elec       q    Type
REMARK                         _______ _______ _______ _____ _____    ______ ____
ROOT
ATOM      1  C   UNL     1       9.259   1.198  24.044  0.00  0.00    +0.003 C 
ATOM      2  C   UNL     1       8.931   0.238  23.148  0.00  0.00    -0.050 C 
ATOM      3  C   UNL     1       9.400   0.212  21.706  0.00  0.00    +0.044 C 
ENDROOT
BRANCH   1   5
ATOM      4  C   UNL     1       9.749   3.642  23.866  0.00  0.00    +0.003 C 
ATOM      5  C   UNL     1      10.094   2.347  23.765  0.00  0.00    +0.001 C 
BRANCH   4   7
ATOM      6  C   UNL     1      10.088   6.151  23.561  0.00  0.00    +0.043 C 
ATOM      7  C   UNL     1      10.667   4.755  23.572  0.00  0.00    -0.052 C 
ATOM      8  C   UNL     1      11.966   4.504  23.296  0.00  0.00    +0.004 C 
BRANCH   8   9
ATOM      9  C   UNL     1      13.021   5.519  22.978  0.00  0.00    +0.183 C 
BRANCH   9  10
ATOM     10  O   UNL     1      14.295   4.918  23.148  0.00  0.00    -0.391 OA
ATOM     11  H   UNL     1      14.670   5.287  23.966  0.00  0.00    +0.210 HD
ENDBRANCH   9  10
ENDBRANCH   8   9
ENDBRANCH   4   7
ENDBRANCH   1   5
BRANCH   2  12
ATOM     12  C   UNL     1       8.086  -0.888  23.566  0.00  0.00    +0.003 C 
ATOM     13  C   UNL     1       8.405  -2.191  23.446  0.00  0.00    +0.004 C 
BRANCH  13  14
ATOM     14  C   UNL     1       7.585  -3.309  23.914  0.00  0.00    -0.043 C 
ATOM     15  C   UNL     1       8.063  -3.990  25.210  0.00  0.00    -0.010 C 
ATOM     16  C   UNL     1       9.543  -4.433  25.063  0.00  0.00    +0.016 C 
ATOM     17  C   UNL     1       7.990  -2.987  26.391  0.00  0.00    +0.016 C 
ATOM     18  C   UNL     1       7.260  -5.257  25.628  0.00  0.00    +0.011 C 
ATOM     19  C   UNL     1       5.971  -5.604  24.905  0.00  0.00    +0.005 C 
ATOM     20  C   UNL     1       5.559  -4.776  23.703  0.00  0.00    +0.031 C 
ATOM     21  C   UNL     1       6.449  -3.649  23.270  0.00  0.00    -0.069 C 
ATOM     22  C   UNL     1       5.887  -2.924  22.064  0.00  0.00    +0.039 C 
ENDBRANCH  13  14
ENDBRANCH   2  12
TORSDOF 6
ENDMDL
MODEL 2
REMARK VINA RESULT:      -6.8      0.593      2.208
REMARK  Name = 
REMARK  11 active torsions:
REMARK  status: ('A' for Active; 'I' for Inactive)
REMARK    1  A    between atoms: C_1  and  C_2
REMARK    2  A    between atoms: C_2  and  C_6
REMARK    3  A    between atoms: C_3  and  C_4
REMARK    4  A    between atoms: C_4  and  O_5
REMARK    5  A    between atoms: C_7  and  C_8
REMARK    6  A    between atoms: C_9  and  C_10
REMARK    7  A    between atoms: C_9  and  C_11
REMARK    8  A    between atoms: C_12  and  C_13
REMARK    9  A    between atoms: C_14  and  C_15
REMARK   10  A    between atoms: C_19  and  C_20
REMARK   11  A    between atoms: C_19  and  C_21
REMARK                            x       y       z     vdW  Elec       q    Type
REMARK                         _______ _______ _______ _____ _____    ______ ____
ROOT
ATOM      1  C   UNL     1       9.193   1.111  24.270  0.00  0.00    +0.003 C 
ATOM      2  C   UNL     1       9.092  -0.024  23.541  0.00  0.00    -0.050 C 
ATOM      3  C   UNL     1       9.852  -0.292  22.256  0.00  0.00    +0.044 C 
ENDROOT
BRANCH   1   5
ATOM      4  C   UNL     1       9.685   3.542  23.965  0.00  0.00    +0.003 C 
ATOM      5  C   UNL     1      10.030   2.244  23.934  0.00  0.00    +0.001 C 
BRANCH   4   7
ATOM      6  C   UNL     1      10.063   6.049  23.679  0.00  0.00    +0.043 C 
ATOM      7  C   UNL     1      10.604   4.639  23.616  0.00  0.00    -0.052 C 
ATOM      8  C   UNL     1      11.869   4.362  23.230  0.00  0.00    +0.004 C 
BRANCH   8   9
ATOM      9  C   UNL     1      12.921   5.357  22.845  0.00  0.00    +0.183 C 
BRANCH   9  10
ATOM     10  O   UNL     1      14.185   4.865  23.259  0.00  0.00    -0.391 OA
ATOM     11  H   UNL     1      14.643   4.561  22.456  0.00  0.00    +0.210 HD
ENDBRANCH   9  10
ENDBRANCH   8   9
ENDBRANCH   4   7
ENDBRANCH   1   5
BRANCH   2  12
ATOM     12  C   UNL     1       8.216  -1.109  24.004  0.00  0.00    +0.003 C 
ATOM     13  C   UNL     1       8.323  -2.403  23.650  0.00  0.00    +0.004 C 
BRANCH  13  14
ATOM     14  C   UNL     1       7.484  -3.490  24.156  0.00  0.00    -0.043 C 
ATOM     15  C   UNL     1       6.488  -4.090  23.146  0.00  0.00    -0.010 C 
ATOM     16  C   UNL     1       5.605  -2.967  22.540  0.00  0.00    +0.016 C 
ATOM     17  C   UNL     1       7.260  -4.760  21.978  0.00  0.00    +0.016 C 
ATOM     18  C   UNL     1       5.513  -5.156  23.728  0.00  0.00    +0.011 C 
ATOM     19  C   UNL     1       5.735  -5.692  25.131  0.00  0.00    +0.005 C 
ATOM     20  C   UNL     1       6.831  -5.082  25.984  0.00  0.00    +0.031 C 
ATOM     21  C   UNL     1       7.648  -3.964  25.409  0.00  0.00    -0.069 C 
ATOM     22  C   UNL     1       8.699  -3.478  26.387  0.00  0.00    +0.039 C 
ENDBRANCH  13  14
ENDBRANCH   2  12
TORSDOF 6
ENDMDL
MODEL 3
REMARK VINA RESULT:      -6.0      1.266      1.884
REMARK  Name = 
REMARK  11 active torsions:
REMARK  status: ('A' for Active; 'I' for Inactive)
REMARK    1  A    between atoms: C_1  and  C_2
REMARK    2  A    between atoms: C_2  and  C_6
REMARK    3  A    between atoms: C_3  and  C_4
REMARK    4  A    between atoms: C_4  and  O_5
REMARK    5  A    between atoms: C_7  and  C_8
REMARK    6  A    between atoms: C_9  and  C_10
REMARK    7  A    between atoms: C_9  and  C_11
REMARK    8  A    between atoms: C_12  and  C_13
REMARK    9  A    between atoms: C_14  and  C_15
REMARK   10  A    between atoms: C_19  and  C_20
REMARK   11  A    between atoms: C_19  and  C_21
REMARK                            x       y       z     vdW  Elec       q    Type
REMARK                         _______ _______ _______ _____ _____    ______ ____
ROOT
ATOM      1  C   UNL     1       8.496   0.290  23.756  0.00  0.00    +0.003 C 
ATOM      2  C   UNL     1       8.549  -0.656  24.721  0.00  0.00    -0.050 C 
ATOM      3  C   UNL     1       9.162  -0.452  26.093  0.00  0.00    +0.044 C 
ENDROOT
BRANCH   1   5
ATOM      4  C   UNL     1      10.162   2.108  23.350  0.00  0.00    +0.003 C 
ATOM      5  C   UNL     1       9.022   1.634  23.879  0.00  0.00    +0.001 C 
BRANCH   4   7
ATOM      6  C   UNL     1       9.598   4.522  23.951  0.00  0.00    +0.043 C 
ATOM      7  C   UNL     1      10.621   3.498  23.514  0.00  0.00    -0.052 C 
ATOM      8  C   UNL     1      11.905   3.821  23.249  0.00  0.00    +0.004 C 
BRANCH   8   9
ATOM      9  C   UNL     1      12.525   5.180  23.366  0.00  0.00    +0.183 C 
BRANCH   9  10
ATOM     10  O   UNL     1      13.931   5.052  23.225  0.00  0.00    -0.391 OA
ATOM     11  H   UNL     1      14.084   4.523  22.422  0.00  0.00    +0.210 HD
ENDBRANCH   9  10
ENDBRANCH   8   9
ENDBRANCH   4   7
ENDBRANCH   1   5
BRANCH   2  12
ATOM     12  C   UNL     1       7.962  -1.980  24.474  0.00  0.00    +0.003 C 
ATOM     13  C   UNL     1       6.712  -2.354  24.805  0.00  0.00    +0.004 C 
BRANCH  13  14
ATOM     14  C   UNL     1       6.111  -3.655  24.508  0.00  0.00    -0.043 C 
ATOM     15  C   UNL     1       5.976  -4.617  25.703  0.00  0.00    -0.010 C 
ATOM     16  C   UNL     1       7.353  -4.806  26.391  0.00  0.00    +0.016 C 
ATOM     17  C   UNL     1       5.005  -4.017  26.755  0.00  0.00    +0.016 C 
ATOM     18  C   UNL     1       5.455  -6.042  25.352  0.00  0.00    +0.011 C 
ATOM     19  C   UNL     1       4.915  -6.325  23.961  0.00  0.00    +0.005 C 
ATOM     20  C   UNL     1       5.012  -5.242  22.904  0.00  0.00    +0.031 C 
ATOM     21  C   UNL     1       5.648  -3.935  23.272  0.00  0.00    -0.069 C 
ATOM     22  C   UNL     1       5.656  -2.968  22.105  0.00  0.00    +0.039 C 
ENDBRANCH  13  14
ENDBRANCH   2  12
TORSDOF 6
ENDMDL
MODEL 4
REMARK VINA RESULT:      -5.9      3.499      8.918
REMARK  Name = 
REMARK  11 active torsions:
REMARK  status: ('A' for Active; 'I' for Inactive)
REMARK    1  A    between atoms: C_1  and  C_2
REMARK    2  A    between atoms: C_2  and  C_6
REMARK    3  A    between atoms: C_3  and  C_4
REMARK    4  A    between atoms: C_4  and  O_5
REMARK    5  A    between atoms: C_7  and  C_8
REMARK    6  A    between atoms: C_9  and  C_10
REMARK    7  A    between atoms: C_9  and  C_11
REMARK    8  A    between atoms: C_12  and  C_13
REMARK    9  A    between atoms: C_14  and  C_15
REMARK   10  A    between atoms: C_19  and  C_20
REMARK   11  A    between atoms: C_19  and  C_21
REMARK                            x       y       z     vdW  Elec       q    Type
REMARK                         _______ _______ _______ _____ _____    ______ ____
ROOT
ATOM      1  C   UNL     1       7.508  -0.250  22.998  0.00  0.00    +0.003 C 
ATOM      2  C   UNL     1       8.474   0.453  22.364  0.00  0.00    -0.050 C 
ATOM      3  C   UNL     1       9.455  -0.137  21.369  0.00  0.00    +0.044 C 
ENDROOT
BRANCH   1   5
ATOM      4  C   UNL     1       7.740  -2.663  23.601  0.00  0.00    +0.003 C 
ATOM      5  C   UNL     1       7.266  -1.668  22.833  0.00  0.00    +0.001 C 
BRANCH   4   7
ATOM      6  C   UNL     1       7.488  -5.012  24.564  0.00  0.00    +0.043 C 
ATOM      7  C   UNL     1       7.437  -4.086  23.371  0.00  0.00    -0.052 C 
ATOM      8  C   UNL     1       7.156  -4.523  22.123  0.00  0.00    +0.004 C 
BRANCH   8   9
ATOM      9  C   UNL     1       6.828  -5.929  21.724  0.00  0.00    +0.183 C 
BRANCH   9  10
ATOM     10  O   UNL     1       5.425  -6.036  21.546  0.00  0.00    -0.391 OA
ATOM     11  H   UNL     1       5.013  -5.628  22.328  0.00  0.00    +0.210 HD
ENDBRANCH   9  10
ENDBRANCH   8   9
ENDBRANCH   4   7
ENDBRANCH   1   5
BRANCH   2  12
ATOM     12  C   UNL     1       8.602   1.896  22.608  0.00  0.00    +0.003 C 
ATOM     13  C   UNL     1       8.872   2.467  23.797  0.00  0.00    +0.004 C 
BRANCH  13  14
ATOM     14  C   UNL     1       9.054   3.900  24.025  0.00  0.00    -0.043 C 
ATOM     15  C   UNL     1       7.855   4.634  24.652  0.00  0.00    -0.010 C 
ATOM     16  C   UNL     1       6.578   4.383  23.807  0.00  0.00    +0.016 C 
ATOM     17  C   UNL     1       7.587   4.085  26.078  0.00  0.00    +0.016 C 
ATOM     18  C   UNL     1       8.010   6.179  24.773  0.00  0.00    +0.011 C 
ATOM     19  C   UNL     1       9.357   6.823  24.496  0.00  0.00    +0.005 C 
ATOM     20  C   UNL     1      10.492   5.958  23.984  0.00  0.00    +0.031 C 
ATOM     21  C   UNL     1      10.236   4.497  23.762  0.00  0.00    -0.069 C 
ATOM     22  C   UNL     1      11.474   3.782  23.259  0.00  0.00    +0.039 C 
ENDBRANCH  13  14
ENDBRANCH   2  12
TORSDOF 6
ENDMDL
MODEL 5
REMARK VINA RESULT:      -5.8      3.900      9.062
REMARK  Name = 
REMARK  11 active torsions:
REMARK  status: ('A' for Active; 'I' for Inactive)
REMARK    1  A    between atoms: C_1  and  C_2
REMARK    2  A    between atoms: C_2  and  C_6
REMARK    3  A    between atoms: C_3  and  C_4
REMARK    4  A    between atoms: C_4  and  O_5
REMARK    5  A    between atoms: C_7  and  C_8
REMARK    6  A    between atoms: C_9  and  C_10
REMARK    7  A    between atoms: C_9  and  C_11
REMARK    8  A    between atoms: C_12  and  C_13
REMARK    9  A    between atoms: C_14  and  C_15
REMARK   10  A    between atoms: C_19  and  C_20
REMARK   11  A    between atoms: C_19  and  C_21
REMARK                            x       y       z     vdW  Elec       q    Type
REMARK                         _______ _______ _______ _____ _____    ______ ____
ROOT
ATOM      1  C   UNL     1       7.057  -1.568  22.790  0.00  0.00    +0.003 C 
ATOM      2  C   UNL     1       6.814  -0.540  23.636  0.00  0.00    -0.050 C 
ATOM      3  C   UNL     1       5.845  -0.595  24.801  0.00  0.00    +0.044 C 
ENDROOT
BRANCH   1   5
ATOM      4  C   UNL     1       7.037  -4.064  22.891  0.00  0.00    +0.003 C 
ATOM      5  C   UNL     1       6.425  -2.869  22.859  0.00  0.00    +0.001 C 
BRANCH   4   7
ATOM      6  C   UNL     1       6.689  -6.420  21.974  0.00  0.00    +0.043 C 
ATOM      7  C   UNL     1       6.317  -5.347  22.972  0.00  0.00    -0.052 C 
ATOM      8  C   UNL     1       5.345  -5.518  23.895  0.00  0.00    +0.004 C 
BRANCH   8   9
ATOM      9  C   UNL     1       4.524  -6.753  24.106  0.00  0.00    +0.183 C 
BRANCH   9  10
ATOM     10  O   UNL     1       3.438  -6.739  23.193  0.00  0.00    -0.391 OA
ATOM     11  H   UNL     1       3.027  -7.620  23.235  0.00  0.00    +0.210 HD
ENDBRANCH   9  10
ENDBRANCH   8   9
ENDBRANCH   4   7
ENDBRANCH   1   5
BRANCH   2  12
ATOM     12  C   UNL     1       7.538   0.727  23.466  0.00  0.00    +0.003 C 
ATOM     13  C   UNL     1       8.263   1.346  24.416  0.00  0.00    +0.004 C 
BRANCH  13  14
ATOM     14  C   UNL     1       9.028   2.579  24.228  0.00  0.00    -0.043 C 
ATOM     15  C   UNL     1      10.368   2.427  23.485  0.00  0.00    -0.010 C 
ATOM     16  C   UNL     1      11.244   1.353  24.182  0.00  0.00    +0.016 C 
ATOM     17  C   UNL     1      10.113   1.950  22.030  0.00  0.00    +0.016 C 
ATOM     18  C   UNL     1      11.232   3.720  23.402  0.00  0.00    +0.011 C 
ATOM     19  C   UNL     1      10.640   5.050  23.833  0.00  0.00    +0.005 C 
ATOM     20  C   UNL     1       9.256   5.069  24.453  0.00  0.00    +0.031 C 
ATOM     21  C   UNL     1       8.530   3.768  24.626  0.00  0.00    -0.069 C 
ATOM     22  C   UNL     1       7.164   3.969  25.251  0.00  0.00    +0.039 C 
ENDBRANCH  13  14
ENDBRANCH   2  12
TORSDOF 6
ENDMDL
MODEL 6
REMARK VINA RESULT:      -5.7      1.959      3.363
REMARK  Name = 
REMARK  11 active torsions:
REMARK  status: ('A' for Active; 'I' for Inactive)
REMARK    1  A    between atoms: C_1  and  C_2
REMARK    2  A    between atoms: C_2  and  C_6
REMARK    3  A    between atoms: C_3  and  C_4
REMARK    4  A    between atoms: C_4  and  O_5
REMARK    5  A    between atoms: C_7  and  C_8
REMARK    6  A    between atoms: C_9  and  C_10
REMARK    7  A    between atoms: C_9  and  C_11
REMARK    8  A    between atoms: C_12  and  C_13
REMARK    9  A    between atoms: C_14  and  C_15
REMARK   10  A    between atoms: C_19  and  C_20
REMARK   11  A    between atoms: C_19  and  C_21
REMARK                            x       y       z     vdW  Elec       q    Type
REMARK                         _______ _______ _______ _____ _____    ______ ____
ROOT
ATOM      1  C   UNL     1       7.279   0.067  23.983  0.00  0.00    +0.003 C 
ATOM      2  C   UNL     1       7.786  -1.183  24.083  0.00  0.00    -0.050 C 
ATOM      3  C   UNL     1       9.243  -1.542  23.857  0.00  0.00    +0.044 C 
ENDROOT
BRANCH   1   5
ATOM      4  C   UNL     1       8.763   2.018  24.470  0.00  0.00    +0.003 C 
ATOM      5  C   UNL     1       8.042   1.249  23.637  0.00  0.00    +0.001 C 
BRANCH   4   7
ATOM      6  C   UNL     1      10.848   2.967  23.347  0.00  0.00    +0.043 C 
ATOM      7  C   UNL     1       9.522   3.202  24.033  0.00  0.00    -0.052 C 
ATOM      8  C   UNL     1       9.039   4.440  24.277  0.00  0.00    +0.004 C 
BRANCH   8   9
ATOM      9  C   UNL     1       9.685   5.739  23.900  0.00  0.00    +0.183 C 
BRANCH   9  10
ATOM     10  O   UNL     1       9.043   6.246  22.742  0.00  0.00    -0.391 OA
ATOM     11  H   UNL     1       8.750   7.149  22.958  0.00  0.00    +0.210 HD
ENDBRANCH   9  10
ENDBRANCH   8   9
ENDBRANCH   4   7
ENDBRANCH   1   5
BRANCH   2  12
ATOM     12  C   UNL     1       6.905  -2.297  24.459  0.00  0.00    +0.003 C 
ATOM     13  C   UNL     1       7.182  -3.604  24.291  0.00  0.00    +0.004 C 
BRANCH  13  14
ATOM     14  C   UNL     1       6.327  -4.711  24.717  0.00  0.00    -0.043 C 
ATOM     15  C   UNL     1       5.434  -5.325  23.623  0.00  0.00    -0.010 C 
ATOM     16  C   UNL     1       4.582  -4.218  22.949  0.00  0.00    +0.016 C 
ATOM     17  C   UNL     1       6.318  -5.970  22.522  0.00  0.00    +0.016 C 
ATOM     18  C   UNL     1       4.437  -6.416  24.114  0.00  0.00    +0.011 C 
ATOM     19  C   UNL     1       4.549  -6.956  25.528  0.00  0.00    +0.005 C 
ATOM     20  C   UNL     1       5.554  -6.329  26.475  0.00  0.00    +0.031 C 
ATOM     21  C   UNL     1       6.394  -5.190  25.977  0.00  0.00    -0.069 C 
ATOM     22  C   UNL     1       7.346  -4.689  27.044  0.00  0.00    +0.039 C 
ENDBRANCH  13  14
ENDBRANCH   2  12
TORSDOF 6
ENDMDL
MODEL 7
REMARK VINA RESULT:      -5.6      4.780      9.767
REMARK  Name = 
REMARK  11 active torsions:
REMARK  status: ('A' for Active; 'I' for Inactive)
REMARK    1  A    between atoms: C_1  and  C_2
REMARK    2  A    between atoms: C_2  and  C_6
REMARK    3  A    between atoms: C_3  and  C_4
REMARK    4  A    between atoms: C_4  and  O_5
REMARK    5  A    between atoms: C_7  and  C_8
REMARK    6  A    between atoms: C_9  and  C_10
REMARK    7  A    between atoms: C_9  and  C_11
REMARK    8  A    between atoms: C_12  and  C_13
REMARK    9  A    between atoms: C_14  and  C_15
REMARK   10  A    between atoms: C_19  and  C_20
REMARK   11  A    between atoms: C_19  and  C_21
REMARK                            x       y       z     vdW  Elec       q    Type
REMARK                         _______ _______ _______ _____ _____    ______ ____
ROOT
ATOM      1  C   UNL     1       4.851  -3.959  23.966  0.00  0.00    +0.003 C 
ATOM      2  C   UNL     1       5.687  -3.350  23.095  0.00  0.00    -0.050 C 
ATOM      3  C   UNL     1       5.702  -3.599  21.599  0.00  0.00    +0.044 C 
ENDROOT
BRANCH   1   5
ATOM      4  C   UNL     1       3.614  -6.115  24.228  0.00  0.00    +0.003 C 
ATOM      5  C   UNL     1       3.853  -4.946  23.610  0.00  0.00    +0.001 C 
BRANCH   4   7
ATOM      6  C   UNL     1       2.296  -8.246  24.703  0.00  0.00    +0.043 C 
ATOM      7  C   UNL     1       2.567  -7.061  23.806  0.00  0.00    -0.052 C 
ATOM      8  C   UNL     1       1.911  -6.866  22.641  0.00  0.00    +0.004 C 
BRANCH   8   9
ATOM      9  C   UNL     1       0.827  -7.730  22.074  0.00  0.00    +0.183 C 
BRANCH   9  10
ATOM     10  O   UNL     1       1.417  -8.697  21.220  0.00  0.00    -0.391 OA
ATOM     11  H   UNL     1       1.981  -8.211  20.595  0.00  0.00    +0.210 HD
ENDBRANCH   9  10
ENDBRANCH   8   9
ENDBRANCH   4   7
ENDBRANCH   1   5
BRANCH   2  12
ATOM     12  C   UNL     1       6.647  -2.351  23.586  0.00  0.00    +0.003 C 
ATOM     13  C   UNL     1       7.040  -1.251  22.918  0.00  0.00    +0.004 C 
BRANCH  13  14
ATOM     14  C   UNL     1       7.953  -0.230  23.432  0.00  0.00    -0.043 C 
ATOM     15  C   UNL     1       9.434  -0.407  23.053  0.00  0.00    -0.010 C 
ATOM     16  C   UNL     1       9.923  -1.820  23.466  0.00  0.00    +0.016 C 
ATOM     17  C   UNL     1       9.604  -0.284  21.515  0.00  0.00    +0.016 C 
ATOM     18  C   UNL     1      10.414   0.611  23.709  0.00  0.00    +0.011 C 
ATOM     19  C   UNL     1       9.862   1.806  24.466  0.00  0.00    +0.005 C 
ATOM     20  C   UNL     1       8.364   1.914  24.672  0.00  0.00    +0.031 C 
ATOM     21  C   UNL     1       7.484   0.828  24.128  0.00  0.00    -0.069 C 
ATOM     22  C   UNL     1       6.021   1.096  24.414  0.00  0.00    +0.039 C 
ENDBRANCH  13  14
ENDBRANCH   2  12
TORSDOF 6
ENDMDL
MODEL 8
REMARK VINA RESULT:      -5.4      4.581      9.539
REMARK  Name = 
REMARK  11 active torsions:
REMARK  status: ('A' for Active; 'I' for Inactive)
REMARK    1  A    between atoms: C_1  and  C_2
REMARK    2  A    between atoms: C_2  and  C_6
REMARK    3  A    between atoms: C_3  and  C_4
REMARK    4  A    between atoms: C_4  and  O_5
REMARK    5  A    between atoms: C_7  and  C_8
REMARK    6  A    between atoms: C_9  and  C_10
REMARK    7  A    between atoms: C_9  and  C_11
REMARK    8  A    between atoms: C_12  and  C_13
REMARK    9  A    between atoms: C_14  and  C_15
REMARK   10  A    between atoms: C_19  and  C_20
REMARK   11  A    between atoms: C_19  and  C_21
REMARK                            x       y       z     vdW  Elec       q    Type
REMARK                         _______ _______ _______ _____ _____    ______ ____
ROOT
ATOM      1  C   UNL     1       5.083  -3.151  24.500  0.00  0.00    +0.003 C 
ATOM      2  C   UNL     1       5.750  -2.638  23.441  0.00  0.00    -0.050 C 
ATOM      3  C   UNL     1       5.661  -3.175  22.025  0.00  0.00    +0.044 C 
ENDROOT
BRANCH   1   5
ATOM      4  C   UNL     1       3.333  -4.604  23.464  0.00  0.00    +0.003 C 
ATOM      5  C   UNL     1       4.193  -4.292  24.449  0.00  0.00    +0.001 C 
BRANCH   4   7
ATOM      6  C   UNL     1       1.117  -5.688  22.815  0.00  0.00    +0.043 C 
ATOM      7  C   UNL     1       2.467  -5.795  23.486  0.00  0.00    -0.052 C 
ATOM      8  C   UNL     1       2.879  -6.918  24.115  0.00  0.00    +0.004 C 
BRANCH   8   9
ATOM      9  C   UNL     1       2.122  -8.206  24.226  0.00  0.00    +0.183 C 
BRANCH   9  10
ATOM     10  O   UNL     1       2.771  -9.034  25.178  0.00  0.00    -0.391 OA
ATOM     11  H   UNL     1       3.716  -8.805  25.148  0.00  0.00    +0.210 HD
ENDBRANCH   9  10
ENDBRANCH   8   9
ENDBRANCH   4   7
ENDBRANCH   1   5
BRANCH   2  12
ATOM     12  C   UNL     1       6.612  -1.462  23.625  0.00  0.00    +0.003 C 
ATOM     13  C   UNL     1       7.916  -1.391  23.297  0.00  0.00    +0.004 C 
BRANCH  13  14
ATOM     14  C   UNL     1       8.757  -0.201  23.430  0.00  0.00    -0.043 C 
ATOM     15  C   UNL     1       8.807   0.723  22.200  0.00  0.00    -0.010 C 
ATOM     16  C   UNL     1       9.218  -0.088  20.942  0.00  0.00    +0.016 C 
ATOM     17  C   UNL     1       7.400   1.320  21.932  0.00  0.00    +0.016 C 
ATOM     18  C   UNL     1       9.803   1.915  22.304  0.00  0.00    +0.011 C 
ATOM     19  C   UNL     1      10.470   2.224  23.632  0.00  0.00    +0.005 C 
ATOM     20  C   UNL     1      10.246   1.285  24.801  0.00  0.00    +0.031 C 
ATOM     21  C   UNL     1       9.379   0.078  24.595  0.00  0.00    -0.069 C 
ATOM     22  C   UNL     1       9.255  -0.745  25.861  0.00  0.00    +0.039 C 
ENDBRANCH  13  14
ENDBRANCH   2  12
TORSDOF 6
ENDMDL
MODEL 9
REMARK VINA RESULT:      -5.4      3.899      9.229
REMARK  Name = 
REMARK  11 active torsions:
REMARK  status: ('A' for Active; 'I' for Inactive)
REMARK    1  A    between atoms: C_1  and  C_2
REMARK    2  A    between atoms: C_2  and  C_6
REMARK    3  A    between atoms: C_3  and  C_4
REMARK    4  A    between atoms: C_4  and  O_5
REMARK    5  A    between atoms: C_7  and  C_8
REMARK    6  A    between atoms: C_9  and  C_10
REMARK    7  A    between atoms: C_9  and  C_11
REMARK    8  A    between atoms: C_12  and  C_13
REMARK    9  A    between atoms: C_14  and  C_15
REMARK   10  A    between atoms: C_19  and  C_20
REMARK   11  A    between atoms: C_19  and  C_21
REMARK                            x       y       z     vdW  Elec       q    Type
REMARK                         _______ _______ _______ _____ _____    ______ ____
ROOT
ATOM      1  C   UNL     1       7.381  -1.187  23.342  0.00  0.00    +0.003 C 
ATOM      2  C   UNL     1       7.005  -0.128  24.096  0.00  0.00    -0.050 C 
ATOM      3  C   UNL     1       5.717  -0.055  24.893  0.00  0.00    +0.044 C 
ENDROOT
BRANCH   1   5
ATOM      4  C   UNL     1       6.851  -3.395  22.298  0.00  0.00    +0.003 C 
ATOM      5  C   UNL     1       6.612  -2.403  23.172  0.00  0.00    +0.001 C 
BRANCH   4   7
ATOM      6  C   UNL     1       6.355  -5.589  21.096  0.00  0.00    +0.043 C 
ATOM      7  C   UNL     1       6.023  -4.609  22.197  0.00  0.00    -0.052 C 
ATOM      8  C   UNL     1       4.994  -4.797  23.053  0.00  0.00    +0.004 C 
BRANCH   8   9
ATOM      9  C   UNL     1       4.063  -5.970  23.082  0.00  0.00    +0.183 C 
BRANCH   9  10
ATOM     10  O   UNL     1       4.749  -7.080  23.638  0.00  0.00    -0.391 OA
ATOM     11  H   UNL     1       4.427  -7.178  24.551  0.00  0.00    +0.210 HD
ENDBRANCH   9  10
ENDBRANCH   8   9
ENDBRANCH   4   7
ENDBRANCH   1   5
BRANCH   2  12
ATOM     12  C   UNL     1       7.887   1.042  24.197  0.00  0.00    +0.003 C 
ATOM     13  C   UNL     1       7.974   2.035  23.293  0.00  0.00    +0.004 C 
BRANCH  13  14
ATOM     14  C   UNL     1       8.812   3.227  23.424  0.00  0.00    -0.043 C 
ATOM     15  C   UNL     1       8.059   4.568  23.498  0.00  0.00    -0.010 C 
ATOM     16  C   UNL     1       7.108   4.712  22.281  0.00  0.00    +0.016 C 
ATOM     17  C   UNL     1       7.188   4.613  24.781  0.00  0.00    +0.016 C 
ATOM     18  C   UNL     1       8.962   5.837  23.508  0.00  0.00    +0.011 C 
ATOM     19  C   UNL     1      10.465   5.690  23.669  0.00  0.00    +0.005 C 
ATOM     20  C   UNL     1      11.067   4.299  23.691  0.00  0.00    +0.031 C 
ATOM     21  C   UNL     1      10.152   3.119  23.543  0.00  0.00    -0.069 C 
ATOM     22  C   UNL     1      10.914   1.810  23.595  0.00  0.00    +0.039 C 
ENDBRANCH  13  14
ENDBRANCH   2  12
TORSDOF 6
ENDMDL
