MODEL 1
REMARK VINA RESULT:      -3.6      0.000      0.000
REMARK  Name = 
REMARK  17 active torsions:
REMARK  status: ('A' for Active; 'I' for Inactive)
REMARK    1  A    between atoms: C_4  and  O_5
REMARK    2  A    between atoms: C_6  and  C_8
REMARK    3  A    between atoms: C_10  and  O_12
REMARK    4  A    between atoms: O_12  and  C_13
REMARK    5  A    between atoms: C_28  and  C_55
REMARK    6  A    between atoms: C_30  and  C_32
REMARK    7  A    between atoms: C_33  and  O_35
REMARK    8  A    between atoms: C_39  and  C_41
REMARK    9  A    between atoms: C_41  and  C_42
REMARK   10  A    between atoms: C_44  and  C_45
REMARK   11  A    between atoms: C_47  and  C_49
REMARK   12  A    between atoms: C_51  and  O_53
REMARK   13  A    between atoms: O_53  and  C_54
REMARK   14  A    between atoms: C_55  and  C_56
REMARK   15  A    between atoms: C_57  and  C_58
REMARK   16  A    between atoms: C_65  and  O_68
REMARK   17  A    between atoms: O_68  and  C_69
REMARK                            x       y       z     vdW  Elec       q    Type
REMARK                         _______ _______ _______ _____ _____    ______ ____
ROOT
ATOM      1  C   UNL     1       5.786   3.883  25.234  0.00  0.00    +0.179 C 
ATOM      2  C   UNL     1       6.391   2.210  26.213  0.00  0.00    +0.149 C 
ATOM      3  C   UNL     1       6.630   0.117  26.525  0.00  0.00    +0.038 C 
ATOM      4  C   UNL     1       6.204  -2.024  26.432  0.00  0.00    -0.008 C 
ATOM      5  C   UNL     1       7.073  -3.312  27.483  0.00  0.00    +0.008 C 
ATOM      6  C   UNL     1       5.711  -3.891  25.627  0.00  0.00    +0.033 C 
ATOM      7  C   UNL     1       5.088  -5.527  26.369  0.00  0.00    -0.076 C 
ATOM      8  C   UNL     1       4.207  -6.984  26.095  0.00  0.00    +0.039 C 
ATOM      9  C   UNL     1       4.398  -5.392  27.501  0.00  0.00    -0.017 C 
ATOM     10  C   UNL     1       3.216  -4.563  27.214  0.00  0.00    +0.078 C 
ATOM     11  C   UNL     1       3.691  -3.247  27.630  0.00  0.00    +0.143 C 
ATOM     12  O   UNL     1       4.553  -3.081  28.486  0.00  0.00    -0.297 OA
ATOM     13  C   UNL     1       2.763  -2.241  27.143  0.00  0.00    +0.106 C 
ATOM     14  C   UNL     1       3.396  -0.934  27.109  0.00  0.00    +0.128 C 
ATOM     15  C   UNL     1       2.381   0.208  27.134  0.00  0.00    +0.060 C 
ATOM     16  C   UNL     1       1.084  -0.295  26.470  0.00  0.00    +0.014 C 
ATOM     17  C   UNL     1       2.979   1.642  26.719  0.00  0.00    +0.207 C 
ATOM     18  O   UNL     1       3.552   1.676  25.119  0.00  0.00    -0.455 OA
ATOM     19  C   UNL     1       4.672   0.895  24.963  0.00  0.00    +0.328 C 
ATOM     20  O   UNL     1       4.779   0.542  26.119  0.00  0.00    -0.249 OA
ATOM     21  C   UNL     1       6.122   0.624  23.768  0.00  0.00    +0.185 C 
ATOM     22  N   UNL     1       7.234   1.648  23.462  0.00  0.00    -0.282 N 
ATOM     23  C   UNL     1       8.491   1.816  24.345  0.00  0.00    +0.109 C 
ATOM     24  C   UNL     1       9.497   0.727  24.424  0.00  0.00    +0.019 C 
ATOM     25  C   UNL     1       8.665  -0.546  24.588  0.00  0.00    +0.004 C 
ATOM     26  C   UNL     1       6.951   2.366  22.339  0.00  0.00    +0.288 C 
ATOM     27  O   UNL     1       7.594   2.437  21.306  0.00  0.00    -0.267 OA
ATOM     28  C   UNL     1       5.596   3.009  22.501  0.00  0.00    +0.276 C 
ATOM     29  O   UNL     1       4.632   2.345  22.875  0.00  0.00    -0.281 OA
ATOM     30  C   UNL     1       5.636   4.448  22.732  0.00  0.00    +0.240 C 
ATOM     31  C   UNL     1       4.183   4.855  23.091  0.00  0.00    +0.056 C 
ATOM     32  C   UNL     1       3.116   4.538  22.060  0.00  0.00    +0.013 C 
ATOM     33  C   UNL     1       4.286   6.200  23.663  0.00  0.00    +0.043 C 
ATOM     34  C   UNL     1       7.284  -0.593  23.698  0.00  0.00    +0.034 C 
ATOM     35  C   UNL     1       5.268   5.771  24.974  0.00  0.00    +0.150 C 
ATOM     36  O   UNL     1       6.536   4.217  23.892  0.00  0.00    -0.334 OA
ENDROOT
BRANCH  17  37
ATOM     37  C   UNL     1       4.070   2.304  27.881  0.00  0.00    -0.036 C 
ATOM     38  C   UNL     1       4.059   3.618  28.173  0.00  0.00    -0.021 C 
ATOM     39  C   UNL     1       5.139   1.540  28.674  0.00  0.00    +0.042 C 
BRANCH  38  40
ATOM     40  C   UNL     1       5.023   4.499  29.000  0.00  0.00    +0.014 C 
ATOM     41  C   UNL     1       6.354   3.767  29.095  0.00  0.00    +0.040 C 
ATOM     42  C   UNL     1       7.068   4.192  30.376  0.00  0.00    +0.136 C 
ATOM     43  C   UNL     1       7.325   5.718  30.485  0.00  0.00    +0.109 C 
ATOM     44 CL   UNL     1       8.574   6.306  29.343  0.00  0.00    -0.119 Cl
ATOM     45  C   UNL     1       6.028   6.453  30.239  0.00  0.00    +0.022 C 
ATOM     46  C   UNL     1       5.455   6.007  28.877  0.00  0.00    +0.009 C 
BRANCH  42  47
ATOM     47  O   UNL     1       8.249   3.410  30.481  0.00  0.00    -0.378 OA
ATOM     48  C   UNL     1       7.974   2.026  30.359  0.00  0.00    +0.194 C 
ENDBRANCH  42  47
ENDBRANCH  38  40
ENDBRANCH  17  37
BRANCH   2  49
ATOM     49  O   UNL     1       7.907   3.018  26.577  0.00  0.00    -0.377 OA
ATOM     50  C   UNL     1       8.240   4.548  26.441  0.00  0.00    +0.194 C 
ENDBRANCH   2  49
BRANCH  10  51
ATOM     51  C   UNL     1       1.996  -4.725  28.063  0.00  0.00    +0.012 C 
ATOM     52  C   UNL     1       0.726  -5.255  28.638  0.00  0.00    +0.005 C 
ENDBRANCH  10  51
BRANCH  14  53
ATOM     53  O   UNL     1       4.261  -0.799  28.203  0.00  0.00    -0.391 OA
ATOM     54  H   UNL     1       4.466   0.133  28.338  0.00  0.00    +0.210 HD
ENDBRANCH  14  53
BRANCH  30  55
ATOM     55  O   UNL     1       6.207   5.178  21.654  0.00  0.00    -0.358 OA
ATOM     56  H   UNL     1       5.986   4.766  20.800  0.00  0.00    +0.213 HD
ENDBRANCH  30  55
BRANCH  35  57
ATOM     57  O   UNL     1       6.263   7.108  24.499  0.00  0.00    -0.377 OA
ATOM     58  C   UNL     1       7.797   7.058  24.008  0.00  0.00    +0.194 C 
ENDBRANCH  35  57
TORSDOF 8
ENDMDL
MODEL 2
REMARK VINA RESULT:      -1.7      3.200      8.840
REMARK  Name = 
REMARK  17 active torsions:
REMARK  status: ('A' for Active; 'I' for Inactive)
REMARK    1  A    between atoms: C_4  and  O_5
REMARK    2  A    between atoms: C_6  and  C_8
REMARK    3  A    between atoms: C_10  and  O_12
REMARK    4  A    between atoms: O_12  and  C_13
REMARK    5  A    between atoms: C_28  and  C_55
REMARK    6  A    between atoms: C_30  and  C_32
REMARK    7  A    between atoms: C_33  and  O_35
REMARK    8  A    between atoms: C_39  and  C_41
REMARK    9  A    between atoms: C_41  and  C_42
REMARK   10  A    between atoms: C_44  and  C_45
REMARK   11  A    between atoms: C_47  and  C_49
REMARK   12  A    between atoms: C_51  and  O_53
REMARK   13  A    between atoms: O_53  and  C_54
REMARK   14  A    between atoms: C_55  and  C_56
REMARK   15  A    between atoms: C_57  and  C_58
REMARK   16  A    between atoms: C_65  and  O_68
REMARK   17  A    between atoms: O_68  and  C_69
REMARK                            x       y       z     vdW  Elec       q    Type
REMARK                         _______ _______ _______ _____ _____    ______ ____
ROOT
ATOM      1  C   UNL     1       6.166  -3.533  25.974  0.00  0.00    +0.179 C 
ATOM      2  C   UNL     1       5.402  -1.758  25.351  0.00  0.00    +0.149 C 
ATOM      3  C   UNL     1       5.470   0.248  24.639  0.00  0.00    +0.038 C 
ATOM      4  C   UNL     1       6.216   2.277  24.317  0.00  0.00    -0.008 C 
ATOM      5  C   UNL     1       5.180   3.673  23.614  0.00  0.00    +0.008 C 
ATOM      6  C   UNL     1       7.538   3.827  23.842  0.00  0.00    +0.033 C 
ATOM      7  C   UNL     1       7.561   5.696  24.187  0.00  0.00    -0.076 C 
ATOM      8  C   UNL     1       8.532   7.107  24.388  0.00  0.00    +0.039 C 
ATOM      9  C   UNL     1       6.905   6.062  25.287  0.00  0.00    -0.017 C 
ATOM     10  C   UNL     1       7.543   5.397  26.436  0.00  0.00    +0.078 C 
ATOM     11  C   UNL     1       6.677   4.233  26.598  0.00  0.00    +0.143 C 
ATOM     12  O   UNL     1       5.498   4.217  26.262  0.00  0.00    -0.297 OA
ATOM     13  C   UNL     1       7.323   3.294  27.500  0.00  0.00    +0.106 C 
ATOM     14  C   UNL     1       6.765   1.963  27.339  0.00  0.00    +0.128 C 
ATOM     15  C   UNL     1       6.989   1.082  28.568  0.00  0.00    +0.060 C 
ATOM     16  C   UNL     1       8.289   1.549  29.255  0.00  0.00    +0.014 C 
ATOM     17  C   UNL     1       6.744  -0.487  28.318  0.00  0.00    +0.207 C 
ATOM     18  O   UNL     1       7.818  -1.145  27.175  0.00  0.00    -0.455 OA
ATOM     19  C   UNL     1       7.576  -0.661  25.912  0.00  0.00    +0.328 C 
ATOM     20  O   UNL     1       6.619   0.031  26.190  0.00  0.00    -0.249 OA
ATOM     21  C   UNL     1       7.947  -1.050  24.092  0.00  0.00    +0.185 C 
ATOM     22  N   UNL     1       7.449  -2.290  23.322  0.00  0.00    -0.282 N 
ATOM     23  C   UNL     1       6.055  -2.365  22.657  0.00  0.00    +0.109 C 
ATOM     24  C   UNL     1       5.736  -1.498  21.495  0.00  0.00    +0.019 C 
ATOM     25  C   UNL     1       6.272  -0.121  21.891  0.00  0.00    +0.004 C 
ATOM     26  C   UNL     1       8.384  -3.280  23.318  0.00  0.00    +0.288 C 
ATOM     27  O   UNL     1       8.935  -3.797  22.362  0.00  0.00    -0.267 OA
ATOM     28  C   UNL     1       8.765  -3.595  24.745  0.00  0.00    +0.276 C 
ATOM     29  O   UNL     1       9.055  -2.692  25.525  0.00  0.00    -0.281 OA
ATOM     30  C   UNL     1       8.240  -4.861  25.241  0.00  0.00    +0.240 C 
ATOM     31  C   UNL     1       8.551  -4.875  26.761  0.00  0.00    +0.056 C 
ATOM     32  C   UNL     1      10.010  -4.742  27.156  0.00  0.00    +0.013 C 
ATOM     33  C   UNL     1       7.727  -5.951  27.317  0.00  0.00    +0.043 C 
ATOM     34  C   UNL     1       7.706  -0.140  22.696  0.00  0.00    +0.034 C 
ATOM     35  C   UNL     1       6.231  -5.285  26.884  0.00  0.00    +0.150 C 
ATOM     36  O   UNL     1       6.870  -4.415  24.877  0.00  0.00    -0.334 OA
ENDROOT
BRANCH  17  37
ATOM     37  C   UNL     1       5.089  -0.902  28.061  0.00  0.00    -0.036 C 
ATOM     38  C   UNL     1       4.546  -1.987  28.644  0.00  0.00    -0.021 C 
ATOM     39  C   UNL     1       4.081  -0.148  27.181  0.00  0.00    +0.042 C 
BRANCH  38  40
ATOM     40  C   UNL     1       3.187  -2.693  28.444  0.00  0.00    +0.014 C 
ATOM     41  C   UNL     1       3.417  -4.191  28.580  0.00  0.00    +0.040 C 
ATOM     42  C   UNL     1       2.364  -4.936  27.762  0.00  0.00    +0.136 C 
ATOM     43  C   UNL     1       0.902  -4.615  28.167  0.00  0.00    +0.109 C 
ATOM     44 CL   UNL     1       0.446  -5.291  29.763  0.00  0.00    -0.119 Cl
ATOM     45  C   UNL     1       0.713  -3.116  28.179  0.00  0.00    +0.022 C 
ATOM     46  C   UNL     1       1.775  -2.490  29.109  0.00  0.00    +0.009 C 
BRANCH  42  47
ATOM     47  O   UNL     1       2.679  -6.319  27.828  0.00  0.00    -0.378 OA
ATOM     48  C   UNL     1       3.554  -6.607  28.903  0.00  0.00    +0.194 C 
ENDBRANCH  42  47
ENDBRANCH  38  40
ENDBRANCH  17  37
BRANCH   2  49
ATOM     49  O   UNL     1       4.186  -2.643  24.444  0.00  0.00    -0.377 OA
ATOM     50  C   UNL     1       3.155  -3.697  24.990  0.00  0.00    +0.194 C 
ENDBRANCH   2  49
BRANCH  10  51
ATOM     51  C   UNL     1       7.447   6.035  27.784  0.00  0.00    +0.012 C 
ATOM     52  C   UNL     1       7.773   6.816  29.013  0.00  0.00    +0.005 C 
ENDBRANCH  10  51
BRANCH  14  53
ATOM     53  O   UNL     1       5.389   2.054  27.088  0.00  0.00    -0.391 OA
ATOM     54  H   UNL     1       4.950   2.454  27.847  0.00  0.00    +0.210 HD
ENDBRANCH  14  53
BRANCH  30  55
ATOM     55  O   UNL     1       8.721  -5.992  24.528  0.00  0.00    -0.358 OA
ATOM     56  H   UNL     1       9.685  -5.935  24.395  0.00  0.00    +0.213 HD
ENDBRANCH  30  55
BRANCH  35  57
ATOM     57  O   UNL     1       5.866  -6.851  26.240  0.00  0.00    -0.377 OA
ATOM     58  C   UNL     1       4.648  -7.245  25.261  0.00  0.00    +0.194 C 
ENDBRANCH  35  57
TORSDOF 8
ENDMDL
