MODEL 1
REMARK VINA RESULT:      -6.7      0.000      0.000
REMARK  Name = 
REMARK  8 active torsions:
REMARK  status: ('A' for Active; 'I' for Inactive)
REMARK    1  A    between atoms: C_1  and  C_2
REMARK    2  A    between atoms: C_4  and  C_5
REMARK    3  A    between atoms: C_6  and  C_7
REMARK    4  A    between atoms: C_10  and  C_11
REMARK    5  A    between atoms: C_12  and  N_13
REMARK    6  A    between atoms: N_13  and  C_14
REMARK    7  A    between atoms: N_19  and  C_20
REMARK    8  A    between atoms: C_23  and  C_26
REMARK                            x       y       z     vdW  Elec       q    Type
REMARK                         _______ _______ _______ _____ _____    ______ ____
ROOT
ATOM      1  C   UNL     1       7.420  -3.872  25.004  0.00  0.00    +0.128 A 
ATOM      2  N   UNL     1       8.119  -2.867  24.469  0.00  0.00    -0.199 NA
ATOM      3  C   UNL     1       9.430  -3.028  24.229  0.00  0.00    +0.221 A 
ATOM      4  N   UNL     1      10.193  -1.994  23.684  0.00  0.00    -0.284 N 
ATOM      5  H   UNL     1      11.142  -2.312  23.546  0.00  0.00    +0.155 HD
ATOM      6  N   UNL     1      10.090  -4.168  24.492  0.00  0.00    -0.223 NA
ATOM      7  C   UNL     1       9.376  -5.163  25.043  0.00  0.00    +0.118 A 
ATOM      8  C   UNL     1       8.031  -5.070  25.313  0.00  0.00    +0.063 A 
ENDROOT
BRANCH   4   9
ATOM      9  C   UNL     1       9.948  -0.618  23.580  0.00  0.00    +0.034 A 
ATOM     10  C   UNL     1       9.832   0.154  24.747  0.00  0.00    +0.024 A 
ATOM     11  C   UNL     1       9.541   1.526  24.686  0.00  0.00    +0.020 A 
ATOM     12  C   UNL     1       9.373   2.155  23.451  0.00  0.00    +0.052 A 
ATOM     13  C   UNL     1       9.530   1.413  22.284  0.00  0.00    +0.020 A 
ATOM     14  C   UNL     1       9.823   0.049  22.355  0.00  0.00    +0.024 A 
BRANCH  12  15
ATOM     15  C   UNL     1       9.030   3.544  23.372  0.00  0.00    +0.099 C 
ATOM     16  N   UNL     1       8.736   4.663  23.302  0.00  0.00    -0.191 NA
ENDBRANCH  12  15
ENDBRANCH   4   9
BRANCH   1  17
ATOM     17  N   UNL     1       6.036  -3.743  25.255  0.00  0.00    -0.299 N 
ATOM     18  H   UNL     1       5.890  -3.145  26.058  0.00  0.00    +0.154 HD
BRANCH  17  21
ATOM     19  C   UNL     1       4.634  -5.118  27.547  0.00  0.00    +0.046 C 
ATOM     20  C   UNL     1       4.355  -5.363  26.089  0.00  0.00    -0.028 A 
ATOM     21  C   UNL     1       4.959  -4.643  25.037  0.00  0.00    +0.038 A 
ATOM     22  C   UNL     1       4.522  -4.915  23.710  0.00  0.00    -0.028 A 
ATOM     23  C   UNL     1       4.944  -4.057  22.542  0.00  0.00    +0.046 C 
ATOM     24  C   UNL     1       3.648  -5.998  23.448  0.00  0.00    +0.013 A 
ATOM     25  C   UNL     1       3.160  -6.795  24.482  0.00  0.00    -0.024 A 
ATOM     26  C   UNL     1       3.505  -6.448  25.790  0.00  0.00    +0.013 A 
BRANCH  25  27
ATOM     27  C   UNL     1       2.355  -8.013  24.292  0.00  0.00    +0.019 C 
ATOM     28  C   UNL     1       1.737  -8.720  25.252  0.00  0.00    +0.089 C 
BRANCH  28  29
ATOM     29  C   UNL     1       1.026  -9.913  24.946  0.00  0.00    +0.091 C 
ATOM     30  N   UNL     1       0.447 -10.889  24.704  0.00  0.00    -0.191 NA
ENDBRANCH  28  29
ENDBRANCH  25  27
ENDBRANCH  17  21
ENDBRANCH   1  17
TORSDOF 6
ENDMDL
MODEL 2
REMARK VINA RESULT:      -6.5      1.917      3.440
REMARK  Name = 
REMARK  8 active torsions:
REMARK  status: ('A' for Active; 'I' for Inactive)
REMARK    1  A    between atoms: C_1  and  C_2
REMARK    2  A    between atoms: C_4  and  C_5
REMARK    3  A    between atoms: C_6  and  C_7
REMARK    4  A    between atoms: C_10  and  C_11
REMARK    5  A    between atoms: C_12  and  N_13
REMARK    6  A    between atoms: N_13  and  C_14
REMARK    7  A    between atoms: N_19  and  C_20
REMARK    8  A    between atoms: C_23  and  C_26
REMARK                            x       y       z     vdW  Elec       q    Type
REMARK                         _______ _______ _______ _____ _____    ______ ____
ROOT
ATOM      1  C   UNL     1       8.374  -1.657  23.840  0.00  0.00    +0.128 A 
ATOM      2  N   UNL     1       8.305  -0.407  23.369  0.00  0.00    -0.199 NA
ATOM      3  C   UNL     1       9.342   0.098  22.683  0.00  0.00    +0.221 A 
ATOM      4  N   UNL     1       9.309   1.403  22.189  0.00  0.00    -0.284 N 
ATOM      5  H   UNL     1      10.158   1.591  21.676  0.00  0.00    +0.155 HD
ATOM      6  N   UNL     1      10.463  -0.596  22.430  0.00  0.00    -0.223 NA
ATOM      7  C   UNL     1      10.522  -1.844  22.922  0.00  0.00    +0.118 A 
ATOM      8  C   UNL     1       9.499  -2.428  23.630  0.00  0.00    +0.063 A 
ENDROOT
BRANCH   4   9
ATOM      9  C   UNL     1       8.489   2.494  22.510  0.00  0.00    +0.034 A 
ATOM     10  C   UNL     1       8.951   3.462  23.416  0.00  0.00    +0.024 A 
ATOM     11  C   UNL     1       8.143   4.545  23.799  0.00  0.00    +0.020 A 
ATOM     12  C   UNL     1       6.859   4.685  23.269  0.00  0.00    +0.052 A 
ATOM     13  C   UNL     1       6.403   3.759  22.336  0.00  0.00    +0.020 A 
ATOM     14  C   UNL     1       7.217   2.687  21.959  0.00  0.00    +0.024 A 
BRANCH  12  15
ATOM     15  C   UNL     1       6.005   5.758  23.684  0.00  0.00    +0.099 C 
ATOM     16  N   UNL     1       5.308   6.629  24.003  0.00  0.00    -0.191 NA
ENDBRANCH  12  15
ENDBRANCH   4   9
BRANCH   1  17
ATOM     17  N   UNL     1       7.295  -2.226  24.552  0.00  0.00    -0.299 N 
ATOM     18  H   UNL     1       7.215  -1.783  25.459  0.00  0.00    +0.154 HD
BRANCH  17  21
ATOM     19  C   UNL     1       5.570  -3.183  22.267  0.00  0.00    +0.046 C 
ATOM     20  C   UNL     1       5.868  -3.967  23.516  0.00  0.00    -0.028 A 
ATOM     21  C   UNL     1       6.750  -3.537  24.530  0.00  0.00    +0.038 A 
ATOM     22  C   UNL     1       7.012  -4.431  25.605  0.00  0.00    -0.028 A 
ATOM     23  C   UNL     1       8.096  -4.158  26.620  0.00  0.00    +0.046 C 
ATOM     24  C   UNL     1       6.270  -5.629  25.742  0.00  0.00    +0.013 A 
ATOM     25  C   UNL     1       5.300  -5.986  24.807  0.00  0.00    -0.024 A 
ATOM     26  C   UNL     1       5.131  -5.157  23.696  0.00  0.00    +0.013 A 
BRANCH  25  27
ATOM     27  C   UNL     1       4.396  -7.140  24.937  0.00  0.00    +0.019 C 
ATOM     28  C   UNL     1       3.126  -7.214  24.507  0.00  0.00    +0.089 C 
BRANCH  28  29
ATOM     29  C   UNL     1       2.337  -8.373  24.736  0.00  0.00    +0.091 C 
ATOM     30  N   UNL     1       1.698  -9.324  24.924  0.00  0.00    -0.191 NA
ENDBRANCH  28  29
ENDBRANCH  25  27
ENDBRANCH  17  21
ENDBRANCH   1  17
TORSDOF 6
ENDMDL
MODEL 3
REMARK VINA RESULT:      -6.5      2.523     10.045
REMARK  Name = 
REMARK  8 active torsions:
REMARK  status: ('A' for Active; 'I' for Inactive)
REMARK    1  A    between atoms: C_1  and  C_2
REMARK    2  A    between atoms: C_4  and  C_5
REMARK    3  A    between atoms: C_6  and  C_7
REMARK    4  A    between atoms: C_10  and  C_11
REMARK    5  A    between atoms: C_12  and  N_13
REMARK    6  A    between atoms: N_13  and  C_14
REMARK    7  A    between atoms: N_19  and  C_20
REMARK    8  A    between atoms: C_23  and  C_26
REMARK                            x       y       z     vdW  Elec       q    Type
REMARK                         _______ _______ _______ _____ _____    ______ ____
ROOT
ATOM      1  C   UNL     1       6.602  -2.810  23.670  0.00  0.00    +0.128 A 
ATOM      2  N   UNL     1       6.013  -3.856  24.259  0.00  0.00    -0.199 NA
ATOM      3  C   UNL     1       5.371  -4.762  23.504  0.00  0.00    +0.221 A 
ATOM      4  N   UNL     1       4.734  -5.859  24.087  0.00  0.00    -0.284 N 
ATOM      5  H   UNL     1       4.338  -6.442  23.364  0.00  0.00    +0.155 HD
ATOM      6  N   UNL     1       5.293  -4.681  22.167  0.00  0.00    -0.223 NA
ATOM      7  C   UNL     1       5.878  -3.617  21.593  0.00  0.00    +0.118 A 
ATOM      8  C   UNL     1       6.555  -2.652  22.300  0.00  0.00    +0.063 A 
ENDROOT
BRANCH   4   9
ATOM      9  C   UNL     1       4.337  -6.105  25.409  0.00  0.00    +0.034 A 
ATOM     10  C   UNL     1       5.288  -6.538  26.347  0.00  0.00    +0.024 A 
ATOM     11  C   UNL     1       4.922  -6.840  27.668  0.00  0.00    +0.020 A 
ATOM     12  C   UNL     1       3.595  -6.699  28.079  0.00  0.00    +0.052 A 
ATOM     13  C   UNL     1       2.649  -6.227  27.174  0.00  0.00    +0.020 A 
ATOM     14  C   UNL     1       3.025  -5.926  25.862  0.00  0.00    +0.024 A 
BRANCH  12  15
ATOM     15  C   UNL     1       3.196  -7.046  29.411  0.00  0.00    +0.099 C 
ATOM     16  N   UNL     1       2.865  -7.343  30.482  0.00  0.00    -0.191 NA
ENDBRANCH  12  15
ENDBRANCH   4   9
BRANCH   1  17
ATOM     17  N   UNL     1       7.300  -1.846  24.431  0.00  0.00    -0.299 N 
ATOM     18  H   UNL     1       6.760  -1.604  25.252  0.00  0.00    +0.154 HD
BRANCH  17  21
ATOM     19  C   UNL     1      10.157  -2.440  23.657  0.00  0.00    +0.046 C 
ATOM     20  C   UNL     1       9.556  -1.065  23.763  0.00  0.00    -0.028 A 
ATOM     21  C   UNL     1       8.194  -0.815  24.038  0.00  0.00    +0.038 A 
ATOM     22  C   UNL     1       7.747   0.536  24.006  0.00  0.00    -0.028 A 
ATOM     23  C   UNL     1       6.282   0.890  24.073  0.00  0.00    +0.046 C 
ATOM     24  C   UNL     1       8.676   1.598  23.886  0.00  0.00    +0.013 A 
ATOM     25  C   UNL     1      10.040   1.350  23.751  0.00  0.00    -0.024 A 
ATOM     26  C   UNL     1      10.455   0.019  23.668  0.00  0.00    +0.013 A 
BRANCH  25  27
ATOM     27  C   UNL     1      11.084   2.387  23.749  0.00  0.00    +0.019 C 
ATOM     28  C   UNL     1      10.943   3.663  23.354  0.00  0.00    +0.089 C 
BRANCH  28  29
ATOM     29  C   UNL     1      12.044   4.561  23.353  0.00  0.00    +0.091 C 
ATOM     30  N   UNL     1      12.942   5.297  23.346  0.00  0.00    -0.191 NA
ENDBRANCH  28  29
ENDBRANCH  25  27
ENDBRANCH  17  21
ENDBRANCH   1  17
TORSDOF 6
ENDMDL
MODEL 4
REMARK VINA RESULT:      -6.4      1.959      9.991
REMARK  Name = 
REMARK  8 active torsions:
REMARK  status: ('A' for Active; 'I' for Inactive)
REMARK    1  A    between atoms: C_1  and  C_2
REMARK    2  A    between atoms: C_4  and  C_5
REMARK    3  A    between atoms: C_6  and  C_7
REMARK    4  A    between atoms: C_10  and  C_11
REMARK    5  A    between atoms: C_12  and  N_13
REMARK    6  A    between atoms: N_13  and  C_14
REMARK    7  A    between atoms: N_19  and  C_20
REMARK    8  A    between atoms: C_23  and  C_26
REMARK                            x       y       z     vdW  Elec       q    Type
REMARK                         _______ _______ _______ _____ _____    ______ ____
ROOT
ATOM      1  C   UNL     1       7.487  -2.663  24.751  0.00  0.00    +0.128 A 
ATOM      2  N   UNL     1       6.592  -3.650  24.864  0.00  0.00    -0.199 NA
ATOM      3  C   UNL     1       6.871  -4.709  25.640  0.00  0.00    +0.221 A 
ATOM      4  N   UNL     1       5.966  -5.763  25.769  0.00  0.00    -0.284 N 
ATOM      5  H   UNL     1       6.333  -6.446  26.416  0.00  0.00    +0.155 HD
ATOM      6  N   UNL     1       8.015  -4.831  26.332  0.00  0.00    -0.223 NA
ATOM      7  C   UNL     1       8.909  -3.838  26.197  0.00  0.00    +0.118 A 
ATOM      8  C   UNL     1       8.691  -2.723  25.422  0.00  0.00    +0.063 A 
ENDROOT
BRANCH   4   9
ATOM      9  C   UNL     1       4.860  -6.134  24.991  0.00  0.00    +0.034 A 
ATOM     10  C   UNL     1       3.996  -7.139  25.454  0.00  0.00    +0.024 A 
ATOM     11  C   UNL     1       2.905  -7.572  24.684  0.00  0.00    +0.020 A 
ATOM     12  C   UNL     1       2.651  -6.995  23.438  0.00  0.00    +0.052 A 
ATOM     13  C   UNL     1       3.471  -5.966  22.985  0.00  0.00    +0.020 A 
ATOM     14  C   UNL     1       4.553  -5.541  23.761  0.00  0.00    +0.024 A 
BRANCH  12  15
ATOM     15  C   UNL     1       1.569  -7.457  22.619  0.00  0.00    +0.099 C 
ATOM     16  N   UNL     1       0.700  -7.848  21.958  0.00  0.00    -0.191 NA
ENDBRANCH  12  15
ENDBRANCH   4   9
BRANCH   1  17
ATOM     17  N   UNL     1       7.221  -1.527  23.956  0.00  0.00    -0.299 N 
ATOM     18  H   UNL     1       6.601  -1.781  23.197  0.00  0.00    +0.154 HD
BRANCH  17  21
ATOM     19  C   UNL     1       9.164  -1.509  21.646  0.00  0.00    +0.046 C 
ATOM     20  C   UNL     1       8.992  -0.395  22.642  0.00  0.00    -0.028 A 
ATOM     21  C   UNL     1       8.014  -0.387  23.660  0.00  0.00    +0.038 A 
ATOM     22  C   UNL     1       7.904   0.781  24.465  0.00  0.00    -0.028 A 
ATOM     23  C   UNL     1       6.760   0.976  25.431  0.00  0.00    +0.046 C 
ATOM     24  C   UNL     1       8.864   1.817  24.365  0.00  0.00    +0.013 A 
ATOM     25  C   UNL     1       9.911   1.742  23.449  0.00  0.00    -0.024 A 
ATOM     26  C   UNL     1       9.944   0.645  22.586  0.00  0.00    +0.013 A 
BRANCH  25  27
ATOM     27  C   UNL     1      11.021   2.706  23.365  0.00  0.00    +0.019 C 
ATOM     28  C   UNL     1      10.935   4.038  23.513  0.00  0.00    +0.089 C 
BRANCH  28  29
ATOM     29  C   UNL     1      12.077   4.871  23.360  0.00  0.00    +0.091 C 
ATOM     30  N   UNL     1      13.009   5.550  23.227  0.00  0.00    -0.191 NA
ENDBRANCH  28  29
ENDBRANCH  25  27
ENDBRANCH  17  21
ENDBRANCH   1  17
TORSDOF 6
ENDMDL
MODEL 5
REMARK VINA RESULT:      -6.3      5.170      9.028
REMARK  Name = 
REMARK  8 active torsions:
REMARK  status: ('A' for Active; 'I' for Inactive)
REMARK    1  A    between atoms: C_1  and  C_2
REMARK    2  A    between atoms: C_4  and  C_5
REMARK    3  A    between atoms: C_6  and  C_7
REMARK    4  A    between atoms: C_10  and  C_11
REMARK    5  A    between atoms: C_12  and  N_13
REMARK    6  A    between atoms: N_13  and  C_14
REMARK    7  A    between atoms: N_19  and  C_20
REMARK    8  A    between atoms: C_23  and  C_26
REMARK                            x       y       z     vdW  Elec       q    Type
REMARK                         _______ _______ _______ _____ _____    ______ ____
ROOT
ATOM      1  C   UNL     1       9.336   5.306  24.170  0.00  0.00    +0.128 A 
ATOM      2  N   UNL     1       9.606   4.012  23.968  0.00  0.00    -0.199 NA
ATOM      3  C   UNL     1      10.850   3.644  23.625  0.00  0.00    +0.221 A 
ATOM      4  N   UNL     1      11.163   2.303  23.393  0.00  0.00    -0.284 N 
ATOM      5  H   UNL     1      12.147   2.218  23.182  0.00  0.00    +0.155 HD
ATOM      6  N   UNL     1      11.861   4.515  23.481  0.00  0.00    -0.223 NA
ATOM      7  C   UNL     1      11.570   5.812  23.674  0.00  0.00    +0.118 A 
ATOM      8  C   UNL     1      10.320   6.263  24.029  0.00  0.00    +0.063 A 
ENDROOT
BRANCH   4   9
ATOM      9  C   UNL     1      10.347   1.192  23.141  0.00  0.00    +0.034 A 
ATOM     10  C   UNL     1      10.073   0.286  24.178  0.00  0.00    +0.024 A 
ATOM     11  C   UNL     1       9.298  -0.863  23.954  0.00  0.00    +0.020 A 
ATOM     12  C   UNL     1       8.771  -1.120  22.687  0.00  0.00    +0.052 A 
ATOM     13  C   UNL     1       8.996  -0.208  21.660  0.00  0.00    +0.020 A 
ATOM     14  C   UNL     1       9.765   0.934  21.894  0.00  0.00    +0.024 A 
BRANCH  12  15
ATOM     15  C   UNL     1       8.018  -2.312  22.430  0.00  0.00    +0.099 C 
ATOM     16  N   UNL     1       7.419  -3.285  22.234  0.00  0.00    -0.191 NA
ENDBRANCH  12  15
ENDBRANCH   4   9
BRANCH   1  17
ATOM     17  N   UNL     1       8.042   5.729  24.547  0.00  0.00    -0.299 N 
ATOM     18  H   UNL     1       8.065   6.094  25.490  0.00  0.00    +0.154 HD
BRANCH  17  21
ATOM     19  C   UNL     1       6.544   3.726  26.238  0.00  0.00    +0.046 C 
ATOM     20  C   UNL     1       6.086   4.247  24.903  0.00  0.00    -0.028 A 
ATOM     21  C   UNL     1       6.758   5.251  24.173  0.00  0.00    +0.038 A 
ATOM     22  C   UNL     1       6.152   5.717  22.972  0.00  0.00    -0.028 A 
ATOM     23  C   UNL     1       6.673   6.926  22.235  0.00  0.00    +0.046 C 
ATOM     24  C   UNL     1       5.014   5.063  22.441  0.00  0.00    +0.013 A 
ATOM     25  C   UNL     1       4.432   3.981  23.099  0.00  0.00    -0.024 A 
ATOM     26  C   UNL     1       4.966   3.606  24.333  0.00  0.00    +0.013 A 
BRANCH  25  27
ATOM     27  C   UNL     1       3.332   3.165  22.559  0.00  0.00    +0.019 C 
ATOM     28  C   UNL     1       2.675   3.372  21.406  0.00  0.00    +0.089 C 
BRANCH  28  29
ATOM     29  C   UNL     1       1.592   2.539  21.016  0.00  0.00    +0.091 C 
ATOM     30  N   UNL     1       0.707   1.861  20.690  0.00  0.00    -0.191 NA
ENDBRANCH  28  29
ENDBRANCH  25  27
ENDBRANCH  17  21
ENDBRANCH   1  17
TORSDOF 6
ENDMDL
MODEL 6
REMARK VINA RESULT:      -6.2      3.142      8.623
REMARK  Name = 
REMARK  8 active torsions:
REMARK  status: ('A' for Active; 'I' for Inactive)
REMARK    1  A    between atoms: C_1  and  C_2
REMARK    2  A    between atoms: C_4  and  C_5
REMARK    3  A    between atoms: C_6  and  C_7
REMARK    4  A    between atoms: C_10  and  C_11
REMARK    5  A    between atoms: C_12  and  N_13
REMARK    6  A    between atoms: N_13  and  C_14
REMARK    7  A    between atoms: N_19  and  C_20
REMARK    8  A    between atoms: C_23  and  C_26
REMARK                            x       y       z     vdW  Elec       q    Type
REMARK                         _______ _______ _______ _____ _____    ______ ____
ROOT
ATOM      1  C   UNL     1       9.167  -0.475  24.363  0.00  0.00    +0.128 A 
ATOM      2  N   UNL     1       8.875  -1.724  24.740  0.00  0.00    -0.199 NA
ATOM      3  C   UNL     1       9.428  -2.757  24.086  0.00  0.00    +0.221 A 
ATOM      4  N   UNL     1       9.134  -4.074  24.445  0.00  0.00    -0.284 N 
ATOM      5  H   UNL     1       9.667  -4.708  23.867  0.00  0.00    +0.155 HD
ATOM      6  N   UNL     1      10.282  -2.605  23.062  0.00  0.00    -0.223 NA
ATOM      7  C   UNL     1      10.554  -1.345  22.686  0.00  0.00    +0.118 A 
ATOM      8  C   UNL     1      10.027  -0.239  23.310  0.00  0.00    +0.063 A 
ENDROOT
BRANCH   4   9
ATOM      9  C   UNL     1       8.092  -4.614  25.212  0.00  0.00    +0.034 A 
ATOM     10  C   UNL     1       8.287  -4.836  26.584  0.00  0.00    +0.024 A 
ATOM     11  C   UNL     1       7.286  -5.418  27.376  0.00  0.00    +0.020 A 
ATOM     12  C   UNL     1       6.061  -5.778  26.810  0.00  0.00    +0.052 A 
ATOM     13  C   UNL     1       5.836  -5.523  25.460  0.00  0.00    +0.020 A 
ATOM     14  C   UNL     1       6.838  -4.940  24.681  0.00  0.00    +0.024 A 
BRANCH  12  15
ATOM     15  C   UNL     1       5.045  -6.415  27.594  0.00  0.00    +0.099 C 
ATOM     16  N   UNL     1       4.214  -6.915  28.230  0.00  0.00    -0.191 NA
ENDBRANCH  12  15
ENDBRANCH   4   9
BRANCH   1  17
ATOM     17  N   UNL     1       8.615   0.636  25.038  0.00  0.00    -0.299 N 
ATOM     18  H   UNL     1       8.635   0.472  26.036  0.00  0.00    +0.154 HD
BRANCH  17  21
ATOM     19  C   UNL     1       5.684   0.000  25.375  0.00  0.00    +0.046 C 
ATOM     20  C   UNL     1       6.232   1.237  24.717  0.00  0.00    -0.028 A 
ATOM     21  C   UNL     1       7.605   1.556  24.651  0.00  0.00    +0.038 A 
ATOM     22  C   UNL     1       7.969   2.811  24.086  0.00  0.00    -0.028 A 
ATOM     23  C   UNL     1       9.380   3.339  24.163  0.00  0.00    +0.046 C 
ATOM     24  C   UNL     1       6.998   3.621  23.449  0.00  0.00    +0.013 A 
ATOM     25  C   UNL     1       5.660   3.235  23.397  0.00  0.00    -0.024 A 
ATOM     26  C   UNL     1       5.295   2.058  24.054  0.00  0.00    +0.013 A 
BRANCH  25  27
ATOM     27  C   UNL     1       4.611   3.948  22.648  0.00  0.00    +0.019 C 
ATOM     28  C   UNL     1       3.434   3.443  22.245  0.00  0.00    +0.089 C 
BRANCH  28  29
ATOM     29  C   UNL     1       2.521   4.221  21.482  0.00  0.00    +0.091 C 
ATOM     30  N   UNL     1       1.778   4.853  20.853  0.00  0.00    -0.191 NA
ENDBRANCH  28  29
ENDBRANCH  25  27
ENDBRANCH  17  21
ENDBRANCH   1  17
TORSDOF 6
ENDMDL
MODEL 7
REMARK VINA RESULT:      -6.1      3.675      9.301
REMARK  Name = 
REMARK  8 active torsions:
REMARK  status: ('A' for Active; 'I' for Inactive)
REMARK    1  A    between atoms: C_1  and  C_2
REMARK    2  A    between atoms: C_4  and  C_5
REMARK    3  A    between atoms: C_6  and  C_7
REMARK    4  A    between atoms: C_10  and  C_11
REMARK    5  A    between atoms: C_12  and  N_13
REMARK    6  A    between atoms: N_13  and  C_14
REMARK    7  A    between atoms: N_19  and  C_20
REMARK    8  A    between atoms: C_23  and  C_26
REMARK                            x       y       z     vdW  Elec       q    Type
REMARK                         _______ _______ _______ _____ _____    ______ ____
ROOT
ATOM      1  C   UNL     1       9.345   1.018  23.661  0.00  0.00    +0.128 A 
ATOM      2  N   UNL     1       9.195  -0.286  23.916  0.00  0.00    -0.199 NA
ATOM      3  C   UNL     1       9.158  -1.158  22.897  0.00  0.00    +0.221 A 
ATOM      4  N   UNL     1       8.988  -2.524  23.127  0.00  0.00    -0.284 N 
ATOM      5  H   UNL     1       9.020  -3.021  22.248  0.00  0.00    +0.155 HD
ATOM      6  N   UNL     1       9.276  -0.790  21.611  0.00  0.00    -0.223 NA
ATOM      7  C   UNL     1       9.411   0.524  21.371  0.00  0.00    +0.118 A 
ATOM      8  C   UNL     1       9.460   1.474  22.364  0.00  0.00    +0.063 A 
ENDROOT
BRANCH   4   9
ATOM      9  C   UNL     1       8.529  -3.224  24.252  0.00  0.00    +0.034 A 
ATOM     10  C   UNL     1       9.393  -4.111  24.914  0.00  0.00    +0.024 A 
ATOM     11  C   UNL     1       8.957  -4.865  26.015  0.00  0.00    +0.020 A 
ATOM     12  C   UNL     1       7.648  -4.734  26.483  0.00  0.00    +0.052 A 
ATOM     13  C   UNL     1       6.793  -3.826  25.865  0.00  0.00    +0.020 A 
ATOM     14  C   UNL     1       7.238  -3.078  24.772  0.00  0.00    +0.024 A 
BRANCH  12  15
ATOM     15  C   UNL     1       7.174  -5.530  27.576  0.00  0.00    +0.099 C 
ATOM     16  N   UNL     1       6.803  -6.186  28.457  0.00  0.00    -0.191 NA
ENDBRANCH  12  15
ENDBRANCH   4   9
BRANCH   1  17
ATOM     17  N   UNL     1       9.404   1.962  24.710  0.00  0.00    -0.299 N 
ATOM     18  H   UNL     1       9.976   1.600  25.462  0.00  0.00    +0.154 HD
BRANCH  17  21
ATOM     19  C   UNL     1       7.183   1.241  26.623  0.00  0.00    +0.046 C 
ATOM     20  C   UNL     1       7.363   2.585  25.972  0.00  0.00    -0.028 A 
ATOM     21  C   UNL     1       8.459   2.926  25.152  0.00  0.00    +0.038 A 
ATOM     22  C   UNL     1       8.548   4.268  24.686  0.00  0.00    -0.028 A 
ATOM     23  C   UNL     1       9.781   4.789  23.988  0.00  0.00    +0.046 C 
ATOM     24  C   UNL     1       7.477   5.172  24.890  0.00  0.00    +0.013 A 
ATOM     25  C   UNL     1       6.333   4.788  25.586  0.00  0.00    -0.024 A 
ATOM     26  C   UNL     1       6.305   3.504  26.136  0.00  0.00    +0.013 A 
BRANCH  25  27
ATOM     27  C   UNL     1       5.124   5.615  25.733  0.00  0.00    +0.019 C 
ATOM     28  C   UNL     1       3.907   5.192  26.110  0.00  0.00    +0.089 C 
BRANCH  28  29
ATOM     29  C   UNL     1       2.802   6.085  26.167  0.00  0.00    +0.091 C 
ATOM     30  N   UNL     1       1.901   6.816  26.208  0.00  0.00    -0.191 NA
ENDBRANCH  28  29
ENDBRANCH  25  27
ENDBRANCH  17  21
ENDBRANCH   1  17
TORSDOF 6
ENDMDL
MODEL 8
REMARK VINA RESULT:      -6.0      2.938      4.077
REMARK  Name = 
REMARK  8 active torsions:
REMARK  status: ('A' for Active; 'I' for Inactive)
REMARK    1  A    between atoms: C_1  and  C_2
REMARK    2  A    between atoms: C_4  and  C_5
REMARK    3  A    between atoms: C_6  and  C_7
REMARK    4  A    between atoms: C_10  and  C_11
REMARK    5  A    between atoms: C_12  and  N_13
REMARK    6  A    between atoms: N_13  and  C_14
REMARK    7  A    between atoms: N_19  and  C_20
REMARK    8  A    between atoms: C_23  and  C_26
REMARK                            x       y       z     vdW  Elec       q    Type
REMARK                         _______ _______ _______ _____ _____    ______ ____
ROOT
ATOM      1  C   UNL     1       8.046  -1.392  22.698  0.00  0.00    +0.128 A 
ATOM      2  N   UNL     1       8.148  -0.060  22.761  0.00  0.00    -0.199 NA
ATOM      3  C   UNL     1       9.364   0.509  22.777  0.00  0.00    +0.221 A 
ATOM      4  N   UNL     1       9.506   1.895  22.856  0.00  0.00    -0.284 N 
ATOM      5  H   UNL     1      10.486   2.136  22.821  0.00  0.00    +0.155 HD
ATOM      6  N   UNL     1      10.505  -0.196  22.722  0.00  0.00    -0.223 NA
ATOM      7  C   UNL     1      10.385  -1.532  22.674  0.00  0.00    +0.118 A 
ATOM      8  C   UNL     1       9.175  -2.184  22.652  0.00  0.00    +0.063 A 
ENDROOT
BRANCH   4   9
ATOM      9  C   UNL     1       8.604   2.899  23.236  0.00  0.00    +0.034 A 
ATOM     10  C   UNL     1       7.670   3.377  22.304  0.00  0.00    +0.024 A 
ATOM     11  C   UNL     1       6.781   4.413  22.631  0.00  0.00    +0.020 A 
ATOM     12  C   UNL     1       6.803   4.982  23.906  0.00  0.00    +0.052 A 
ATOM     13  C   UNL     1       7.693   4.488  24.856  0.00  0.00    +0.020 A 
ATOM     14  C   UNL     1       8.571   3.454  24.520  0.00  0.00    +0.024 A 
BRANCH  12  15
ATOM     15  C   UNL     1       5.934   6.071  24.242  0.00  0.00    +0.099 C 
ATOM     16  N   UNL     1       5.218   6.945  24.503  0.00  0.00    -0.191 NA
ENDBRANCH  12  15
ENDBRANCH   4   9
BRANCH   1  17
ATOM     17  N   UNL     1       6.784  -2.024  22.664  0.00  0.00    -0.299 N 
ATOM     18  H   UNL     1       6.108  -1.410  22.226  0.00  0.00    +0.154 HD
BRANCH  17  21
ATOM     19  C   UNL     1       5.393  -1.148  25.196  0.00  0.00    +0.046 C 
ATOM     20  C   UNL     1       5.613  -2.577  24.778  0.00  0.00    -0.028 A 
ATOM     21  C   UNL     1       6.185  -2.961  23.547  0.00  0.00    +0.038 A 
ATOM     22  C   UNL     1       6.237  -4.351  23.244  0.00  0.00    -0.028 A 
ATOM     23  C   UNL     1       6.628  -4.853  21.875  0.00  0.00    +0.046 C 
ATOM     24  C   UNL     1       5.895  -5.314  24.225  0.00  0.00    +0.013 A 
ATOM     25  C   UNL     1       5.459  -4.929  25.491  0.00  0.00    -0.024 A 
ATOM     26  C   UNL     1       5.303  -3.563  25.738  0.00  0.00    +0.013 A 
BRANCH  25  27
ATOM     27  C   UNL     1       5.207  -5.854  26.607  0.00  0.00    +0.019 C 
ATOM     28  C   UNL     1       4.460  -5.608  27.696  0.00  0.00    +0.089 C 
BRANCH  28  29
ATOM     29  C   UNL     1       4.332  -6.571  28.734  0.00  0.00    +0.091 C 
ATOM     30  N   UNL     1       4.223  -7.352  29.586  0.00  0.00    -0.191 NA
ENDBRANCH  28  29
ENDBRANCH  25  27
ENDBRANCH  17  21
ENDBRANCH   1  17
TORSDOF 6
ENDMDL
MODEL 9
REMARK VINA RESULT:      -6.0      1.492      2.173
REMARK  Name = 
REMARK  8 active torsions:
REMARK  status: ('A' for Active; 'I' for Inactive)
REMARK    1  A    between atoms: C_1  and  C_2
REMARK    2  A    between atoms: C_4  and  C_5
REMARK    3  A    between atoms: C_6  and  C_7
REMARK    4  A    between atoms: C_10  and  C_11
REMARK    5  A    between atoms: C_12  and  N_13
REMARK    6  A    between atoms: N_13  and  C_14
REMARK    7  A    between atoms: N_19  and  C_20
REMARK    8  A    between atoms: C_23  and  C_26
REMARK                            x       y       z     vdW  Elec       q    Type
REMARK                         _______ _______ _______ _____ _____    ______ ____
ROOT
ATOM      1  C   UNL     1       7.480  -1.925  24.061  0.00  0.00    +0.128 A 
ATOM      2  N   UNL     1       7.985  -0.761  23.639  0.00  0.00    -0.199 NA
ATOM      3  C   UNL     1       9.306  -0.654  23.424  0.00  0.00    +0.221 A 
ATOM      4  N   UNL     1       9.867   0.551  22.997  0.00  0.00    -0.284 N 
ATOM      5  H   UNL     1      10.860   0.429  22.858  0.00  0.00    +0.155 HD
ATOM      6  N   UNL     1      10.164  -1.670  23.601  0.00  0.00    -0.223 NA
ATOM      7  C   UNL     1       9.643  -2.828  24.039  0.00  0.00    +0.118 A 
ATOM      8  C   UNL     1       8.301  -3.013  24.278  0.00  0.00    +0.063 A 
ENDROOT
BRANCH   4   9
ATOM      9  C   UNL     1       9.369   1.862  23.011  0.00  0.00    +0.034 A 
ATOM     10  C   UNL     1      10.021   2.840  23.779  0.00  0.00    +0.024 A 
ATOM     11  C   UNL     1       9.527   4.152  23.857  0.00  0.00    +0.020 A 
ATOM     12  C   UNL     1       8.376   4.513  23.153  0.00  0.00    +0.052 A 
ATOM     13  C   UNL     1       7.745   3.566  22.352  0.00  0.00    +0.020 A 
ATOM     14  C   UNL     1       8.246   2.264  22.279  0.00  0.00    +0.024 A 
BRANCH  12  15
ATOM     15  C   UNL     1       7.833   5.834  23.258  0.00  0.00    +0.099 C 
ATOM     16  N   UNL     1       7.388   6.901  23.359  0.00  0.00    -0.191 NA
ENDBRANCH  12  15
ENDBRANCH   4   9
BRANCH   1  17
ATOM     17  N   UNL     1       6.094  -2.079  24.283  0.00  0.00    -0.299 N 
ATOM     18  H   UNL     1       5.780  -1.395  24.959  0.00  0.00    +0.154 HD
BRANCH  17  21
ATOM     19  C   UNL     1       4.565  -3.024  26.709  0.00  0.00    +0.046 C 
ATOM     20  C   UNL     1       4.616  -3.737  25.385  0.00  0.00    -0.028 A 
ATOM     21  C   UNL     1       5.263  -3.230  24.237  0.00  0.00    +0.038 A 
ATOM     22  C   UNL     1       5.142  -3.967  23.026  0.00  0.00    -0.028 A 
ATOM     23  C   UNL     1       5.609  -3.409  21.704  0.00  0.00    +0.046 C 
ATOM     24  C   UNL     1       4.549  -5.254  23.024  0.00  0.00    +0.013 A 
ATOM     25  C   UNL     1       4.031  -5.810  24.192  0.00  0.00    -0.024 A 
ATOM     26  C   UNL     1       4.053  -5.030  25.350  0.00  0.00    +0.013 A 
BRANCH  25  27
ATOM     27  C   UNL     1       3.516  -7.184  24.308  0.00  0.00    +0.019 C 
ATOM     28  C   UNL     1       2.353  -7.557  24.866  0.00  0.00    +0.089 C 
BRANCH  28  29
ATOM     29  C   UNL     1       1.988  -8.927  24.963  0.00  0.00    +0.091 C 
ATOM     30  N   UNL     1       1.693 -10.047  25.047  0.00  0.00    -0.191 NA
ENDBRANCH  28  29
ENDBRANCH  25  27
ENDBRANCH  17  21
ENDBRANCH   1  17
TORSDOF 6
ENDMDL
