MODEL 1
REMARK VINA RESULT:      -5.6      0.000      0.000
REMARK  Name = 
REMARK  9 active torsions:
REMARK  status: ('A' for Active; 'I' for Inactive)
REMARK    1  A    between atoms: N_1  and  CA_2
REMARK    2  A    between atoms: CA_2  and  C_4
REMARK    3  A    between atoms: CA_2  and  C_6
REMARK    4  A    between atoms: C_4  and  O_5
REMARK    5  A    between atoms: C_9  and  C_10
REMARK    6  A    between atoms: C_10  and  C_11
REMARK    7  A    between atoms: N_18  and  C_19
REMARK    8  A    between atoms: C_19  and  C_20
REMARK    9  A    between atoms: C_20  and  O_21
REMARK                            x       y       z     vdW  Elec       q    Type
REMARK                         _______ _______ _______ _____ _____    ______ ____
ROOT
ATOM      1  C   UNL     1       8.535  -4.271  24.493  0.00  0.00    +0.213 C 
ATOM      2  N   UNL     1       7.595  -4.366  23.398  0.00  0.00    -0.271 N 
ATOM      3  C   UNL     1       7.679  -3.230  22.654  0.00  0.00    +0.263 C 
ATOM      4  O   UNL     1       6.924  -2.756  21.838  0.00  0.00    -0.269 OA
ATOM      5  C   UNL     1       9.025  -2.681  23.040  0.00  0.00    +0.106 C 
ATOM      6  N   UNL     1       9.595  -3.322  24.026  0.00  0.00    -0.259 NA
ENDROOT
BRANCH   1   7
ATOM      7  CA  UNL     1       7.886  -3.705  25.809  0.00  0.00    +0.119 C 
BRANCH   7   8
ATOM      8  N   UNL     1       8.593  -2.518  26.378  0.00  0.00    -0.322 NA
ATOM      9  H1  UNL     1       7.949  -2.015  26.991  0.00  0.00    +0.119 HD
ATOM     10  H2  UNL     1       9.331  -2.860  26.996  0.00  0.00    +0.119 HD
ENDBRANCH   7   8
BRANCH   7  11
ATOM     11  C   UNL     1       7.789  -4.803  26.885  0.00  0.00    +0.178 C 
BRANCH  11  12
ATOM     12  O   UNL     1       8.555  -5.945  26.493  0.00  0.00    -0.393 OA
ATOM     13  H   UNL     1       9.035  -5.673  25.689  0.00  0.00    +0.209 HD
ENDBRANCH  11  12
ENDBRANCH   7  11
ENDBRANCH   1   7
BRANCH   2  14
ATOM     14  C   UNL     1       6.547  -5.373  23.313  0.00  0.00    +0.138 C 
BRANCH  14  15
ATOM     15  C   UNL     1       6.617  -6.182  22.011  0.00  0.00    +0.175 C 
BRANCH  15  16
ATOM     16  O   UNL     1       5.857  -5.541  20.987  0.00  0.00    -0.393 OA
ATOM     17  H   UNL     1       5.770  -4.610  21.254  0.00  0.00    +0.209 HD
ENDBRANCH  15  16
ENDBRANCH  14  15
ENDBRANCH   2  14
BRANCH   5  18
ATOM     18  C   UNL     1       9.649  -1.596  22.234  0.00  0.00    +0.115 C 
BRANCH  18  19
ATOM     19  C   UNL     1       9.995  -0.431  23.091  0.00  0.00    +0.041 A 
ATOM     20  N   UNL     1      10.187  -0.503  24.450  0.00  0.00    -0.348 N 
ATOM     21  H   UNL     1      10.145  -1.337  25.023  0.00  0.00    +0.166 HD
ATOM     22  C   UNL     1      10.431   0.764  24.900  0.00  0.00    +0.196 A 
ATOM     23  N   UNL     1      10.433   1.632  23.917  0.00  0.00    -0.244 NA
ATOM     24  C   UNL     1      10.163   0.904  22.788  0.00  0.00    +0.134 A 
ENDBRANCH  18  19
ENDBRANCH   5  18
TORSDOF 9
ENDMDL
MODEL 2
REMARK VINA RESULT:      -5.5      1.879      3.437
REMARK  Name = 
REMARK  9 active torsions:
REMARK  status: ('A' for Active; 'I' for Inactive)
REMARK    1  A    between atoms: N_1  and  CA_2
REMARK    2  A    between atoms: CA_2  and  C_4
REMARK    3  A    between atoms: CA_2  and  C_6
REMARK    4  A    between atoms: C_4  and  O_5
REMARK    5  A    between atoms: C_9  and  C_10
REMARK    6  A    between atoms: C_10  and  C_11
REMARK    7  A    between atoms: N_18  and  C_19
REMARK    8  A    between atoms: C_19  and  C_20
REMARK    9  A    between atoms: C_20  and  O_21
REMARK                            x       y       z     vdW  Elec       q    Type
REMARK                         _______ _______ _______ _____ _____    ______ ____
ROOT
ATOM      1  C   UNL     1       7.017  -2.550  23.524  0.00  0.00    +0.213 C 
ATOM      2  N   UNL     1       8.287  -2.868  24.138  0.00  0.00    -0.271 N 
ATOM      3  C   UNL     1       9.285  -2.469  23.303  0.00  0.00    +0.263 C 
ATOM      4  O   UNL     1      10.456  -2.765  23.264  0.00  0.00    -0.269 OA
ATOM      5  C   UNL     1       8.593  -1.470  22.416  0.00  0.00    +0.106 C 
ATOM      6  N   UNL     1       7.299  -1.414  22.591  0.00  0.00    -0.259 NA
ENDROOT
BRANCH   1   7
ATOM      7  CA  UNL     1       6.418  -3.749  22.702  0.00  0.00    +0.119 C 
BRANCH   7   8
ATOM      8  N   UNL     1       5.805  -3.352  21.398  0.00  0.00    -0.322 NA
ATOM      9  H1  UNL     1       6.553  -3.119  20.742  0.00  0.00    +0.119 HD
ATOM     10  H2  UNL     1       5.353  -4.177  21.000  0.00  0.00    +0.119 HD
ENDBRANCH   7   8
BRANCH   7  11
ATOM     11  C   UNL     1       5.377  -4.518  23.538  0.00  0.00    +0.178 C 
BRANCH  11  12
ATOM     12  O   UNL     1       4.133  -4.585  22.836  0.00  0.00    -0.393 OA
ATOM     13  H   UNL     1       3.719  -3.710  22.956  0.00  0.00    +0.209 HD
ENDBRANCH  11  12
ENDBRANCH   7  11
ENDBRANCH   1   7
BRANCH   2  14
ATOM     14  C   UNL     1       8.434  -3.736  25.298  0.00  0.00    +0.138 C 
BRANCH  14  15
ATOM     15  C   UNL     1       8.877  -5.154  24.915  0.00  0.00    +0.175 C 
BRANCH  15  16
ATOM     16  O   UNL     1      10.294  -5.280  25.033  0.00  0.00    -0.393 OA
ATOM     17  H   UNL     1      10.677  -4.593  24.460  0.00  0.00    +0.209 HD
ENDBRANCH  15  16
ENDBRANCH  14  15
ENDBRANCH   2  14
BRANCH   5  18
ATOM     18  C   UNL     1       9.392  -0.563  21.547  0.00  0.00    +0.115 C 
BRANCH  18  19
ATOM     19  C   UNL     1       9.834   0.641  22.300  0.00  0.00    +0.041 A 
ATOM     20  N   UNL     1       9.895   1.906  21.765  0.00  0.00    -0.348 N 
ATOM     21  H   UNL     1       9.632   2.178  20.826  0.00  0.00    +0.166 HD
ATOM     22  C   UNL     1      10.397   2.736  22.727  0.00  0.00    +0.196 A 
ATOM     23  N   UNL     1      10.634   2.092  23.844  0.00  0.00    -0.244 NA
ATOM     24  C   UNL     1      10.290   0.790  23.593  0.00  0.00    +0.134 A 
ENDBRANCH  18  19
ENDBRANCH   5  18
TORSDOF 9
ENDMDL
MODEL 3
REMARK VINA RESULT:      -5.4      1.936      3.698
REMARK  Name = 
REMARK  9 active torsions:
REMARK  status: ('A' for Active; 'I' for Inactive)
REMARK    1  A    between atoms: N_1  and  CA_2
REMARK    2  A    between atoms: CA_2  and  C_4
REMARK    3  A    between atoms: CA_2  and  C_6
REMARK    4  A    between atoms: C_4  and  O_5
REMARK    5  A    between atoms: C_9  and  C_10
REMARK    6  A    between atoms: C_10  and  C_11
REMARK    7  A    between atoms: N_18  and  C_19
REMARK    8  A    between atoms: C_19  and  C_20
REMARK    9  A    between atoms: C_20  and  O_21
REMARK                            x       y       z     vdW  Elec       q    Type
REMARK                         _______ _______ _______ _____ _____    ______ ____
ROOT
ATOM      1  C   UNL     1       6.442  -3.613  24.086  0.00  0.00    +0.213 C 
ATOM      2  N   UNL     1       7.170  -4.578  24.880  0.00  0.00    -0.271 N 
ATOM      3  C   UNL     1       8.480  -4.542  24.512  0.00  0.00    +0.263 C 
ATOM      4  O   UNL     1       9.379  -5.329  24.693  0.00  0.00    -0.269 OA
ATOM      5  C   UNL     1       8.598  -3.201  23.840  0.00  0.00    +0.106 C 
ATOM      6  N   UNL     1       7.454  -2.591  23.674  0.00  0.00    -0.259 NA
ENDROOT
BRANCH   1   7
ATOM      7  CA  UNL     1       5.799  -4.244  22.796  0.00  0.00    +0.119 C 
BRANCH   7   8
ATOM      8  N   UNL     1       5.715  -3.309  21.634  0.00  0.00    -0.322 NA
ATOM      9  H1  UNL     1       6.624  -2.861  21.507  0.00  0.00    +0.119 HD
ATOM     10  H2  UNL     1       5.576  -3.869  20.790  0.00  0.00    +0.119 HD
ENDBRANCH   7   8
BRANCH   7  11
ATOM     11  C   UNL     1       4.396  -4.801  23.103  0.00  0.00    +0.178 C 
BRANCH  11  12
ATOM     12  O   UNL     1       4.195  -6.037  22.413  0.00  0.00    -0.393 OA
ATOM     13  H   UNL     1       4.769  -5.993  21.626  0.00  0.00    +0.209 HD
ENDBRANCH  11  12
ENDBRANCH   7  11
ENDBRANCH   1   7
BRANCH   2  14
ATOM     14  C   UNL     1       6.536  -5.602  25.698  0.00  0.00    +0.138 C 
BRANCH  14  15
ATOM     15  C   UNL     1       6.563  -5.256  27.193  0.00  0.00    +0.175 C 
BRANCH  15  16
ATOM     16  O   UNL     1       7.569  -6.017  27.860  0.00  0.00    -0.393 OA
ATOM     17  H   UNL     1       8.193  -6.307  27.172  0.00  0.00    +0.209 HD
ENDBRANCH  15  16
ENDBRANCH  14  15
ENDBRANCH   2  14
BRANCH   5  18
ATOM     18  C   UNL     1       9.939  -2.626  23.550  0.00  0.00    +0.115 C 
BRANCH  18  19
ATOM     19  C   UNL     1       9.817  -1.264  22.963  0.00  0.00    +0.041 A 
ATOM     20  N   UNL     1       9.364  -1.012  21.690  0.00  0.00    -0.348 N 
ATOM     21  H   UNL     1       9.040  -1.695  21.017  0.00  0.00    +0.166 HD
ATOM     22  C   UNL     1       9.444   0.337  21.485  0.00  0.00    +0.196 A 
ATOM     23  N   UNL     1       9.893   0.960  22.547  0.00  0.00    -0.244 NA
ATOM     24  C   UNL     1      10.129  -0.021  23.472  0.00  0.00    +0.134 A 
ENDBRANCH  18  19
ENDBRANCH   5  18
TORSDOF 9
ENDMDL
MODEL 4
REMARK VINA RESULT:      -5.3      2.512      6.017
REMARK  Name = 
REMARK  9 active torsions:
REMARK  status: ('A' for Active; 'I' for Inactive)
REMARK    1  A    between atoms: N_1  and  CA_2
REMARK    2  A    between atoms: CA_2  and  C_4
REMARK    3  A    between atoms: CA_2  and  C_6
REMARK    4  A    between atoms: C_4  and  O_5
REMARK    5  A    between atoms: C_9  and  C_10
REMARK    6  A    between atoms: C_10  and  C_11
REMARK    7  A    between atoms: N_18  and  C_19
REMARK    8  A    between atoms: C_19  and  C_20
REMARK    9  A    between atoms: C_20  and  O_21
REMARK                            x       y       z     vdW  Elec       q    Type
REMARK                         _______ _______ _______ _____ _____    ______ ____
ROOT
ATOM      1  C   UNL     1       9.645  -1.485  24.045  0.00  0.00    +0.213 C 
ATOM      2  N   UNL     1       8.486  -1.371  24.902  0.00  0.00    -0.271 N 
ATOM      3  C   UNL     1       7.738  -2.501  24.773  0.00  0.00    +0.263 C 
ATOM      4  O   UNL     1       6.589  -2.732  25.067  0.00  0.00    -0.269 OA
ATOM      5  C   UNL     1       8.722  -3.485  24.205  0.00  0.00    +0.106 C 
ATOM      6  N   UNL     1       9.870  -2.955  23.873  0.00  0.00    -0.259 NA
ENDROOT
BRANCH   1   7
ATOM      7  CA  UNL     1       9.426  -0.832  22.631  0.00  0.00    +0.119 C 
BRANCH   7   8
ATOM      8  N   UNL     1      10.042  -1.594  21.503  0.00  0.00    -0.322 NA
ATOM      9  H1  UNL     1      10.997  -1.846  21.761  0.00  0.00    +0.119 HD
ATOM     10  H2  UNL     1       9.548  -2.485  21.420  0.00  0.00    +0.119 HD
ENDBRANCH   7   8
BRANCH   7  11
ATOM     11  C   UNL     1       9.951   0.616  22.612  0.00  0.00    +0.178 C 
BRANCH  11  12
ATOM     12  O   UNL     1       9.599   1.251  21.380  0.00  0.00    -0.393 OA
ATOM     13  H   UNL     1       9.910   2.171  21.463  0.00  0.00    +0.209 HD
ENDBRANCH  11  12
ENDBRANCH   7  11
ENDBRANCH   1   7
BRANCH   2  14
ATOM     14  C   UNL     1       8.066  -0.132  25.541  0.00  0.00    +0.138 C 
BRANCH  14  15
ATOM     15  C   UNL     1       7.982  -0.260  27.068  0.00  0.00    +0.175 C 
BRANCH  15  16
ATOM     16  O   UNL     1       9.280  -0.480  27.619  0.00  0.00    -0.393 OA
ATOM     17  H   UNL     1       9.758   0.363  27.536  0.00  0.00    +0.209 HD
ENDBRANCH  15  16
ENDBRANCH  14  15
ENDBRANCH   2  14
BRANCH   5  18
ATOM     18  C   UNL     1       8.400  -4.939  24.186  0.00  0.00    +0.115 C 
BRANCH  18  19
ATOM     19  C   UNL     1       7.334  -5.233  23.192  0.00  0.00    +0.041 A 
ATOM     20  N   UNL     1       5.996  -5.316  23.498  0.00  0.00    -0.348 N 
ATOM     21  H   UNL     1       5.573  -5.167  24.406  0.00  0.00    +0.166 HD
ATOM     22  C   UNL     1       5.332  -5.656  22.354  0.00  0.00    +0.196 A 
ATOM     23  N   UNL     1       6.152  -5.770  21.337  0.00  0.00    -0.244 NA
ATOM     24  C   UNL     1       7.398  -5.511  21.843  0.00  0.00    +0.134 A 
ENDBRANCH  18  19
ENDBRANCH   5  18
TORSDOF 9
ENDMDL
MODEL 5
REMARK VINA RESULT:      -5.2      2.834      5.839
REMARK  Name = 
REMARK  9 active torsions:
REMARK  status: ('A' for Active; 'I' for Inactive)
REMARK    1  A    between atoms: N_1  and  CA_2
REMARK    2  A    between atoms: CA_2  and  C_4
REMARK    3  A    between atoms: CA_2  and  C_6
REMARK    4  A    between atoms: C_4  and  O_5
REMARK    5  A    between atoms: C_9  and  C_10
REMARK    6  A    between atoms: C_10  and  C_11
REMARK    7  A    between atoms: N_18  and  C_19
REMARK    8  A    between atoms: C_19  and  C_20
REMARK    9  A    between atoms: C_20  and  O_21
REMARK                            x       y       z     vdW  Elec       q    Type
REMARK                         _______ _______ _______ _____ _____    ______ ____
ROOT
ATOM      1  C   UNL     1       8.035  -0.483  24.179  0.00  0.00    +0.213 C 
ATOM      2  N   UNL     1       8.783  -0.655  22.953  0.00  0.00    -0.271 N 
ATOM      3  C   UNL     1       9.644  -1.696  23.112  0.00  0.00    +0.263 C 
ATOM      4  O   UNL     1      10.624  -2.021  22.484  0.00  0.00    -0.269 OA
ATOM      5  C   UNL     1       9.047  -2.444  24.272  0.00  0.00    +0.106 C 
ATOM      6  N   UNL     1       8.049  -1.823  24.845  0.00  0.00    -0.259 NA
ENDROOT
BRANCH   1   7
ATOM      7  CA  UNL     1       8.683   0.575  25.146  0.00  0.00    +0.119 C 
BRANCH   7   8
ATOM      8  N   UNL     1       8.732   0.147  26.577  0.00  0.00    -0.322 NA
ATOM      9  H1  UNL     1       7.804  -0.177  26.854  0.00  0.00    +0.119 HD
ATOM     10  H2  UNL     1       9.329  -0.680  26.637  0.00  0.00    +0.119 HD
ENDBRANCH   7   8
BRANCH   7  11
ATOM     11  C   UNL     1       7.951   1.927  25.045  0.00  0.00    +0.178 C 
BRANCH  11  12
ATOM     12  O   UNL     1       8.888   2.976  24.790  0.00  0.00    -0.393 OA
ATOM     13  H   UNL     1       8.379   3.678  24.344  0.00  0.00    +0.209 HD
ENDBRANCH  11  12
ENDBRANCH   7  11
ENDBRANCH   1   7
BRANCH   2  14
ATOM     14  C   UNL     1       8.804   0.319  21.871  0.00  0.00    +0.138 C 
BRANCH  14  15
ATOM     15  C   UNL     1      10.009   1.266  21.960  0.00  0.00    +0.175 C 
BRANCH  15  16
ATOM     16  O   UNL     1       9.587   2.621  21.807  0.00  0.00    -0.393 OA
ATOM     17  H   UNL     1      10.170   3.154  22.374  0.00  0.00    +0.209 HD
ENDBRANCH  15  16
ENDBRANCH  14  15
ENDBRANCH   2  14
BRANCH   5  18
ATOM     18  C   UNL     1       9.509  -3.823  24.591  0.00  0.00    +0.115 C 
BRANCH  18  19
ATOM     19  C   UNL     1       8.469  -4.569  25.349  0.00  0.00    +0.041 A 
ATOM     20  N   UNL     1       7.218  -4.861  24.858  0.00  0.00    -0.348 N 
ATOM     21  H   UNL     1       6.862  -4.636  23.937  0.00  0.00    +0.166 HD
ATOM     22  C   UNL     1       6.527  -5.500  25.848  0.00  0.00    +0.196 A 
ATOM     23  N   UNL     1       7.260  -5.657  26.924  0.00  0.00    -0.244 NA
ATOM     24  C   UNL     1       8.467  -5.083  26.628  0.00  0.00    +0.134 A 
ENDBRANCH  18  19
ENDBRANCH   5  18
TORSDOF 9
ENDMDL
MODEL 6
REMARK VINA RESULT:      -5.1      2.518      6.160
REMARK  Name = 
REMARK  9 active torsions:
REMARK  status: ('A' for Active; 'I' for Inactive)
REMARK    1  A    between atoms: N_1  and  CA_2
REMARK    2  A    between atoms: CA_2  and  C_4
REMARK    3  A    between atoms: CA_2  and  C_6
REMARK    4  A    between atoms: C_4  and  O_5
REMARK    5  A    between atoms: C_9  and  C_10
REMARK    6  A    between atoms: C_10  and  C_11
REMARK    7  A    between atoms: N_18  and  C_19
REMARK    8  A    between atoms: C_19  and  C_20
REMARK    9  A    between atoms: C_20  and  O_21
REMARK                            x       y       z     vdW  Elec       q    Type
REMARK                         _______ _______ _______ _____ _____    ______ ____
ROOT
ATOM      1  C   UNL     1       9.500  -2.412  23.865  0.00  0.00    +0.213 C 
ATOM      2  N   UNL     1       9.410  -1.536  25.012  0.00  0.00    -0.271 N 
ATOM      3  C   UNL     1       8.597  -2.115  25.938  0.00  0.00    +0.263 C 
ATOM      4  O   UNL     1       8.027  -1.650  26.896  0.00  0.00    -0.269 OA
ATOM      5  C   UNL     1       8.605  -3.561  25.525  0.00  0.00    +0.106 C 
ATOM      6  N   UNL     1       9.209  -3.784  24.388  0.00  0.00    -0.259 NA
ENDROOT
BRANCH   1   7
ATOM      7  CA  UNL     1       8.453  -2.061  22.744  0.00  0.00    +0.119 C 
BRANCH   7   8
ATOM      8  N   UNL     1       7.684  -3.235  22.234  0.00  0.00    -0.322 NA
ATOM      9  H1  UNL     1       7.308  -3.006  21.313  0.00  0.00    +0.119 HD
ATOM     10  H2  UNL     1       8.346  -3.995  22.067  0.00  0.00    +0.119 HD
ENDBRANCH   7   8
BRANCH   7  11
ATOM     11  C   UNL     1       9.140  -1.351  21.561  0.00  0.00    +0.178 C 
BRANCH  11  12
ATOM     12  O   UNL     1      10.555  -1.542  21.627  0.00  0.00    -0.393 OA
ATOM     13  H   UNL     1      10.689  -2.290  22.238  0.00  0.00    +0.209 HD
ENDBRANCH  11  12
ENDBRANCH   7  11
ENDBRANCH   1   7
BRANCH   2  14
ATOM     14  C   UNL     1       9.870  -0.155  25.017  0.00  0.00    +0.138 C 
BRANCH  14  15
ATOM     15  C   UNL     1       8.727   0.844  24.789  0.00  0.00    +0.175 C 
BRANCH  15  16
ATOM     16  O   UNL     1       8.230   1.323  26.038  0.00  0.00    -0.393 OA
ATOM     17  H   UNL     1       7.298   1.048  26.084  0.00  0.00    +0.209 HD
ENDBRANCH  15  16
ENDBRANCH  14  15
ENDBRANCH   2  14
BRANCH   5  18
ATOM     18  C   UNL     1       8.079  -4.604  26.448  0.00  0.00    +0.115 C 
BRANCH  18  19
ATOM     19  C   UNL     1       6.878  -5.266  25.873  0.00  0.00    +0.041 A 
ATOM     20  N   UNL     1       6.514  -5.186  24.549  0.00  0.00    -0.348 N 
ATOM     21  H   UNL     1       7.013  -4.702  23.813  0.00  0.00    +0.166 HD
ATOM     22  C   UNL     1       5.337  -5.865  24.404  0.00  0.00    +0.196 A 
ATOM     23  N   UNL     1       4.943  -6.394  25.538  0.00  0.00    -0.244 NA
ATOM     24  C   UNL     1       5.890  -6.029  26.458  0.00  0.00    +0.134 A 
ENDBRANCH  18  19
ENDBRANCH   5  18
TORSDOF 9
ENDMDL
MODEL 7
REMARK VINA RESULT:      -5.0      1.988      2.489
REMARK  Name = 
REMARK  9 active torsions:
REMARK  status: ('A' for Active; 'I' for Inactive)
REMARK    1  A    between atoms: N_1  and  CA_2
REMARK    2  A    between atoms: CA_2  and  C_4
REMARK    3  A    between atoms: CA_2  and  C_6
REMARK    4  A    between atoms: C_4  and  O_5
REMARK    5  A    between atoms: C_9  and  C_10
REMARK    6  A    between atoms: C_10  and  C_11
REMARK    7  A    between atoms: N_18  and  C_19
REMARK    8  A    between atoms: C_19  and  C_20
REMARK    9  A    between atoms: C_20  and  O_21
REMARK                            x       y       z     vdW  Elec       q    Type
REMARK                         _______ _______ _______ _____ _____    ______ ____
ROOT
ATOM      1  C   UNL     1       6.571  -5.263  24.999  0.00  0.00    +0.213 C 
ATOM      2  N   UNL     1       5.399  -5.108  24.166  0.00  0.00    -0.271 N 
ATOM      3  C   UNL     1       5.625  -4.099  23.281  0.00  0.00    +0.263 C 
ATOM      4  O   UNL     1       4.864  -3.451  22.603  0.00  0.00    -0.269 OA
ATOM      5  C   UNL     1       7.126  -3.992  23.280  0.00  0.00    +0.106 C 
ATOM      6  N   UNL     1       7.710  -4.730  24.187  0.00  0.00    -0.259 NA
ENDROOT
BRANCH   1   7
ATOM      7  CA  UNL     1       6.478  -4.451  26.343  0.00  0.00    +0.119 C 
BRANCH   7   8
ATOM      8  N   UNL     1       7.611  -3.504  26.565  0.00  0.00    -0.322 NA
ATOM      9  H1  UNL     1       7.763  -2.967  25.710  0.00  0.00    +0.119 HD
ATOM     10  H2  UNL     1       7.313  -2.815  27.259  0.00  0.00    +0.119 HD
ENDBRANCH   7   8
BRANCH   7  11
ATOM     11  C   UNL     1       6.368  -5.404  27.549  0.00  0.00    +0.178 C 
BRANCH  11  12
ATOM     12  O   UNL     1       7.631  -6.024  27.803  0.00  0.00    -0.393 OA
ATOM     13  H   UNL     1       7.453  -6.982  27.815  0.00  0.00    +0.209 HD
ENDBRANCH  11  12
ENDBRANCH   7  11
ENDBRANCH   1   7
BRANCH   2  14
ATOM     14  C   UNL     1       4.113  -5.728  24.450  0.00  0.00    +0.138 C 
BRANCH  14  15
ATOM     15  C   UNL     1       4.255  -7.185  24.912  0.00  0.00    +0.175 C 
BRANCH  15  16
ATOM     16  O   UNL     1       3.449  -8.042  24.105  0.00  0.00    -0.393 OA
ATOM     17  H   UNL     1       3.550  -8.938  24.472  0.00  0.00    +0.209 HD
ENDBRANCH  15  16
ENDBRANCH  14  15
ENDBRANCH   2  14
BRANCH   5  18
ATOM     18  C   UNL     1       7.818  -3.208  22.221  0.00  0.00    +0.115 C 
BRANCH  18  19
ATOM     19  C   UNL     1       8.787  -2.249  22.818  0.00  0.00    +0.041 A 
ATOM     20  N   UNL     1       8.807  -1.901  24.148  0.00  0.00    -0.348 N 
ATOM     21  H   UNL     1       8.201  -2.260  24.876  0.00  0.00    +0.166 HD
ATOM     22  C   UNL     1       9.786  -0.963  24.313  0.00  0.00    +0.196 A 
ATOM     23  N   UNL     1      10.407  -0.711  23.186  0.00  0.00    -0.244 NA
ATOM     24  C   UNL     1       9.796  -1.501  22.249  0.00  0.00    +0.134 A 
ENDBRANCH  18  19
ENDBRANCH   5  18
TORSDOF 9
ENDMDL
MODEL 8
REMARK VINA RESULT:      -5.0      2.711      5.896
REMARK  Name = 
REMARK  9 active torsions:
REMARK  status: ('A' for Active; 'I' for Inactive)
REMARK    1  A    between atoms: N_1  and  CA_2
REMARK    2  A    between atoms: CA_2  and  C_4
REMARK    3  A    between atoms: CA_2  and  C_6
REMARK    4  A    between atoms: C_4  and  O_5
REMARK    5  A    between atoms: C_9  and  C_10
REMARK    6  A    between atoms: C_10  and  C_11
REMARK    7  A    between atoms: N_18  and  C_19
REMARK    8  A    between atoms: C_19  and  C_20
REMARK    9  A    between atoms: C_20  and  O_21
REMARK                            x       y       z     vdW  Elec       q    Type
REMARK                         _______ _______ _______ _____ _____    ______ ____
ROOT
ATOM      1  C   UNL     1       8.167  -0.297  23.976  0.00  0.00    +0.213 C 
ATOM      2  N   UNL     1       9.183  -0.826  23.093  0.00  0.00    -0.271 N 
ATOM      3  C   UNL     1       9.508  -2.081  23.507  0.00  0.00    +0.263 C 
ATOM      4  O   UNL     1      10.464  -2.778  23.260  0.00  0.00    -0.269 OA
ATOM      5  C   UNL     1       8.321  -2.469  24.345  0.00  0.00    +0.106 C 
ATOM      6  N   UNL     1       7.474  -1.494  24.547  0.00  0.00    -0.259 NA
ENDROOT
BRANCH   1   7
ATOM      7  CA  UNL     1       8.766   0.557  25.154  0.00  0.00    +0.119 C 
BRANCH   7   8
ATOM      8  N   UNL     1       8.294   0.145  26.510  0.00  0.00    -0.322 NA
ATOM      9  H1  UNL     1       7.400   0.602  26.699  0.00  0.00    +0.119 HD
ATOM     10  H2  UNL     1       8.078  -0.853  26.477  0.00  0.00    +0.119 HD
ENDBRANCH   7   8
BRANCH   7  11
ATOM     11  C   UNL     1       8.469   2.055  24.946  0.00  0.00    +0.178 C 
BRANCH  11  12
ATOM     12  O   UNL     1       9.610   2.710  24.386  0.00  0.00    -0.393 OA
ATOM     13  H   UNL     1      10.274   2.008  24.253  0.00  0.00    +0.209 HD
ENDBRANCH  11  12
ENDBRANCH   7  11
ENDBRANCH   1   7
BRANCH   2  14
ATOM     14  C   UNL     1       9.924  -0.021  22.132  0.00  0.00    +0.138 C 
BRANCH  14  15
ATOM     15  C   UNL     1       9.024   0.973  21.385  0.00  0.00    +0.175 C 
BRANCH  15  16
ATOM     16  O   UNL     1       9.565   2.291  21.469  0.00  0.00    -0.393 OA
ATOM     17  H   UNL     1      10.091   2.318  22.287  0.00  0.00    +0.209 HD
ENDBRANCH  15  16
ENDBRANCH  14  15
ENDBRANCH   2  14
BRANCH   5  18
ATOM     18  C   UNL     1       8.124  -3.888  24.751  0.00  0.00    +0.115 C 
BRANCH  18  19
ATOM     19  C   UNL     1       7.209  -4.587  23.809  0.00  0.00    +0.041 A 
ATOM     20  N   UNL     1       5.848  -4.396  23.771  0.00  0.00    -0.348 N 
ATOM     21  H   UNL     1       5.312  -3.756  24.343  0.00  0.00    +0.166 HD
ATOM     22  C   UNL     1       5.340  -5.243  22.828  0.00  0.00    +0.196 A 
ATOM     23  N   UNL     1       6.286  -5.941  22.246  0.00  0.00    -0.244 NA
ATOM     24  C   UNL     1       7.451  -5.544  22.846  0.00  0.00    +0.134 A 
ENDBRANCH  18  19
ENDBRANCH   5  18
TORSDOF 9
ENDMDL
MODEL 9
REMARK VINA RESULT:      -5.0      2.707      5.801
REMARK  Name = 
REMARK  9 active torsions:
REMARK  status: ('A' for Active; 'I' for Inactive)
REMARK    1  A    between atoms: N_1  and  CA_2
REMARK    2  A    between atoms: CA_2  and  C_4
REMARK    3  A    between atoms: CA_2  and  C_6
REMARK    4  A    between atoms: C_4  and  O_5
REMARK    5  A    between atoms: C_9  and  C_10
REMARK    6  A    between atoms: C_10  and  C_11
REMARK    7  A    between atoms: N_18  and  C_19
REMARK    8  A    between atoms: C_19  and  C_20
REMARK    9  A    between atoms: C_20  and  O_21
REMARK                            x       y       z     vdW  Elec       q    Type
REMARK                         _______ _______ _______ _____ _____    ______ ____
ROOT
ATOM      1  C   UNL     1       8.833  -1.064  23.651  0.00  0.00    +0.213 C 
ATOM      2  N   UNL     1       7.404  -1.131  23.863  0.00  0.00    -0.271 N 
ATOM      3  C   UNL     1       6.993  -2.412  23.657  0.00  0.00    +0.263 C 
ATOM      4  O   UNL     1       5.895  -2.872  23.455  0.00  0.00    -0.269 OA
ATOM      5  C   UNL     1       8.270  -3.194  23.802  0.00  0.00    +0.106 C 
ATOM      6  N   UNL     1       9.338  -2.450  23.908  0.00  0.00    -0.259 NA
ENDROOT
BRANCH   1   7
ATOM      7  CA  UNL     1       9.214  -0.645  22.183  0.00  0.00    +0.119 C 
BRANCH   7   8
ATOM      8  N   UNL     1      10.216  -1.541  21.532  0.00  0.00    -0.322 NA
ATOM      9  H1  UNL     1       9.832  -2.487  21.489  0.00  0.00    +0.119 HD
ATOM     10  H2  UNL     1      10.310  -1.251  20.557  0.00  0.00    +0.119 HD
ENDBRANCH   7   8
BRANCH   7  11
ATOM     11  C   UNL     1       9.730   0.806  22.147  0.00  0.00    +0.178 C 
BRANCH  11  12
ATOM     12  O   UNL     1       9.079   1.534  21.103  0.00  0.00    -0.393 OA
ATOM     13  H   UNL     1       9.053   2.459  21.408  0.00  0.00    +0.209 HD
ENDBRANCH  11  12
ENDBRANCH   7  11
ENDBRANCH   1   7
BRANCH   2  14
ATOM     14  C   UNL     1       6.544   0.039  23.975  0.00  0.00    +0.138 C 
BRANCH  14  15
ATOM     15  C   UNL     1       6.071   0.282  25.415  0.00  0.00    +0.175 C 
BRANCH  15  16
ATOM     16  O   UNL     1       4.665   0.528  25.440  0.00  0.00    -0.393 OA
ATOM     17  H   UNL     1       4.251  -0.286  25.772  0.00  0.00    +0.209 HD
ENDBRANCH  15  16
ENDBRANCH  14  15
ENDBRANCH   2  14
BRANCH   5  18
ATOM     18  C   UNL     1       8.226  -4.675  23.949  0.00  0.00    +0.115 C 
BRANCH  18  19
ATOM     19  C   UNL     1       7.711  -5.061  25.290  0.00  0.00    +0.041 A 
ATOM     20  N   UNL     1       6.393  -5.353  25.555  0.00  0.00    -0.348 N 
ATOM     21  H   UNL     1       5.631  -5.367  24.888  0.00  0.00    +0.166 HD
ATOM     22  C   UNL     1       6.289  -5.605  26.894  0.00  0.00    +0.196 A 
ATOM     23  N   UNL     1       7.453  -5.519  27.492  0.00  0.00    -0.244 NA
ATOM     24  C   UNL     1       8.344  -5.182  26.509  0.00  0.00    +0.134 A 
ENDBRANCH  18  19
ENDBRANCH   5  18
TORSDOF 9
ENDMDL
