MODEL 1
REMARK VINA RESULT:      -4.7      0.000      0.000
REMARK  Name = 
REMARK  17 active torsions:
REMARK  status: ('A' for Active; 'I' for Inactive)
REMARK    1  A    between atoms: C_2  and  O_3
REMARK    2  A    between atoms: C_2  and  C_4
REMARK    3  A    between atoms: C_2  and  C_9
REMARK    4  A    between atoms: C_4  and  C_5
REMARK    5  A    between atoms: C_5  and  C_6
REMARK    6  A    between atoms: C_6  and  C_7
REMARK    7  A    between atoms: C_7  and  C_8
REMARK    8  A    between atoms: C_10  and  C_11
REMARK    9  A    between atoms: C_12  and  C_13
REMARK   10  A    between atoms: C_13  and  C_14
REMARK   11  A    between atoms: C_14  and  C_15
REMARK   12  A    between atoms: C_15  and  C_16
REMARK   13  A    between atoms: C_16  and  C_17
REMARK   14  A    between atoms: C_17  and  C_18
REMARK   15  A    between atoms: C_18  and  C_19
REMARK   16  A    between atoms: C_19  and  C_20
REMARK   17  A    between atoms: C_20  and  O_21
REMARK                            x       y       z     vdW  Elec       q    Type
REMARK                         _______ _______ _______ _____ _____    ______ ____
ROOT
ATOM      1  C   UNL     1       6.225  -0.254  24.692  0.00  0.00    -0.004 C 
ATOM      2  C   UNL     1       7.284   0.276  25.327  0.00  0.00    -0.027 C 
ENDROOT
BRANCH   1   4
ATOM      3  C   UNL     1       6.029  -2.253  23.261  0.00  0.00    +0.004 C 
ATOM      4  C   UNL     1       6.058  -1.670  24.468  0.00  0.00    -0.002 C 
BRANCH   3   5
ATOM      5  C   UNL     1       5.923  -3.743  23.105  0.00  0.00    +0.137 C 
BRANCH   5   6
ATOM      6  O   UNL     1       4.887  -4.019  22.169  0.00  0.00    -0.388 OA
ATOM      7  H   UNL     1       4.474  -3.174  21.928  0.00  0.00    +0.210 HD
ENDBRANCH   5   6
BRANCH   5   8
ATOM      8  C   UNL     1       7.226  -4.387  22.618  0.00  0.00    +0.035 C 
BRANCH   8   9
ATOM      9  C   UNL     1       7.910  -5.247  23.685  0.00  0.00    +0.003 C 
BRANCH   9  10
ATOM     10  C   UNL     1       7.325  -4.973  25.070  0.00  0.00    -0.000 C 
BRANCH  10  11
ATOM     11  C   UNL     1       8.422  -4.897  26.130  0.00  0.00    -0.003 C 
ATOM     12  C   UNL     1       9.796  -5.135  25.522  0.00  0.00    +0.004 C 
ENDBRANCH  10  11
ENDBRANCH   9  10
ENDBRANCH   8   9
ENDBRANCH   5   8
ENDBRANCH   3   5
ENDBRANCH   1   4
BRANCH   2  13
ATOM     13  C   UNL     1       8.416  -0.532  25.899  0.00  0.00    +0.027 C 
BRANCH  13  14
ATOM     14  C   UNL     1       9.659  -0.562  25.012  0.00  0.00    +0.004 C 
BRANCH  14  15
ATOM     15  C   UNL     1       9.708  -1.876  24.230  0.00  0.00    +0.000 C 
BRANCH  15  16
ATOM     16  C   UNL     1      10.245  -1.661  22.819  0.00  0.00    +0.000 C 
BRANCH  16  17
ATOM     17  C   UNL     1       9.115  -1.356  21.836  0.00  0.00    +0.001 C 
BRANCH  17  18
ATOM     18  C   UNL     1       9.327   0.009  21.182  0.00  0.00    +0.011 C 
BRANCH  18  19
ATOM     19  C   UNL     1       8.498   1.096  21.863  0.00  0.00    +0.120 C 
BRANCH  19  20
ATOM     20  C   UNL     1       9.378   2.156  22.490  0.00  0.00    +0.305 C 
ATOM     21  O   UNL     1       9.198   2.673  23.581  0.00  0.00    -0.251 OA
BRANCH  20  22
ATOM     22  O   UNL     1      10.417   2.493  21.693  0.00  0.00    -0.481 OA
ATOM     23  H   UNL     1      11.287   2.225  22.046  0.00  0.00    +0.295 HD
ENDBRANCH  20  22
ENDBRANCH  19  20
ENDBRANCH  18  19
ENDBRANCH  17  18
ENDBRANCH  16  17
ENDBRANCH  15  16
ENDBRANCH  14  15
ENDBRANCH  13  14
ENDBRANCH   2  13
TORSDOF 16
ENDMDL
MODEL 2
REMARK VINA RESULT:      -4.7      2.428      6.055
REMARK  Name = 
REMARK  17 active torsions:
REMARK  status: ('A' for Active; 'I' for Inactive)
REMARK    1  A    between atoms: C_2  and  O_3
REMARK    2  A    between atoms: C_2  and  C_4
REMARK    3  A    between atoms: C_2  and  C_9
REMARK    4  A    between atoms: C_4  and  C_5
REMARK    5  A    between atoms: C_5  and  C_6
REMARK    6  A    between atoms: C_6  and  C_7
REMARK    7  A    between atoms: C_7  and  C_8
REMARK    8  A    between atoms: C_10  and  C_11
REMARK    9  A    between atoms: C_12  and  C_13
REMARK   10  A    between atoms: C_13  and  C_14
REMARK   11  A    between atoms: C_14  and  C_15
REMARK   12  A    between atoms: C_15  and  C_16
REMARK   13  A    between atoms: C_16  and  C_17
REMARK   14  A    between atoms: C_17  and  C_18
REMARK   15  A    between atoms: C_18  and  C_19
REMARK   16  A    between atoms: C_19  and  C_20
REMARK   17  A    between atoms: C_20  and  O_21
REMARK                            x       y       z     vdW  Elec       q    Type
REMARK                         _______ _______ _______ _____ _____    ______ ____
ROOT
ATOM      1  C   UNL     1       8.696  -1.554  26.021  0.00  0.00    -0.004 C 
ATOM      2  C   UNL     1       7.369  -1.537  26.237  0.00  0.00    -0.027 C 
ENDROOT
BRANCH   1   4
ATOM      3  C   UNL     1       9.839  -1.699  23.841  0.00  0.00    +0.004 C 
ATOM      4  C   UNL     1       9.318  -0.986  24.849  0.00  0.00    -0.002 C 
BRANCH   3   5
ATOM      5  C   UNL     1      10.410  -1.040  22.618  0.00  0.00    +0.137 C 
BRANCH   5   6
ATOM      6  O   UNL     1       9.857  -1.674  21.471  0.00  0.00    -0.388 OA
ATOM      7  H   UNL     1      10.008  -1.089  20.710  0.00  0.00    +0.210 HD
ENDBRANCH   5   6
BRANCH   5   8
ATOM      8  C   UNL     1      10.112   0.463  22.556  0.00  0.00    +0.035 C 
BRANCH   8   9
ATOM      9  C   UNL     1       8.997   0.817  21.567  0.00  0.00    +0.003 C 
BRANCH   9  10
ATOM     10  C   UNL     1       7.685   1.101  22.296  0.00  0.00    -0.000 C 
BRANCH  10  11
ATOM     11  C   UNL     1       7.702   2.482  22.950  0.00  0.00    -0.003 C 
ATOM     12  C   UNL     1       7.689   2.376  24.467  0.00  0.00    +0.004 C 
ENDBRANCH  10  11
ENDBRANCH   9  10
ENDBRANCH   8   9
ENDBRANCH   5   8
ENDBRANCH   3   5
ENDBRANCH   1   4
BRANCH   2  13
ATOM     13  C   UNL     1       6.370  -0.912  25.303  0.00  0.00    +0.027 C 
BRANCH  13  14
ATOM     14  C   UNL     1       5.437  -1.920  24.637  0.00  0.00    +0.004 C 
BRANCH  14  15
ATOM     15  C   UNL     1       6.091  -2.480  23.373  0.00  0.00    +0.000 C 
BRANCH  15  16
ATOM     16  C   UNL     1       6.239  -3.996  23.451  0.00  0.00    +0.000 C 
BRANCH  16  17
ATOM     17  C   UNL     1       7.690  -4.424  23.235  0.00  0.00    +0.001 C 
BRANCH  17  18
ATOM     18  C   UNL     1       8.273  -5.013  24.520  0.00  0.00    +0.011 C 
BRANCH  18  19
ATOM     19  C   UNL     1       7.213  -5.149  25.610  0.00  0.00    +0.120 C 
BRANCH  19  20
ATOM     20  C   UNL     1       7.839  -5.360  26.971  0.00  0.00    +0.305 C 
ATOM     21  O   UNL     1       7.292  -5.881  27.930  0.00  0.00    -0.251 OA
BRANCH  20  22
ATOM     22  O   UNL     1       9.107  -4.894  27.028  0.00  0.00    -0.481 OA
ATOM     23  H   UNL     1       9.772  -5.514  26.675  0.00  0.00    +0.295 HD
ENDBRANCH  20  22
ENDBRANCH  19  20
ENDBRANCH  18  19
ENDBRANCH  17  18
ENDBRANCH  16  17
ENDBRANCH  15  16
ENDBRANCH  14  15
ENDBRANCH  13  14
ENDBRANCH   2  13
TORSDOF 16
ENDMDL
MODEL 3
REMARK VINA RESULT:      -4.7      2.762      6.639
REMARK  Name = 
REMARK  17 active torsions:
REMARK  status: ('A' for Active; 'I' for Inactive)
REMARK    1  A    between atoms: C_2  and  O_3
REMARK    2  A    between atoms: C_2  and  C_4
REMARK    3  A    between atoms: C_2  and  C_9
REMARK    4  A    between atoms: C_4  and  C_5
REMARK    5  A    between atoms: C_5  and  C_6
REMARK    6  A    between atoms: C_6  and  C_7
REMARK    7  A    between atoms: C_7  and  C_8
REMARK    8  A    between atoms: C_10  and  C_11
REMARK    9  A    between atoms: C_12  and  C_13
REMARK   10  A    between atoms: C_13  and  C_14
REMARK   11  A    between atoms: C_14  and  C_15
REMARK   12  A    between atoms: C_15  and  C_16
REMARK   13  A    between atoms: C_16  and  C_17
REMARK   14  A    between atoms: C_17  and  C_18
REMARK   15  A    between atoms: C_18  and  C_19
REMARK   16  A    between atoms: C_19  and  C_20
REMARK   17  A    between atoms: C_20  and  O_21
REMARK                            x       y       z     vdW  Elec       q    Type
REMARK                         _______ _______ _______ _____ _____    ______ ____
ROOT
ATOM      1  C   UNL     1       6.175  -2.309  22.524  0.00  0.00    -0.004 C 
ATOM      2  C   UNL     1       5.665  -3.417  21.959  0.00  0.00    -0.027 C 
ENDROOT
BRANCH   1   4
ATOM      3  C   UNL     1       8.123  -2.098  24.021  0.00  0.00    +0.004 C 
ATOM      4  C   UNL     1       7.581  -2.129  22.796  0.00  0.00    -0.002 C 
BRANCH   3   5
ATOM      5  C   UNL     1       9.606  -1.977  24.227  0.00  0.00    +0.137 C 
BRANCH   5   6
ATOM      6  O   UNL     1      10.182  -3.270  24.085  0.00  0.00    -0.388 OA
ATOM      7  H   UNL     1      10.672  -3.284  23.247  0.00  0.00    +0.210 HD
ENDBRANCH   5   6
BRANCH   5   8
ATOM      8  C   UNL     1      10.270  -1.018  23.233  0.00  0.00    +0.035 C 
BRANCH   8   9
ATOM      9  C   UNL     1      10.776   0.272  23.884  0.00  0.00    +0.003 C 
BRANCH   9  10
ATOM     10  C   UNL     1       9.926   1.470  23.465  0.00  0.00    -0.000 C 
BRANCH  10  11
ATOM     11  C   UNL     1       9.752   1.524  21.949  0.00  0.00    -0.003 C 
ATOM     12  C   UNL     1       8.290   1.681  21.564  0.00  0.00    +0.004 C 
ENDBRANCH  10  11
ENDBRANCH   9  10
ENDBRANCH   8   9
ENDBRANCH   5   8
ENDBRANCH   3   5
ENDBRANCH   1   4
BRANCH   2  13
ATOM     13  C   UNL     1       6.489  -4.597  21.524  0.00  0.00    +0.027 C 
BRANCH  13  14
ATOM     14  C   UNL     1       5.997  -5.930  22.083  0.00  0.00    +0.004 C 
BRANCH  14  15
ATOM     15  C   UNL     1       4.651  -5.736  22.783  0.00  0.00    +0.000 C 
BRANCH  15  16
ATOM     16  C   UNL     1       4.726  -6.140  24.251  0.00  0.00    +0.000 C 
BRANCH  16  17
ATOM     17  C   UNL     1       4.507  -4.939  25.170  0.00  0.00    +0.001 C 
BRANCH  17  18
ATOM     18  C   UNL     1       5.845  -4.331  25.588  0.00  0.00    +0.011 C 
BRANCH  18  19
ATOM     19  C   UNL     1       6.948  -5.384  25.649  0.00  0.00    +0.120 C 
BRANCH  19  20
ATOM     20  C   UNL     1       7.859  -5.167  26.838  0.00  0.00    +0.305 C 
ATOM     21  O   UNL     1       8.695  -4.283  26.940  0.00  0.00    -0.251 OA
BRANCH  20  22
ATOM     22  O   UNL     1       7.657  -6.085  27.811  0.00  0.00    -0.481 OA
ATOM     23  H   UNL     1       7.120  -6.848  27.527  0.00  0.00    +0.295 HD
ENDBRANCH  20  22
ENDBRANCH  19  20
ENDBRANCH  18  19
ENDBRANCH  17  18
ENDBRANCH  16  17
ENDBRANCH  15  16
ENDBRANCH  14  15
ENDBRANCH  13  14
ENDBRANCH   2  13
TORSDOF 16
ENDMDL
MODEL 4
REMARK VINA RESULT:      -4.6      1.740      2.546
REMARK  Name = 
REMARK  17 active torsions:
REMARK  status: ('A' for Active; 'I' for Inactive)
REMARK    1  A    between atoms: C_2  and  O_3
REMARK    2  A    between atoms: C_2  and  C_4
REMARK    3  A    between atoms: C_2  and  C_9
REMARK    4  A    between atoms: C_4  and  C_5
REMARK    5  A    between atoms: C_5  and  C_6
REMARK    6  A    between atoms: C_6  and  C_7
REMARK    7  A    between atoms: C_7  and  C_8
REMARK    8  A    between atoms: C_10  and  C_11
REMARK    9  A    between atoms: C_12  and  C_13
REMARK   10  A    between atoms: C_13  and  C_14
REMARK   11  A    between atoms: C_14  and  C_15
REMARK   12  A    between atoms: C_15  and  C_16
REMARK   13  A    between atoms: C_16  and  C_17
REMARK   14  A    between atoms: C_17  and  C_18
REMARK   15  A    between atoms: C_18  and  C_19
REMARK   16  A    between atoms: C_19  and  C_20
REMARK   17  A    between atoms: C_20  and  O_21
REMARK                            x       y       z     vdW  Elec       q    Type
REMARK                         _______ _______ _______ _____ _____    ______ ____
ROOT
ATOM      1  C   UNL     1       9.280  -2.016  22.251  0.00  0.00    -0.004 C 
ATOM      2  C   UNL     1      10.025  -1.532  23.259  0.00  0.00    -0.027 C 
ENDROOT
BRANCH   1   4
ATOM      3  C   UNL     1       7.420  -3.604  22.572  0.00  0.00    +0.004 C 
ATOM      4  C   UNL     1       7.884  -2.360  22.386  0.00  0.00    -0.002 C 
BRANCH   3   5
ATOM      5  C   UNL     1       5.957  -3.879  22.774  0.00  0.00    +0.137 C 
BRANCH   5   6
ATOM      6  O   UNL     1       5.471  -4.566  21.627  0.00  0.00    -0.388 OA
ATOM      7  H   UNL     1       4.744  -5.143  21.915  0.00  0.00    +0.210 HD
ENDBRANCH   5   6
BRANCH   5   8
ATOM      8  C   UNL     1       5.676  -4.723  24.023  0.00  0.00    +0.035 C 
BRANCH   8   9
ATOM      9  C   UNL     1       6.373  -4.194  25.279  0.00  0.00    +0.003 C 
BRANCH   9  10
ATOM     10  C   UNL     1       7.237  -5.276  25.926  0.00  0.00    -0.000 C 
BRANCH  10  11
ATOM     11  C   UNL     1       8.586  -4.714  26.373  0.00  0.00    -0.003 C 
ATOM     12  C   UNL     1       9.667  -4.980  25.337  0.00  0.00    +0.004 C 
ENDBRANCH  10  11
ENDBRANCH   9  10
ENDBRANCH   8   9
ENDBRANCH   5   8
ENDBRANCH   3   5
ENDBRANCH   1   4
BRANCH   2  13
ATOM     13  C   UNL     1       9.501  -1.270  24.644  0.00  0.00    +0.027 C 
BRANCH  13  14
ATOM     14  C   UNL     1       9.961   0.061  25.233  0.00  0.00    +0.004 C 
BRANCH  14  15
ATOM     15  C   UNL     1      10.918   0.757  24.265  0.00  0.00    +0.000 C 
BRANCH  15  16
ATOM     16  C   UNL     1      10.323   2.056  23.733  0.00  0.00    +0.000 C 
BRANCH  16  17
ATOM     17  C   UNL     1      10.230   2.042  22.208  0.00  0.00    +0.001 C 
BRANCH  17  18
ATOM     18  C   UNL     1       8.821   1.657  21.759  0.00  0.00    +0.011 C 
BRANCH  18  19
ATOM     19  C   UNL     1       7.767   2.089  22.775  0.00  0.00    +0.120 C 
BRANCH  19  20
ATOM     20  C   UNL     1       6.960   3.267  22.274  0.00  0.00    +0.305 C 
ATOM     21  O   UNL     1       5.751   3.278  22.102  0.00  0.00    -0.251 OA
BRANCH  20  22
ATOM     22  O   UNL     1       7.735   4.345  22.017  0.00  0.00    -0.481 OA
ATOM     23  H   UNL     1       7.515   4.799  21.183  0.00  0.00    +0.295 HD
ENDBRANCH  20  22
ENDBRANCH  19  20
ENDBRANCH  18  19
ENDBRANCH  17  18
ENDBRANCH  16  17
ENDBRANCH  15  16
ENDBRANCH  14  15
ENDBRANCH  13  14
ENDBRANCH   2  13
TORSDOF 16
ENDMDL
MODEL 5
REMARK VINA RESULT:      -4.6      2.301      6.580
REMARK  Name = 
REMARK  17 active torsions:
REMARK  status: ('A' for Active; 'I' for Inactive)
REMARK    1  A    between atoms: C_2  and  O_3
REMARK    2  A    between atoms: C_2  and  C_4
REMARK    3  A    between atoms: C_2  and  C_9
REMARK    4  A    between atoms: C_4  and  C_5
REMARK    5  A    between atoms: C_5  and  C_6
REMARK    6  A    between atoms: C_6  and  C_7
REMARK    7  A    between atoms: C_7  and  C_8
REMARK    8  A    between atoms: C_10  and  C_11
REMARK    9  A    between atoms: C_12  and  C_13
REMARK   10  A    between atoms: C_13  and  C_14
REMARK   11  A    between atoms: C_14  and  C_15
REMARK   12  A    between atoms: C_15  and  C_16
REMARK   13  A    between atoms: C_16  and  C_17
REMARK   14  A    between atoms: C_17  and  C_18
REMARK   15  A    between atoms: C_18  and  C_19
REMARK   16  A    between atoms: C_19  and  C_20
REMARK   17  A    between atoms: C_20  and  O_21
REMARK                            x       y       z     vdW  Elec       q    Type
REMARK                         _______ _______ _______ _____ _____    ______ ____
ROOT
ATOM      1  C   UNL     1       8.297  -2.572  22.653  0.00  0.00    -0.004 C 
ATOM      2  C   UNL     1       7.153  -3.107  22.195  0.00  0.00    -0.027 C 
ENDROOT
BRANCH   1   4
ATOM      3  C   UNL     1       9.397  -1.286  24.447  0.00  0.00    +0.004 C 
ATOM      4  C   UNL     1       8.346  -1.532  23.652  0.00  0.00    -0.002 C 
BRANCH   3   5
ATOM      5  C   UNL     1       9.403  -0.141  25.418  0.00  0.00    +0.137 C 
BRANCH   5   6
ATOM      6  O   UNL     1      10.665   0.511  25.331  0.00  0.00    -0.388 OA
ATOM      7  H   UNL     1      10.944   0.736  26.234  0.00  0.00    +0.210 HD
ENDBRANCH   5   6
BRANCH   5   8
ATOM      8  C   UNL     1       8.291   0.879  25.147  0.00  0.00    +0.035 C 
BRANCH   8   9
ATOM      9  C   UNL     1       8.765   2.087  24.334  0.00  0.00    +0.003 C 
BRANCH   9  10
ATOM     10  C   UNL     1       7.871   2.315  23.116  0.00  0.00    -0.000 C 
BRANCH  10  11
ATOM     11  C   UNL     1       8.493   1.722  21.853  0.00  0.00    -0.003 C 
ATOM     12  C   UNL     1      10.005   1.622  21.976  0.00  0.00    +0.004 C 
ENDBRANCH  10  11
ENDBRANCH   9  10
ENDBRANCH   8   9
ENDBRANCH   5   8
ENDBRANCH   3   5
ENDBRANCH   1   4
BRANCH   2  13
ATOM     13  C   UNL     1       5.784  -2.708  22.674  0.00  0.00    +0.027 C 
BRANCH  13  14
ATOM     14  C   UNL     1       4.890  -3.891  23.036  0.00  0.00    +0.004 C 
BRANCH  14  15
ATOM     15  C   UNL     1       5.750  -5.080  23.468  0.00  0.00    +0.000 C 
BRANCH  15  16
ATOM     16  C   UNL     1       5.232  -5.697  24.763  0.00  0.00    +0.000 C 
BRANCH  16  17
ATOM     17  C   UNL     1       5.653  -4.872  25.979  0.00  0.00    +0.001 C 
BRANCH  17  18
ATOM     18  C   UNL     1       7.046  -4.279  25.769  0.00  0.00    +0.011 C 
BRANCH  18  19
ATOM     19  C   UNL     1       8.137  -5.193  26.320  0.00  0.00    +0.120 C 
BRANCH  19  20
ATOM     20  C   UNL     1       9.224  -5.440  25.296  0.00  0.00    +0.305 C 
ATOM     21  O   UNL     1       9.047  -5.612  24.100  0.00  0.00    -0.251 OA
BRANCH  20  22
ATOM     22  O   UNL     1      10.456  -5.461  25.854  0.00  0.00    -0.481 OA
ATOM     23  H   UNL     1      10.978  -4.654  25.688  0.00  0.00    +0.295 HD
ENDBRANCH  20  22
ENDBRANCH  19  20
ENDBRANCH  18  19
ENDBRANCH  17  18
ENDBRANCH  16  17
ENDBRANCH  15  16
ENDBRANCH  14  15
ENDBRANCH  13  14
ENDBRANCH   2  13
TORSDOF 16
ENDMDL
MODEL 6
REMARK VINA RESULT:      -4.5      1.983      3.660
REMARK  Name = 
REMARK  17 active torsions:
REMARK  status: ('A' for Active; 'I' for Inactive)
REMARK    1  A    between atoms: C_2  and  O_3
REMARK    2  A    between atoms: C_2  and  C_4
REMARK    3  A    between atoms: C_2  and  C_9
REMARK    4  A    between atoms: C_4  and  C_5
REMARK    5  A    between atoms: C_5  and  C_6
REMARK    6  A    between atoms: C_6  and  C_7
REMARK    7  A    between atoms: C_7  and  C_8
REMARK    8  A    between atoms: C_10  and  C_11
REMARK    9  A    between atoms: C_12  and  C_13
REMARK   10  A    between atoms: C_13  and  C_14
REMARK   11  A    between atoms: C_14  and  C_15
REMARK   12  A    between atoms: C_15  and  C_16
REMARK   13  A    between atoms: C_16  and  C_17
REMARK   14  A    between atoms: C_17  and  C_18
REMARK   15  A    between atoms: C_18  and  C_19
REMARK   16  A    between atoms: C_19  and  C_20
REMARK   17  A    between atoms: C_20  and  O_21
REMARK                            x       y       z     vdW  Elec       q    Type
REMARK                         _______ _______ _______ _____ _____    ______ ____
ROOT
ATOM      1  C   UNL     1       6.793  -4.652  22.308  0.00  0.00    -0.004 C 
ATOM      2  C   UNL     1       6.626  -3.340  22.071  0.00  0.00    -0.027 C 
ENDROOT
BRANCH   1   4
ATOM      3  C   UNL     1       8.420  -5.055  24.118  0.00  0.00    +0.004 C 
ATOM      4  C   UNL     1       7.195  -5.185  23.588  0.00  0.00    -0.002 C 
BRANCH   3   5
ATOM      5  C   UNL     1       8.748  -5.576  25.487  0.00  0.00    +0.137 C 
BRANCH   5   6
ATOM      6  O   UNL     1      10.151  -5.450  25.687  0.00  0.00    -0.388 OA
ATOM      7  H   UNL     1      10.541  -5.142  24.853  0.00  0.00    +0.210 HD
ENDBRANCH   5   6
BRANCH   5   8
ATOM      8  C   UNL     1       8.012  -4.827  26.604  0.00  0.00    +0.035 C 
BRANCH   8   9
ATOM      9  C   UNL     1       8.265  -3.317  26.587  0.00  0.00    +0.003 C 
BRANCH   9  10
ATOM     10  C   UNL     1       6.950  -2.539  26.552  0.00  0.00    -0.000 C 
BRANCH  10  11
ATOM     11  C   UNL     1       5.757  -3.455  26.818  0.00  0.00    -0.003 C 
ATOM     12  C   UNL     1       4.599  -3.140  25.884  0.00  0.00    +0.004 C 
ENDBRANCH  10  11
ENDBRANCH   9  10
ENDBRANCH   8   9
ENDBRANCH   5   8
ENDBRANCH   3   5
ENDBRANCH   1   4
BRANCH   2  13
ATOM     13  C   UNL     1       6.816  -2.265  23.106  0.00  0.00    +0.027 C 
BRANCH  13  14
ATOM     14  C   UNL     1       7.779  -1.162  22.676  0.00  0.00    +0.004 C 
BRANCH  14  15
ATOM     15  C   UNL     1       9.180  -1.743  22.473  0.00  0.00    +0.000 C 
BRANCH  15  16
ATOM     16  C   UNL     1       9.959  -1.782  23.784  0.00  0.00    +0.000 C 
BRANCH  16  17
ATOM     17  C   UNL     1       9.710  -0.524  24.615  0.00  0.00    +0.001 C 
BRANCH  17  18
ATOM     18  C   UNL     1      10.774   0.534  24.322  0.00  0.00    +0.011 C 
BRANCH  18  19
ATOM     19  C   UNL     1      10.160   1.921  24.153  0.00  0.00    +0.120 C 
BRANCH  19  20
ATOM     20  C   UNL     1       9.806   2.200  22.708  0.00  0.00    +0.305 C 
ATOM     21  O   UNL     1      10.148   1.524  21.751  0.00  0.00    -0.251 OA
BRANCH  20  22
ATOM     22  O   UNL     1       9.055   3.316  22.573  0.00  0.00    -0.481 OA
ATOM     23  H   UNL     1       9.074   3.698  21.676  0.00  0.00    +0.295 HD
ENDBRANCH  20  22
ENDBRANCH  19  20
ENDBRANCH  18  19
ENDBRANCH  17  18
ENDBRANCH  16  17
ENDBRANCH  15  16
ENDBRANCH  14  15
ENDBRANCH  13  14
ENDBRANCH   2  13
TORSDOF 16
ENDMDL
MODEL 7
REMARK VINA RESULT:      -4.5      1.928      3.172
REMARK  Name = 
REMARK  17 active torsions:
REMARK  status: ('A' for Active; 'I' for Inactive)
REMARK    1  A    between atoms: C_2  and  O_3
REMARK    2  A    between atoms: C_2  and  C_4
REMARK    3  A    between atoms: C_2  and  C_9
REMARK    4  A    between atoms: C_4  and  C_5
REMARK    5  A    between atoms: C_5  and  C_6
REMARK    6  A    between atoms: C_6  and  C_7
REMARK    7  A    between atoms: C_7  and  C_8
REMARK    8  A    between atoms: C_10  and  C_11
REMARK    9  A    between atoms: C_12  and  C_13
REMARK   10  A    between atoms: C_13  and  C_14
REMARK   11  A    between atoms: C_14  and  C_15
REMARK   12  A    between atoms: C_15  and  C_16
REMARK   13  A    between atoms: C_16  and  C_17
REMARK   14  A    between atoms: C_17  and  C_18
REMARK   15  A    between atoms: C_18  and  C_19
REMARK   16  A    between atoms: C_19  and  C_20
REMARK   17  A    between atoms: C_20  and  O_21
REMARK                            x       y       z     vdW  Elec       q    Type
REMARK                         _______ _______ _______ _____ _____    ______ ____
ROOT
ATOM      1  C   UNL     1       7.846  -1.083  26.442  0.00  0.00    -0.004 C 
ATOM      2  C   UNL     1       6.999  -0.576  25.529  0.00  0.00    -0.027 C 
ENDROOT
BRANCH   1   4
ATOM      3  C   UNL     1       7.928  -3.545  26.560  0.00  0.00    +0.004 C 
ATOM      4  C   UNL     1       8.500  -2.361  26.298  0.00  0.00    -0.002 C 
BRANCH   3   5
ATOM      5  C   UNL     1       8.648  -4.841  26.321  0.00  0.00    +0.137 C 
BRANCH   5   6
ATOM      6  O   UNL     1       8.057  -5.837  27.146  0.00  0.00    -0.388 OA
ATOM      7  H   UNL     1       8.086  -5.517  28.063  0.00  0.00    +0.210 HD
ENDBRANCH   5   6
BRANCH   5   8
ATOM      8  C   UNL     1       8.586  -5.297  24.859  0.00  0.00    +0.035 C 
BRANCH   8   9
ATOM      9  C   UNL     1       7.260  -4.955  24.175  0.00  0.00    +0.003 C 
BRANCH   9  10
ATOM     10  C   UNL     1       7.408  -4.958  22.654  0.00  0.00    -0.000 C 
BRANCH  10  11
ATOM     11  C   UNL     1       6.351  -5.843  21.995  0.00  0.00    -0.003 C 
ATOM     12  C   UNL     1       5.029  -5.775  22.743  0.00  0.00    +0.004 C 
ENDBRANCH  10  11
ENDBRANCH   9  10
ENDBRANCH   8   9
ENDBRANCH   5   8
ENDBRANCH   3   5
ENDBRANCH   1   4
BRANCH   2  13
ATOM     13  C   UNL     1       6.641  -1.262  24.239  0.00  0.00    +0.027 C 
BRANCH  13  14
ATOM     14  C   UNL     1       7.315  -0.654  23.012  0.00  0.00    +0.004 C 
BRANCH  14  15
ATOM     15  C   UNL     1       8.467  -1.550  22.553  0.00  0.00    +0.000 C 
BRANCH  15  16
ATOM     16  C   UNL     1       9.792  -0.794  22.557  0.00  0.00    +0.000 C 
BRANCH  16  17
ATOM     17  C   UNL     1      10.392  -0.732  23.961  0.00  0.00    +0.001 C 
BRANCH  17  18
ATOM     18  C   UNL     1      10.943   0.664  24.249  0.00  0.00    +0.011 C 
BRANCH  18  19
ATOM     19  C   UNL     1       9.896   1.746  24.002  0.00  0.00    +0.120 C 
BRANCH  19  20
ATOM     20  C   UNL     1      10.434   2.848  23.114  0.00  0.00    +0.305 C 
ATOM     21  O   UNL     1      10.835   3.936  23.498  0.00  0.00    -0.251 OA
BRANCH  20  22
ATOM     22  O   UNL     1      10.422   2.503  21.807  0.00  0.00    -0.481 OA
ATOM     23  H   UNL     1      10.516   3.259  21.198  0.00  0.00    +0.295 HD
ENDBRANCH  20  22
ENDBRANCH  19  20
ENDBRANCH  18  19
ENDBRANCH  17  18
ENDBRANCH  16  17
ENDBRANCH  15  16
ENDBRANCH  14  15
ENDBRANCH  13  14
ENDBRANCH   2  13
TORSDOF 16
ENDMDL
MODEL 8
REMARK VINA RESULT:      -4.4      2.536      5.324
REMARK  Name = 
REMARK  17 active torsions:
REMARK  status: ('A' for Active; 'I' for Inactive)
REMARK    1  A    between atoms: C_2  and  O_3
REMARK    2  A    between atoms: C_2  and  C_4
REMARK    3  A    between atoms: C_2  and  C_9
REMARK    4  A    between atoms: C_4  and  C_5
REMARK    5  A    between atoms: C_5  and  C_6
REMARK    6  A    between atoms: C_6  and  C_7
REMARK    7  A    between atoms: C_7  and  C_8
REMARK    8  A    between atoms: C_10  and  C_11
REMARK    9  A    between atoms: C_12  and  C_13
REMARK   10  A    between atoms: C_13  and  C_14
REMARK   11  A    between atoms: C_14  and  C_15
REMARK   12  A    between atoms: C_15  and  C_16
REMARK   13  A    between atoms: C_16  and  C_17
REMARK   14  A    between atoms: C_17  and  C_18
REMARK   15  A    between atoms: C_18  and  C_19
REMARK   16  A    between atoms: C_19  and  C_20
REMARK   17  A    between atoms: C_20  and  O_21
REMARK                            x       y       z     vdW  Elec       q    Type
REMARK                         _______ _______ _______ _____ _____    ______ ____
ROOT
ATOM      1  C   UNL     1      10.102   1.918  22.247  0.00  0.00    -0.004 C 
ATOM      2  C   UNL     1       9.886   2.626  23.369  0.00  0.00    -0.027 C 
ENDROOT
BRANCH   1   4
ATOM      3  C   UNL     1      10.391  -0.483  22.727  0.00  0.00    +0.004 C 
ATOM      4  C   UNL     1       9.758   0.523  22.108  0.00  0.00    -0.002 C 
BRANCH   3   5
ATOM      5  C   UNL     1       9.935  -1.908  22.590  0.00  0.00    +0.137 C 
BRANCH   5   6
ATOM      6  O   UNL     1      10.141  -2.563  23.835  0.00  0.00    -0.388 OA
ATOM      7  H   UNL     1      10.941  -2.187  24.238  0.00  0.00    +0.210 HD
ENDBRANCH   5   6
BRANCH   5   8
ATOM      8  C   UNL     1       8.458  -2.026  22.197  0.00  0.00    +0.035 C 
BRANCH   8   9
ATOM      9  C   UNL     1       7.797  -3.308  22.712  0.00  0.00    +0.003 C 
BRANCH   9  10
ATOM     10  C   UNL     1       6.383  -3.461  22.154  0.00  0.00    -0.000 C 
BRANCH  10  11
ATOM     11  C   UNL     1       6.212  -4.797  21.433  0.00  0.00    -0.003 C 
ATOM     12  C   UNL     1       7.057  -5.884  22.077  0.00  0.00    +0.004 C 
ENDBRANCH  10  11
ENDBRANCH   9  10
ENDBRANCH   8   9
ENDBRANCH   5   8
ENDBRANCH   3   5
ENDBRANCH   1   4
BRANCH   2  13
ATOM     13  C   UNL     1       9.247   2.066  24.610  0.00  0.00    +0.027 C 
BRANCH  13  14
ATOM     14  C   UNL     1       7.739   2.291  24.681  0.00  0.00    +0.004 C 
BRANCH  14  15
ATOM     15  C   UNL     1       7.012   0.945  24.700  0.00  0.00    +0.000 C 
BRANCH  15  16
ATOM     16  C   UNL     1       7.877  -0.143  25.326  0.00  0.00    +0.000 C 
BRANCH  16  17
ATOM     17  C   UNL     1       7.036  -1.346  25.751  0.00  0.00    +0.001 C 
BRANCH  17  18
ATOM     18  C   UNL     1       7.908  -2.399  26.433  0.00  0.00    +0.011 C 
BRANCH  18  19
ATOM     19  C   UNL     1       7.304  -3.796  26.314  0.00  0.00    +0.120 C 
BRANCH  19  20
ATOM     20  C   UNL     1       8.370  -4.869  26.368  0.00  0.00    +0.305 C 
ATOM     21  O   UNL     1       9.320  -4.965  25.607  0.00  0.00    -0.251 OA
BRANCH  20  22
ATOM     22  O   UNL     1       8.158  -5.749  27.373  0.00  0.00    -0.481 OA
ATOM     23  H   UNL     1       7.631  -6.526  27.111  0.00  0.00    +0.295 HD
ENDBRANCH  20  22
ENDBRANCH  19  20
ENDBRANCH  18  19
ENDBRANCH  17  18
ENDBRANCH  16  17
ENDBRANCH  15  16
ENDBRANCH  14  15
ENDBRANCH  13  14
ENDBRANCH   2  13
TORSDOF 16
ENDMDL
MODEL 9
REMARK VINA RESULT:      -4.3      2.526      7.703
REMARK  Name = 
REMARK  17 active torsions:
REMARK  status: ('A' for Active; 'I' for Inactive)
REMARK    1  A    between atoms: C_2  and  O_3
REMARK    2  A    between atoms: C_2  and  C_4
REMARK    3  A    between atoms: C_2  and  C_9
REMARK    4  A    between atoms: C_4  and  C_5
REMARK    5  A    between atoms: C_5  and  C_6
REMARK    6  A    between atoms: C_6  and  C_7
REMARK    7  A    between atoms: C_7  and  C_8
REMARK    8  A    between atoms: C_10  and  C_11
REMARK    9  A    between atoms: C_12  and  C_13
REMARK   10  A    between atoms: C_13  and  C_14
REMARK   11  A    between atoms: C_14  and  C_15
REMARK   12  A    between atoms: C_15  and  C_16
REMARK   13  A    between atoms: C_16  and  C_17
REMARK   14  A    between atoms: C_17  and  C_18
REMARK   15  A    between atoms: C_18  and  C_19
REMARK   16  A    between atoms: C_19  and  C_20
REMARK   17  A    between atoms: C_20  and  O_21
REMARK                            x       y       z     vdW  Elec       q    Type
REMARK                         _______ _______ _______ _____ _____    ______ ____
ROOT
ATOM      1  C   UNL     1       9.410   0.624  21.447  0.00  0.00    -0.004 C 
ATOM      2  C   UNL     1       9.804  -0.552  21.966  0.00  0.00    -0.027 C 
ENDROOT
BRANCH   1   4
ATOM      3  C   UNL     1       8.626   2.460  22.894  0.00  0.00    +0.004 C 
ATOM      4  C   UNL     1       9.565   1.887  22.128  0.00  0.00    -0.002 C 
BRANCH   3   5
ATOM      5  C   UNL     1       8.882   3.744  23.630  0.00  0.00    +0.137 C 
BRANCH   5   6
ATOM      6  O   UNL     1       8.381   3.605  24.955  0.00  0.00    -0.388 OA
ATOM      7  H   UNL     1       7.962   4.446  25.201  0.00  0.00    +0.210 HD
ENDBRANCH   5   6
BRANCH   5   8
ATOM      8  C   UNL     1      10.369   4.112  23.690  0.00  0.00    +0.035 C 
BRANCH   8   9
ATOM      9  C   UNL     1      10.615   5.622  23.739  0.00  0.00    +0.003 C 
BRANCH   9  10
ATOM     10  C   UNL     1      12.087   5.931  24.014  0.00  0.00    -0.000 C 
BRANCH  10  11
ATOM     11  C   UNL     1      13.005   5.046  23.172  0.00  0.00    -0.003 C 
ATOM     12  C   UNL     1      13.334   5.699  21.839  0.00  0.00    +0.004 C 
ENDBRANCH  10  11
ENDBRANCH   9  10
ENDBRANCH   8   9
ENDBRANCH   5   8
ENDBRANCH   3   5
ENDBRANCH   1   4
BRANCH   2  13
ATOM     13  C   UNL     1      10.469  -0.701  23.306  0.00  0.00    +0.027 C 
BRANCH  13  14
ATOM     14  C   UNL     1       9.771  -1.694  24.232  0.00  0.00    +0.004 C 
BRANCH  14  15
ATOM     15  C   UNL     1       8.267  -1.696  23.954  0.00  0.00    +0.000 C 
BRANCH  15  16
ATOM     16  C   UNL     1       7.561  -2.806  24.725  0.00  0.00    +0.000 C 
BRANCH  16  17
ATOM     17  C   UNL     1       6.624  -3.604  23.819  0.00  0.00    +0.001 C 
BRANCH  17  18
ATOM     18  C   UNL     1       7.310  -3.932  22.493  0.00  0.00    +0.011 C 
BRANCH  18  19
ATOM     19  C   UNL     1       7.255  -5.426  22.185  0.00  0.00    +0.120 C 
BRANCH  19  20
ATOM     20  C   UNL     1       6.071  -5.770  21.307  0.00  0.00    +0.305 C 
ATOM     21  O   UNL     1       5.956  -5.481  20.126  0.00  0.00    -0.251 OA
BRANCH  20  22
ATOM     22  O   UNL     1       5.114  -6.446  21.982  0.00  0.00    -0.481 OA
ATOM     23  H   UNL     1       5.162  -6.336  22.950  0.00  0.00    +0.295 HD
ENDBRANCH  20  22
ENDBRANCH  19  20
ENDBRANCH  18  19
ENDBRANCH  17  18
ENDBRANCH  16  17
ENDBRANCH  15  16
ENDBRANCH  14  15
ENDBRANCH  13  14
ENDBRANCH   2  13
TORSDOF 16
ENDMDL
