MODEL 1
REMARK VINA RESULT:     -12.8      0.000      0.000
REMARK  Name = 
REMARK  2 active torsions:
REMARK  status: ('A' for Active; 'I' for Inactive)
REMARK    1  A    between atoms: C_7  and  C_8
REMARK    2  A    between atoms: C_24  and  C_25
REMARK                            x       y       z     vdW  Elec       q    Type
REMARK                         _______ _______ _______ _____ _____    ______ ____
ROOT
ATOM      1  C   UNL     1      12.921   5.135  23.149  0.00  0.00    +0.006 C 
ATOM      2  C   UNL     1      12.921   5.135  23.149  0.00  0.00    +0.002 C 
ATOM      3  C   UNL     1      12.921   5.135  23.149  0.00  0.00    +0.039 C 
ATOM      4  C   UNL     1      12.921   5.135  23.149  0.00  0.00    -0.050 C 
ATOM      5  C   UNL     1      12.921   5.135  23.149  0.00  0.00    -0.031 C 
ATOM      6  C   UNL     1      12.921   5.135  23.149  0.00  0.00    +0.015 C 
ATOM      7  C   UNL     1      12.921   5.135  23.149  0.00  0.00    +0.021 C 
ATOM      8  C   UNL     1      12.921   5.135  23.149  0.00  0.00    -0.012 C 
ATOM      9  C   UNL     1      12.921   5.135  23.149  0.00  0.00    +0.047 C 
ATOM     10  C   UNL     1      12.921   5.135  23.149  0.00  0.00    +0.179 C 
ATOM     11  O   UNL     1      12.921   5.135  23.149  0.00  0.00    -0.288 OA
ATOM     12  C   UNL     1      12.921   5.135  23.149  0.00  0.00    +0.055 C 
ATOM     13  C   UNL     1      12.921   5.135  23.149  0.00  0.00    +0.012 C 
ATOM     14  C   UNL     1      12.921   5.135  23.149  0.00  0.00    +0.007 C 
ATOM     15  C   UNL     1      12.921   5.135  23.149  0.00  0.00    +0.006 C 
ATOM     16  C   UNL     1      12.921   5.135  23.149  0.00  0.00    +0.015 C 
ATOM     17  C   UNL     1      12.921   5.135  23.149  0.00  0.00    +0.029 C 
ATOM     18  C   UNL     1      12.921   5.135  23.149  0.00  0.00    +0.019 C 
ATOM     19  C   UNL     1      12.921   5.135  23.149  0.00  0.00    +0.139 C 
ATOM     20  O   UNL     1      12.921   5.135  23.149  0.00  0.00    -0.297 OA
ATOM     21  C   UNL     1      12.921   5.135  23.149  0.00  0.00    +0.075 C 
ATOM     22  C   UNL     1      12.921   5.135  23.149  0.00  0.00    +0.012 C 
ENDROOT
TORSDOF 0
ENDMDL
MODEL 2
REMARK VINA RESULT:     -12.3     12.889     12.889
REMARK  Name = 
REMARK  2 active torsions:
REMARK  status: ('A' for Active; 'I' for Inactive)
REMARK    1  A    between atoms: C_7  and  C_8
REMARK    2  A    between atoms: C_24  and  C_25
REMARK                            x       y       z     vdW  Elec       q    Type
REMARK                         _______ _______ _______ _____ _____    ______ ____
ROOT
ATOM      1  C   UNL     1       6.243  -5.682  21.020  0.00  0.00    +0.006 C 
ATOM      2  C   UNL     1       6.243  -5.682  21.020  0.00  0.00    +0.002 C 
ATOM      3  C   UNL     1       6.243  -5.682  21.020  0.00  0.00    +0.039 C 
ATOM      4  C   UNL     1       6.243  -5.682  21.020  0.00  0.00    -0.050 C 
ATOM      5  C   UNL     1       6.243  -5.682  21.020  0.00  0.00    -0.031 C 
ATOM      6  C   UNL     1       6.243  -5.682  21.020  0.00  0.00    +0.015 C 
ATOM      7  C   UNL     1       6.243  -5.682  21.020  0.00  0.00    +0.021 C 
ATOM      8  C   UNL     1       6.243  -5.682  21.020  0.00  0.00    -0.012 C 
ATOM      9  C   UNL     1       6.243  -5.682  21.020  0.00  0.00    +0.047 C 
ATOM     10  C   UNL     1       6.243  -5.682  21.020  0.00  0.00    +0.179 C 
ATOM     11  O   UNL     1       6.243  -5.682  21.020  0.00  0.00    -0.288 OA
ATOM     12  C   UNL     1       6.243  -5.682  21.020  0.00  0.00    +0.055 C 
ATOM     13  C   UNL     1       6.243  -5.682  21.020  0.00  0.00    +0.012 C 
ATOM     14  C   UNL     1       6.243  -5.682  21.020  0.00  0.00    +0.007 C 
ATOM     15  C   UNL     1       6.243  -5.682  21.020  0.00  0.00    +0.006 C 
ATOM     16  C   UNL     1       6.243  -5.682  21.020  0.00  0.00    +0.015 C 
ATOM     17  C   UNL     1       6.243  -5.682  21.020  0.00  0.00    +0.029 C 
ATOM     18  C   UNL     1       6.243  -5.682  21.020  0.00  0.00    +0.019 C 
ATOM     19  C   UNL     1       6.243  -5.682  21.020  0.00  0.00    +0.139 C 
ATOM     20  O   UNL     1       6.243  -5.682  21.020  0.00  0.00    -0.297 OA
ATOM     21  C   UNL     1       6.243  -5.682  21.020  0.00  0.00    +0.075 C 
ATOM     22  C   UNL     1       6.243  -5.682  21.020  0.00  0.00    +0.012 C 
ENDROOT
TORSDOF 0
ENDMDL
MODEL 3
REMARK VINA RESULT:     -12.1      4.775      4.775
REMARK  Name = 
REMARK  2 active torsions:
REMARK  status: ('A' for Active; 'I' for Inactive)
REMARK    1  A    between atoms: C_7  and  C_8
REMARK    2  A    between atoms: C_24  and  C_25
REMARK                            x       y       z     vdW  Elec       q    Type
REMARK                         _______ _______ _______ _____ _____    ______ ____
ROOT
ATOM      1  C   UNL     1       9.946   1.574  22.023  0.00  0.00    +0.006 C 
ATOM      2  C   UNL     1       9.946   1.574  22.023  0.00  0.00    +0.002 C 
ATOM      3  C   UNL     1       9.946   1.574  22.023  0.00  0.00    +0.039 C 
ATOM      4  C   UNL     1       9.946   1.574  22.023  0.00  0.00    -0.050 C 
ATOM      5  C   UNL     1       9.946   1.574  22.023  0.00  0.00    -0.031 C 
ATOM      6  C   UNL     1       9.946   1.574  22.023  0.00  0.00    +0.015 C 
ATOM      7  C   UNL     1       9.946   1.574  22.023  0.00  0.00    +0.021 C 
ATOM      8  C   UNL     1       9.946   1.574  22.023  0.00  0.00    -0.012 C 
ATOM      9  C   UNL     1       9.946   1.574  22.023  0.00  0.00    +0.047 C 
ATOM     10  C   UNL     1       9.946   1.574  22.023  0.00  0.00    +0.179 C 
ATOM     11  O   UNL     1       9.946   1.574  22.023  0.00  0.00    -0.288 OA
ATOM     12  C   UNL     1       9.946   1.574  22.023  0.00  0.00    +0.055 C 
ATOM     13  C   UNL     1       9.946   1.574  22.023  0.00  0.00    +0.012 C 
ATOM     14  C   UNL     1       9.946   1.574  22.023  0.00  0.00    +0.007 C 
ATOM     15  C   UNL     1       9.946   1.574  22.023  0.00  0.00    +0.006 C 
ATOM     16  C   UNL     1       9.946   1.574  22.023  0.00  0.00    +0.015 C 
ATOM     17  C   UNL     1       9.946   1.574  22.023  0.00  0.00    +0.029 C 
ATOM     18  C   UNL     1       9.946   1.574  22.023  0.00  0.00    +0.019 C 
ATOM     19  C   UNL     1       9.946   1.574  22.023  0.00  0.00    +0.139 C 
ATOM     20  O   UNL     1       9.946   1.574  22.023  0.00  0.00    -0.297 OA
ATOM     21  C   UNL     1       9.946   1.574  22.023  0.00  0.00    +0.075 C 
ATOM     22  C   UNL     1       9.946   1.574  22.023  0.00  0.00    +0.012 C 
ENDROOT
TORSDOF 0
ENDMDL
MODEL 4
REMARK VINA RESULT:     -12.0      5.262      5.262
REMARK  Name = 
REMARK  2 active torsions:
REMARK  status: ('A' for Active; 'I' for Inactive)
REMARK    1  A    between atoms: C_7  and  C_8
REMARK    2  A    between atoms: C_24  and  C_25
REMARK                            x       y       z     vdW  Elec       q    Type
REMARK                         _______ _______ _______ _____ _____    ______ ____
ROOT
ATOM      1  C   UNL     1      10.793   0.579  24.698  0.00  0.00    +0.006 C 
ATOM      2  C   UNL     1      10.793   0.579  24.698  0.00  0.00    +0.002 C 
ATOM      3  C   UNL     1      10.793   0.579  24.698  0.00  0.00    +0.039 C 
ATOM      4  C   UNL     1      10.793   0.579  24.698  0.00  0.00    -0.050 C 
ATOM      5  C   UNL     1      10.793   0.579  24.698  0.00  0.00    -0.031 C 
ATOM      6  C   UNL     1      10.793   0.579  24.698  0.00  0.00    +0.015 C 
ATOM      7  C   UNL     1      10.793   0.579  24.698  0.00  0.00    +0.021 C 
ATOM      8  C   UNL     1      10.793   0.579  24.698  0.00  0.00    -0.012 C 
ATOM      9  C   UNL     1      10.793   0.579  24.698  0.00  0.00    +0.047 C 
ATOM     10  C   UNL     1      10.793   0.579  24.698  0.00  0.00    +0.179 C 
ATOM     11  O   UNL     1      10.793   0.579  24.698  0.00  0.00    -0.288 OA
ATOM     12  C   UNL     1      10.793   0.579  24.698  0.00  0.00    +0.055 C 
ATOM     13  C   UNL     1      10.793   0.579  24.698  0.00  0.00    +0.012 C 
ATOM     14  C   UNL     1      10.793   0.579  24.698  0.00  0.00    +0.007 C 
ATOM     15  C   UNL     1      10.793   0.579  24.698  0.00  0.00    +0.006 C 
ATOM     16  C   UNL     1      10.793   0.579  24.698  0.00  0.00    +0.015 C 
ATOM     17  C   UNL     1      10.793   0.579  24.698  0.00  0.00    +0.029 C 
ATOM     18  C   UNL     1      10.793   0.579  24.698  0.00  0.00    +0.019 C 
ATOM     19  C   UNL     1      10.793   0.579  24.698  0.00  0.00    +0.139 C 
ATOM     20  O   UNL     1      10.793   0.579  24.698  0.00  0.00    -0.297 OA
ATOM     21  C   UNL     1      10.793   0.579  24.698  0.00  0.00    +0.075 C 
ATOM     22  C   UNL     1      10.793   0.579  24.698  0.00  0.00    +0.012 C 
ENDROOT
TORSDOF 0
ENDMDL
MODEL 5
REMARK VINA RESULT:     -11.8      6.435      6.435
REMARK  Name = 
REMARK  2 active torsions:
REMARK  status: ('A' for Active; 'I' for Inactive)
REMARK    1  A    between atoms: C_7  and  C_8
REMARK    2  A    between atoms: C_24  and  C_25
REMARK                            x       y       z     vdW  Elec       q    Type
REMARK                         _______ _______ _______ _____ _____    ______ ____
ROOT
ATOM      1  C   UNL     1       9.443  -0.017  21.485  0.00  0.00    +0.006 C 
ATOM      2  C   UNL     1       9.443  -0.017  21.485  0.00  0.00    +0.002 C 
ATOM      3  C   UNL     1       9.443  -0.017  21.485  0.00  0.00    +0.039 C 
ATOM      4  C   UNL     1       9.443  -0.017  21.485  0.00  0.00    -0.050 C 
ATOM      5  C   UNL     1       9.443  -0.017  21.485  0.00  0.00    -0.031 C 
ATOM      6  C   UNL     1       9.443  -0.017  21.485  0.00  0.00    +0.015 C 
ATOM      7  C   UNL     1       9.443  -0.017  21.485  0.00  0.00    +0.021 C 
ATOM      8  C   UNL     1       9.443  -0.017  21.485  0.00  0.00    -0.012 C 
ATOM      9  C   UNL     1       9.443  -0.017  21.485  0.00  0.00    +0.047 C 
ATOM     10  C   UNL     1       9.443  -0.017  21.485  0.00  0.00    +0.179 C 
ATOM     11  O   UNL     1       9.443  -0.017  21.485  0.00  0.00    -0.288 OA
ATOM     12  C   UNL     1       9.443  -0.017  21.485  0.00  0.00    +0.055 C 
ATOM     13  C   UNL     1       9.443  -0.017  21.485  0.00  0.00    +0.012 C 
ATOM     14  C   UNL     1       9.443  -0.017  21.485  0.00  0.00    +0.007 C 
ATOM     15  C   UNL     1       9.443  -0.017  21.485  0.00  0.00    +0.006 C 
ATOM     16  C   UNL     1       9.443  -0.017  21.485  0.00  0.00    +0.015 C 
ATOM     17  C   UNL     1       9.443  -0.017  21.485  0.00  0.00    +0.029 C 
ATOM     18  C   UNL     1       9.443  -0.017  21.485  0.00  0.00    +0.019 C 
ATOM     19  C   UNL     1       9.443  -0.017  21.485  0.00  0.00    +0.139 C 
ATOM     20  O   UNL     1       9.443  -0.017  21.485  0.00  0.00    -0.297 OA
ATOM     21  C   UNL     1       9.443  -0.017  21.485  0.00  0.00    +0.075 C 
ATOM     22  C   UNL     1       9.443  -0.017  21.485  0.00  0.00    +0.012 C 
ENDROOT
TORSDOF 0
ENDMDL
MODEL 6
REMARK VINA RESULT:     -11.8      8.208      8.208
REMARK  Name = 
REMARK  2 active torsions:
REMARK  status: ('A' for Active; 'I' for Inactive)
REMARK    1  A    between atoms: C_7  and  C_8
REMARK    2  A    between atoms: C_24  and  C_25
REMARK                            x       y       z     vdW  Elec       q    Type
REMARK                         _______ _______ _______ _____ _____    ______ ____
ROOT
ATOM      1  C   UNL     1       9.869  -2.457  23.789  0.00  0.00    +0.006 C 
ATOM      2  C   UNL     1       9.869  -2.457  23.789  0.00  0.00    +0.002 C 
ATOM      3  C   UNL     1       9.869  -2.457  23.789  0.00  0.00    +0.039 C 
ATOM      4  C   UNL     1       9.869  -2.457  23.789  0.00  0.00    -0.050 C 
ATOM      5  C   UNL     1       9.869  -2.457  23.789  0.00  0.00    -0.031 C 
ATOM      6  C   UNL     1       9.869  -2.457  23.789  0.00  0.00    +0.015 C 
ATOM      7  C   UNL     1       9.869  -2.457  23.789  0.00  0.00    +0.021 C 
ATOM      8  C   UNL     1       9.869  -2.457  23.789  0.00  0.00    -0.012 C 
ATOM      9  C   UNL     1       9.869  -2.457  23.789  0.00  0.00    +0.047 C 
ATOM     10  C   UNL     1       9.869  -2.457  23.789  0.00  0.00    +0.179 C 
ATOM     11  O   UNL     1       9.869  -2.457  23.789  0.00  0.00    -0.288 OA
ATOM     12  C   UNL     1       9.869  -2.457  23.789  0.00  0.00    +0.055 C 
ATOM     13  C   UNL     1       9.869  -2.457  23.789  0.00  0.00    +0.012 C 
ATOM     14  C   UNL     1       9.869  -2.457  23.789  0.00  0.00    +0.007 C 
ATOM     15  C   UNL     1       9.869  -2.457  23.789  0.00  0.00    +0.006 C 
ATOM     16  C   UNL     1       9.869  -2.457  23.789  0.00  0.00    +0.015 C 
ATOM     17  C   UNL     1       9.869  -2.457  23.789  0.00  0.00    +0.029 C 
ATOM     18  C   UNL     1       9.869  -2.457  23.789  0.00  0.00    +0.019 C 
ATOM     19  C   UNL     1       9.869  -2.457  23.789  0.00  0.00    +0.139 C 
ATOM     20  O   UNL     1       9.869  -2.457  23.789  0.00  0.00    -0.297 OA
ATOM     21  C   UNL     1       9.869  -2.457  23.789  0.00  0.00    +0.075 C 
ATOM     22  C   UNL     1       9.869  -2.457  23.789  0.00  0.00    +0.012 C 
ENDROOT
TORSDOF 0
ENDMDL
MODEL 7
REMARK VINA RESULT:     -11.8      7.200      7.200
REMARK  Name = 
REMARK  2 active torsions:
REMARK  status: ('A' for Active; 'I' for Inactive)
REMARK    1  A    between atoms: C_7  and  C_8
REMARK    2  A    between atoms: C_24  and  C_25
REMARK                            x       y       z     vdW  Elec       q    Type
REMARK                         _______ _______ _______ _____ _____    ______ ____
ROOT
ATOM      1  C   UNL     1      10.290  -1.542  22.572  0.00  0.00    +0.006 C 
ATOM      2  C   UNL     1      10.290  -1.542  22.572  0.00  0.00    +0.002 C 
ATOM      3  C   UNL     1      10.290  -1.542  22.572  0.00  0.00    +0.039 C 
ATOM      4  C   UNL     1      10.290  -1.542  22.572  0.00  0.00    -0.050 C 
ATOM      5  C   UNL     1      10.290  -1.542  22.572  0.00  0.00    -0.031 C 
ATOM      6  C   UNL     1      10.290  -1.542  22.572  0.00  0.00    +0.015 C 
ATOM      7  C   UNL     1      10.290  -1.542  22.572  0.00  0.00    +0.021 C 
ATOM      8  C   UNL     1      10.290  -1.542  22.572  0.00  0.00    -0.012 C 
ATOM      9  C   UNL     1      10.290  -1.542  22.572  0.00  0.00    +0.047 C 
ATOM     10  C   UNL     1      10.290  -1.542  22.572  0.00  0.00    +0.179 C 
ATOM     11  O   UNL     1      10.290  -1.542  22.572  0.00  0.00    -0.288 OA
ATOM     12  C   UNL     1      10.290  -1.542  22.572  0.00  0.00    +0.055 C 
ATOM     13  C   UNL     1      10.290  -1.542  22.572  0.00  0.00    +0.012 C 
ATOM     14  C   UNL     1      10.290  -1.542  22.572  0.00  0.00    +0.007 C 
ATOM     15  C   UNL     1      10.290  -1.542  22.572  0.00  0.00    +0.006 C 
ATOM     16  C   UNL     1      10.290  -1.542  22.572  0.00  0.00    +0.015 C 
ATOM     17  C   UNL     1      10.290  -1.542  22.572  0.00  0.00    +0.029 C 
ATOM     18  C   UNL     1      10.290  -1.542  22.572  0.00  0.00    +0.019 C 
ATOM     19  C   UNL     1      10.290  -1.542  22.572  0.00  0.00    +0.139 C 
ATOM     20  O   UNL     1      10.290  -1.542  22.572  0.00  0.00    -0.297 OA
ATOM     21  C   UNL     1      10.290  -1.542  22.572  0.00  0.00    +0.075 C 
ATOM     22  C   UNL     1      10.290  -1.542  22.572  0.00  0.00    +0.012 C 
ENDROOT
TORSDOF 0
ENDMDL
MODEL 8
REMARK VINA RESULT:     -10.9     10.936     10.936
REMARK  Name = 
REMARK  2 active torsions:
REMARK  status: ('A' for Active; 'I' for Inactive)
REMARK    1  A    between atoms: C_7  and  C_8
REMARK    2  A    between atoms: C_24  and  C_25
REMARK                            x       y       z     vdW  Elec       q    Type
REMARK                         _______ _______ _______ _____ _____    ______ ____
ROOT
ATOM      1  C   UNL     1       9.679  -5.053  25.450  0.00  0.00    +0.006 C 
ATOM      2  C   UNL     1       9.679  -5.053  25.450  0.00  0.00    +0.002 C 
ATOM      3  C   UNL     1       9.679  -5.053  25.450  0.00  0.00    +0.039 C 
ATOM      4  C   UNL     1       9.679  -5.053  25.450  0.00  0.00    -0.050 C 
ATOM      5  C   UNL     1       9.679  -5.053  25.450  0.00  0.00    -0.031 C 
ATOM      6  C   UNL     1       9.679  -5.053  25.450  0.00  0.00    +0.015 C 
ATOM      7  C   UNL     1       9.679  -5.053  25.450  0.00  0.00    +0.021 C 
ATOM      8  C   UNL     1       9.679  -5.053  25.450  0.00  0.00    -0.012 C 
ATOM      9  C   UNL     1       9.679  -5.053  25.450  0.00  0.00    +0.047 C 
ATOM     10  C   UNL     1       9.679  -5.053  25.450  0.00  0.00    +0.179 C 
ATOM     11  O   UNL     1       9.679  -5.053  25.450  0.00  0.00    -0.288 OA
ATOM     12  C   UNL     1       9.679  -5.053  25.450  0.00  0.00    +0.055 C 
ATOM     13  C   UNL     1       9.679  -5.053  25.450  0.00  0.00    +0.012 C 
ATOM     14  C   UNL     1       9.679  -5.053  25.450  0.00  0.00    +0.007 C 
ATOM     15  C   UNL     1       9.679  -5.053  25.450  0.00  0.00    +0.006 C 
ATOM     16  C   UNL     1       9.679  -5.053  25.450  0.00  0.00    +0.015 C 
ATOM     17  C   UNL     1       9.679  -5.053  25.450  0.00  0.00    +0.029 C 
ATOM     18  C   UNL     1       9.679  -5.053  25.450  0.00  0.00    +0.019 C 
ATOM     19  C   UNL     1       9.679  -5.053  25.450  0.00  0.00    +0.139 C 
ATOM     20  O   UNL     1       9.679  -5.053  25.450  0.00  0.00    -0.297 OA
ATOM     21  C   UNL     1       9.679  -5.053  25.450  0.00  0.00    +0.075 C 
ATOM     22  C   UNL     1       9.679  -5.053  25.450  0.00  0.00    +0.012 C 
ENDROOT
TORSDOF 0
ENDMDL
MODEL 9
REMARK VINA RESULT:     -10.7      7.645      7.645
REMARK  Name = 
REMARK  2 active torsions:
REMARK  status: ('A' for Active; 'I' for Inactive)
REMARK    1  A    between atoms: C_7  and  C_8
REMARK    2  A    between atoms: C_24  and  C_25
REMARK                            x       y       z     vdW  Elec       q    Type
REMARK                         _______ _______ _______ _____ _____    ______ ____
ROOT
ATOM      1  C   UNL     1       9.355  -1.515  21.922  0.00  0.00    +0.006 C 
ATOM      2  C   UNL     1       9.355  -1.515  21.922  0.00  0.00    +0.002 C 
ATOM      3  C   UNL     1       9.355  -1.515  21.922  0.00  0.00    +0.039 C 
ATOM      4  C   UNL     1       9.355  -1.515  21.922  0.00  0.00    -0.050 C 
ATOM      5  C   UNL     1       9.355  -1.515  21.922  0.00  0.00    -0.031 C 
ATOM      6  C   UNL     1       9.355  -1.515  21.922  0.00  0.00    +0.015 C 
ATOM      7  C   UNL     1       9.355  -1.515  21.922  0.00  0.00    +0.021 C 
ATOM      8  C   UNL     1       9.355  -1.515  21.922  0.00  0.00    -0.012 C 
ATOM      9  C   UNL     1       9.355  -1.515  21.922  0.00  0.00    +0.047 C 
ATOM     10  C   UNL     1       9.355  -1.515  21.922  0.00  0.00    +0.179 C 
ATOM     11  O   UNL     1       9.355  -1.515  21.922  0.00  0.00    -0.288 OA
ATOM     12  C   UNL     1       9.355  -1.515  21.922  0.00  0.00    +0.055 C 
ATOM     13  C   UNL     1       9.355  -1.515  21.922  0.00  0.00    +0.012 C 
ATOM     14  C   UNL     1       9.355  -1.515  21.922  0.00  0.00    +0.007 C 
ATOM     15  C   UNL     1       9.355  -1.515  21.922  0.00  0.00    +0.006 C 
ATOM     16  C   UNL     1       9.355  -1.515  21.922  0.00  0.00    +0.015 C 
ATOM     17  C   UNL     1       9.355  -1.515  21.922  0.00  0.00    +0.029 C 
ATOM     18  C   UNL     1       9.355  -1.515  21.922  0.00  0.00    +0.019 C 
ATOM     19  C   UNL     1       9.355  -1.515  21.922  0.00  0.00    +0.139 C 
ATOM     20  O   UNL     1       9.355  -1.515  21.922  0.00  0.00    -0.297 OA
ATOM     21  C   UNL     1       9.355  -1.515  21.922  0.00  0.00    +0.075 C 
ATOM     22  C   UNL     1       9.355  -1.515  21.922  0.00  0.00    +0.012 C 
ENDROOT
TORSDOF 0
ENDMDL
