MODEL 1
REMARK VINA RESULT:      -6.1      0.000      0.000
REMARK  Name = 
REMARK  11 active torsions:
REMARK  status: ('A' for Active; 'I' for Inactive)
REMARK    1  A    between atoms: C_1  and  O_2
REMARK    2  A    between atoms: O_2  and  C_3
REMARK    3  A    between atoms: C_3  and  C_5
REMARK    4  A    between atoms: C_5  and  C_7
REMARK    5  A    between atoms: C_5  and  N_14
REMARK    6  A    between atoms: C_7  and  C_8
REMARK    7  A    between atoms: C_15  and  C_17
REMARK    8  A    between atoms: C_17  and  N_19
REMARK    9  A    between atoms: C_17  and  C_20
REMARK   10  A    between atoms: C_20  and  C_21
REMARK   11  A    between atoms: C_21  and  O_22
REMARK                            x       y       z     vdW  Elec       q    Type
REMARK                         _______ _______ _______ _____ _____    ______ ____
ROOT
ATOM      1  N   UNL     1       9.018  -2.922  24.273  0.00  0.00    -0.301 N 
ATOM      2  H   UNL     1       9.765  -3.355  24.812  0.00  0.00    +0.150 HD
ATOM      3  C   UNL     1       8.133  -3.802  23.695  0.00  0.00    +0.231 C 
ATOM      4  O   UNL     1       7.344  -3.475  22.818  0.00  0.00    -0.274 OA
ENDROOT
BRANCH   1   5
ATOM      5  C   UNL     1       9.159  -1.548  23.782  0.00  0.00    +0.186 C 
BRANCH   5   6
ATOM      6  C   UNL     1       9.872  -1.421  22.423  0.00  0.00    +0.328 C 
ATOM      7  O   UNL     1      11.056  -1.690  22.262  0.00  0.00    -0.249 OA
BRANCH   6   9
ATOM      8  C   UNL     1       9.114   0.406  21.177  0.00  0.00    +0.280 C 
ATOM      9  O   UNL     1       9.039  -0.999  21.430  0.00  0.00    -0.467 OA
ENDBRANCH   6   9
ENDBRANCH   5   6
BRANCH   5  10
ATOM     10  C   UNL     1       9.909  -0.674  24.802  0.00  0.00    +0.069 C 
BRANCH  10  11
ATOM     11  C   UNL     1       9.750   0.811  24.553  0.00  0.00    -0.045 A 
ATOM     12  C   UNL     1      10.804   1.562  24.013  0.00  0.00    +0.004 A 
ATOM     13  C   UNL     1      10.655   2.930  23.781  0.00  0.00    +0.000 A 
ATOM     14  C   UNL     1       9.456   3.564  24.098  0.00  0.00    +0.000 A 
ATOM     15  C   UNL     1       8.407   2.831  24.652  0.00  0.00    +0.000 A 
ATOM     16  C   UNL     1       8.552   1.461  24.879  0.00  0.00    +0.004 A 
ENDBRANCH  10  11
ENDBRANCH   5  10
ENDBRANCH   1   5
BRANCH   3  17
ATOM     17  C   UNL     1       8.143  -5.205  24.336  0.00  0.00    +0.148 C 
BRANCH  17  18
ATOM     18  N   UNL     1       9.518  -5.501  24.830  0.00  0.00    -0.320 NA
ATOM     19  H   UNL     1      10.173  -4.878  24.354  0.00  0.00    +0.119 HD
ATOM     20  H   UNL     1       9.561  -5.228  25.816  0.00  0.00    +0.119 HD
ENDBRANCH  17  18
BRANCH  17  21
ATOM     21  C   UNL     1       7.170  -5.242  25.508  0.00  0.00    +0.148 C 
BRANCH  21  22
ATOM     22  C   UNL     1       7.887  -5.012  26.812  0.00  0.00    +0.307 C 
ATOM     23  O   UNL     1       8.417  -3.951  27.106  0.00  0.00    -0.251 OA
BRANCH  22  24
ATOM     24  O   UNL     1       7.879  -6.079  27.640  0.00  0.00    -0.481 OA
ATOM     25  H   UNL     1       7.056  -6.607  27.628  0.00  0.00    +0.295 HD
ENDBRANCH  22  24
ENDBRANCH  21  22
ENDBRANCH  17  21
ENDBRANCH   3  17
TORSDOF 10
ENDMDL
MODEL 2
REMARK VINA RESULT:      -5.9      2.671      4.200
REMARK  Name = 
REMARK  11 active torsions:
REMARK  status: ('A' for Active; 'I' for Inactive)
REMARK    1  A    between atoms: C_1  and  O_2
REMARK    2  A    between atoms: O_2  and  C_3
REMARK    3  A    between atoms: C_3  and  C_5
REMARK    4  A    between atoms: C_5  and  C_7
REMARK    5  A    between atoms: C_5  and  N_14
REMARK    6  A    between atoms: C_7  and  C_8
REMARK    7  A    between atoms: C_15  and  C_17
REMARK    8  A    between atoms: C_17  and  N_19
REMARK    9  A    between atoms: C_17  and  C_20
REMARK   10  A    between atoms: C_20  and  C_21
REMARK   11  A    between atoms: C_21  and  O_22
REMARK                            x       y       z     vdW  Elec       q    Type
REMARK                         _______ _______ _______ _____ _____    ______ ____
ROOT
ATOM      1  N   UNL     1       6.630  -3.583  24.587  0.00  0.00    -0.301 N 
ATOM      2  H   UNL     1       7.512  -3.967  24.254  0.00  0.00    +0.150 HD
ATOM      3  C   UNL     1       6.288  -3.940  25.870  0.00  0.00    +0.231 C 
ATOM      4  O   UNL     1       5.163  -3.786  26.328  0.00  0.00    -0.274 OA
ENDROOT
BRANCH   1   5
ATOM      5  C   UNL     1       5.624  -3.103  23.635  0.00  0.00    +0.186 C 
BRANCH   5   6
ATOM      6  C   UNL     1       5.061  -4.184  22.694  0.00  0.00    +0.328 C 
ATOM      7  O   UNL     1       4.061  -4.842  22.957  0.00  0.00    -0.249 OA
BRANCH   6   9
ATOM      8  C   UNL     1       6.366  -5.600  21.370  0.00  0.00    +0.280 C 
ATOM      9  O   UNL     1       5.781  -4.307  21.544  0.00  0.00    -0.467 OA
ENDBRANCH   6   9
ENDBRANCH   5   6
BRANCH   5  10
ATOM     10  C   UNL     1       6.187  -1.961  22.771  0.00  0.00    +0.069 C 
BRANCH  10  11
ATOM     11  C   UNL     1       7.594  -1.553  23.156  0.00  0.00    -0.045 A 
ATOM     12  C   UNL     1       7.812  -0.596  24.157  0.00  0.00    +0.004 A 
ATOM     13  C   UNL     1       9.109  -0.224  24.513  0.00  0.00    +0.000 A 
ATOM     14  C   UNL     1      10.201  -0.795  23.862  0.00  0.00    +0.000 A 
ATOM     15  C   UNL     1       9.996  -1.734  22.853  0.00  0.00    +0.000 A 
ATOM     16  C   UNL     1       8.699  -2.112  22.500  0.00  0.00    +0.004 A 
ENDBRANCH  10  11
ENDBRANCH   5  10
ENDBRANCH   1   5
BRANCH   3  17
ATOM     17  C   UNL     1       7.478  -4.440  26.715  0.00  0.00    +0.148 C 
BRANCH  17  18
ATOM     18  N   UNL     1       7.473  -5.931  26.722  0.00  0.00    -0.320 NA
ATOM     19  H   UNL     1       6.715  -6.254  26.118  0.00  0.00    +0.119 HD
ATOM     20  H   UNL     1       8.332  -6.248  26.263  0.00  0.00    +0.119 HD
ENDBRANCH  17  18
BRANCH  17  21
ATOM     21  C   UNL     1       8.784  -3.946  26.107  0.00  0.00    +0.148 C 
BRANCH  21  22
ATOM     22  C   UNL     1       9.424  -5.013  25.260  0.00  0.00    +0.307 C 
ATOM     23  O   UNL     1       9.002  -5.339  24.162  0.00  0.00    -0.251 OA
BRANCH  22  24
ATOM     24  O   UNL     1      10.522  -5.572  25.816  0.00  0.00    -0.481 OA
ATOM     25  H   UNL     1      10.663  -6.515  25.597  0.00  0.00    +0.295 HD
ENDBRANCH  22  24
ENDBRANCH  21  22
ENDBRANCH  17  21
ENDBRANCH   3  17
TORSDOF 10
ENDMDL
MODEL 3
REMARK VINA RESULT:      -5.9      2.465      6.849
REMARK  Name = 
REMARK  11 active torsions:
REMARK  status: ('A' for Active; 'I' for Inactive)
REMARK    1  A    between atoms: C_1  and  O_2
REMARK    2  A    between atoms: O_2  and  C_3
REMARK    3  A    between atoms: C_3  and  C_5
REMARK    4  A    between atoms: C_5  and  C_7
REMARK    5  A    between atoms: C_5  and  N_14
REMARK    6  A    between atoms: C_7  and  C_8
REMARK    7  A    between atoms: C_15  and  C_17
REMARK    8  A    between atoms: C_17  and  N_19
REMARK    9  A    between atoms: C_17  and  C_20
REMARK   10  A    between atoms: C_20  and  C_21
REMARK   11  A    between atoms: C_21  and  O_22
REMARK                            x       y       z     vdW  Elec       q    Type
REMARK                         _______ _______ _______ _____ _____    ______ ____
ROOT
ATOM      1  N   UNL     1       9.234  -2.872  23.462  0.00  0.00    -0.301 N 
ATOM      2  H   UNL     1       9.865  -3.225  22.746  0.00  0.00    +0.150 HD
ATOM      3  C   UNL     1       9.494  -1.589  23.884  0.00  0.00    +0.231 C 
ATOM      4  O   UNL     1       9.008  -1.110  24.901  0.00  0.00    -0.274 OA
ENDROOT
BRANCH   1   5
ATOM      5  C   UNL     1       8.445  -3.799  24.280  0.00  0.00    +0.186 C 
BRANCH   5   6
ATOM      6  C   UNL     1       9.246  -4.536  25.369  0.00  0.00    +0.328 C 
ATOM      7  O   UNL     1      10.239  -5.211  25.128  0.00  0.00    -0.249 OA
BRANCH   6   9
ATOM      8  C   UNL     1       7.728  -5.277  26.985  0.00  0.00    +0.280 C 
ATOM      9  O   UNL     1       8.739  -4.335  26.619  0.00  0.00    -0.467 OA
ENDBRANCH   6   9
ENDBRANCH   5   6
BRANCH   5  10
ATOM     10  C   UNL     1       7.750  -4.852  23.399  0.00  0.00    +0.069 C 
BRANCH  10  11
ATOM     11  C   UNL     1       6.241  -4.830  23.514  0.00  0.00    -0.045 A 
ATOM     12  C   UNL     1       5.464  -5.839  22.927  0.00  0.00    +0.004 A 
ATOM     13  C   UNL     1       4.073  -5.818  23.037  0.00  0.00    +0.000 A 
ATOM     14  C   UNL     1       3.444  -4.782  23.722  0.00  0.00    +0.000 A 
ATOM     15  C   UNL     1       4.204  -3.763  24.294  0.00  0.00    +0.000 A 
ATOM     16  C   UNL     1       5.596  -3.786  24.191  0.00  0.00    +0.004 A 
ENDBRANCH  10  11
ENDBRANCH   5  10
ENDBRANCH   1   5
BRANCH   3  17
ATOM     17  C   UNL     1      10.355  -0.772  22.900  0.00  0.00    +0.148 C 
BRANCH  17  18
ATOM     18  N   UNL     1       9.832  -0.975  21.518  0.00  0.00    -0.320 NA
ATOM     19  H   UNL     1      10.601  -0.839  20.858  0.00  0.00    +0.119 HD
ATOM     20  H   UNL     1       9.573  -1.961  21.424  0.00  0.00    +0.119 HD
ENDBRANCH  17  18
BRANCH  17  21
ATOM     21  C   UNL     1      10.277   0.708  23.253  0.00  0.00    +0.148 C 
BRANCH  21  22
ATOM     22  C   UNL     1       9.352   1.438  22.317  0.00  0.00    +0.307 C 
ATOM     23  O   UNL     1       8.134   1.365  22.387  0.00  0.00    -0.251 OA
BRANCH  22  24
ATOM     24  O   UNL     1       9.986   2.200  21.399  0.00  0.00    -0.481 OA
ATOM     25  H   UNL     1       9.398   2.696  20.795  0.00  0.00    +0.295 HD
ENDBRANCH  22  24
ENDBRANCH  21  22
ENDBRANCH  17  21
ENDBRANCH   3  17
TORSDOF 10
ENDMDL
MODEL 4
REMARK VINA RESULT:      -5.8      2.502      6.801
REMARK  Name = 
REMARK  11 active torsions:
REMARK  status: ('A' for Active; 'I' for Inactive)
REMARK    1  A    between atoms: C_1  and  O_2
REMARK    2  A    between atoms: O_2  and  C_3
REMARK    3  A    between atoms: C_3  and  C_5
REMARK    4  A    between atoms: C_5  and  C_7
REMARK    5  A    between atoms: C_5  and  N_14
REMARK    6  A    between atoms: C_7  and  C_8
REMARK    7  A    between atoms: C_15  and  C_17
REMARK    8  A    between atoms: C_17  and  N_19
REMARK    9  A    between atoms: C_17  and  C_20
REMARK   10  A    between atoms: C_20  and  C_21
REMARK   11  A    between atoms: C_21  and  O_22
REMARK                            x       y       z     vdW  Elec       q    Type
REMARK                         _______ _______ _______ _____ _____    ______ ____
ROOT
ATOM      1  N   UNL     1       9.082  -1.151  24.022  0.00  0.00    -0.301 N 
ATOM      2  H   UNL     1      10.016  -1.116  23.620  0.00  0.00    +0.150 HD
ATOM      3  C   UNL     1       8.754  -0.083  24.824  0.00  0.00    +0.231 C 
ATOM      4  O   UNL     1       7.792  -0.088  25.580  0.00  0.00    -0.274 OA
ENDROOT
BRANCH   1   5
ATOM      5  C   UNL     1       8.361  -2.424  24.114  0.00  0.00    +0.186 C 
BRANCH   5   6
ATOM      6  C   UNL     1       9.097  -3.525  24.899  0.00  0.00    +0.328 C 
ATOM      7  O   UNL     1      10.093  -4.097  24.473  0.00  0.00    -0.249 OA
BRANCH   6   9
ATOM      8  C   UNL     1       8.081  -5.118  26.275  0.00  0.00    +0.280 C 
ATOM      9  O   UNL     1       8.532  -3.771  26.115  0.00  0.00    -0.467 OA
ENDBRANCH   6   9
ENDBRANCH   5   6
BRANCH   5  10
ATOM     10  C   UNL     1       8.031  -2.970  22.714  0.00  0.00    +0.069 C 
BRANCH  10  11
ATOM     11  C   UNL     1       6.893  -3.970  22.712  0.00  0.00    -0.045 A 
ATOM     12  C   UNL     1       7.089  -5.276  22.241  0.00  0.00    +0.004 A 
ATOM     13  C   UNL     1       6.041  -6.196  22.243  0.00  0.00    +0.000 A 
ATOM     14  C   UNL     1       4.781  -5.816  22.702  0.00  0.00    +0.000 A 
ATOM     15  C   UNL     1       4.569  -4.515  23.156  0.00  0.00    +0.000 A 
ATOM     16  C   UNL     1       5.619  -3.595  23.161  0.00  0.00    +0.004 A 
ENDBRANCH  10  11
ENDBRANCH   5  10
ENDBRANCH   1   5
BRANCH   3  17
ATOM     17  C   UNL     1       9.637   1.161  24.596  0.00  0.00    +0.148 C 
BRANCH  17  18
ATOM     18  N   UNL     1      11.028   0.716  24.290  0.00  0.00    -0.320 NA
ATOM     19  H   UNL     1      11.676   1.435  24.617  0.00  0.00    +0.119 HD
ATOM     20  H   UNL     1      11.228  -0.104  24.869  0.00  0.00    +0.119 HD
ENDBRANCH  17  18
BRANCH  17  21
ATOM     21  C   UNL     1       9.099   1.966  23.420  0.00  0.00    +0.148 C 
BRANCH  21  22
ATOM     22  C   UNL     1       9.812   1.603  22.145  0.00  0.00    +0.307 C 
ATOM     23  O   UNL     1       9.623   0.554  21.548  0.00  0.00    -0.251 OA
BRANCH  22  24
ATOM     24  O   UNL     1      10.670   2.550  21.706  0.00  0.00    -0.481 OA
ATOM     25  H   UNL     1      10.495   3.453  22.037  0.00  0.00    +0.295 HD
ENDBRANCH  22  24
ENDBRANCH  21  22
ENDBRANCH  17  21
ENDBRANCH   3  17
TORSDOF 10
ENDMDL
MODEL 5
REMARK VINA RESULT:      -5.8      2.949      7.033
REMARK  Name = 
REMARK  11 active torsions:
REMARK  status: ('A' for Active; 'I' for Inactive)
REMARK    1  A    between atoms: C_1  and  O_2
REMARK    2  A    between atoms: O_2  and  C_3
REMARK    3  A    between atoms: C_3  and  C_5
REMARK    4  A    between atoms: C_5  and  C_7
REMARK    5  A    between atoms: C_5  and  N_14
REMARK    6  A    between atoms: C_7  and  C_8
REMARK    7  A    between atoms: C_15  and  C_17
REMARK    8  A    between atoms: C_17  and  N_19
REMARK    9  A    between atoms: C_17  and  C_20
REMARK   10  A    between atoms: C_20  and  C_21
REMARK   11  A    between atoms: C_21  and  O_22
REMARK                            x       y       z     vdW  Elec       q    Type
REMARK                         _______ _______ _______ _____ _____    ______ ____
ROOT
ATOM      1  N   UNL     1       9.433  -1.066  23.243  0.00  0.00    -0.301 N 
ATOM      2  H   UNL     1      10.399  -1.110  23.560  0.00  0.00    +0.150 HD
ATOM      3  C   UNL     1       8.994   0.189  22.890  0.00  0.00    +0.231 C 
ATOM      4  O   UNL     1       7.810   0.462  22.738  0.00  0.00    -0.274 OA
ENDROOT
BRANCH   1   5
ATOM      5  C   UNL     1       8.492  -2.137  23.583  0.00  0.00    +0.186 C 
BRANCH   5   6
ATOM      6  C   UNL     1       9.022  -3.158  24.607  0.00  0.00    +0.328 C 
ATOM      7  O   UNL     1       9.982  -3.887  24.388  0.00  0.00    -0.249 OA
BRANCH   6   9
ATOM      8  C   UNL     1       7.793  -4.419  26.144  0.00  0.00    +0.280 C 
ATOM      9  O   UNL     1       8.321  -3.142  25.776  0.00  0.00    -0.467 OA
ENDBRANCH   6   9
ENDBRANCH   5   6
BRANCH   5  10
ATOM     10  C   UNL     1       8.053  -2.903  22.323  0.00  0.00    +0.069 C 
BRANCH  10  11
ATOM     11  C   UNL     1       6.887  -3.838  22.564  0.00  0.00    -0.045 A 
ATOM     12  C   UNL     1       7.014  -5.215  22.330  0.00  0.00    +0.004 A 
ATOM     13  C   UNL     1       5.939  -6.075  22.556  0.00  0.00    +0.000 A 
ATOM     14  C   UNL     1       4.722  -5.567  23.003  0.00  0.00    +0.000 A 
ATOM     15  C   UNL     1       4.578  -4.197  23.222  0.00  0.00    +0.000 A 
ATOM     16  C   UNL     1       5.654  -3.336  23.002  0.00  0.00    +0.004 A 
ENDBRANCH  10  11
ENDBRANCH   5  10
ENDBRANCH   1   5
BRANCH   3  17
ATOM     17  C   UNL     1      10.131   1.184  22.587  0.00  0.00    +0.148 C 
BRANCH  17  18
ATOM     18  N   UNL     1       9.691   2.105  21.500  0.00  0.00    -0.320 NA
ATOM     19  H   UNL     1       9.142   1.569  20.826  0.00  0.00    +0.119 HD
ATOM     20  H   UNL     1       9.033   2.775  21.906  0.00  0.00    +0.119 HD
ENDBRANCH  17  18
BRANCH  17  21
ATOM     21  C   UNL     1      10.449   1.998  23.835  0.00  0.00    +0.148 C 
BRANCH  21  22
ATOM     22  C   UNL     1      10.286   3.472  23.575  0.00  0.00    +0.307 C 
ATOM     23  O   UNL     1       9.258   4.085  23.817  0.00  0.00    -0.251 OA
BRANCH  22  24
ATOM     24  O   UNL     1      11.387   4.065  23.064  0.00  0.00    -0.481 OA
ATOM     25  H   UNL     1      11.355   5.042  23.032  0.00  0.00    +0.295 HD
ENDBRANCH  22  24
ENDBRANCH  21  22
ENDBRANCH  17  21
ENDBRANCH   3  17
TORSDOF 10
ENDMDL
MODEL 6
REMARK VINA RESULT:      -5.7      2.526      6.673
REMARK  Name = 
REMARK  11 active torsions:
REMARK  status: ('A' for Active; 'I' for Inactive)
REMARK    1  A    between atoms: C_1  and  O_2
REMARK    2  A    between atoms: O_2  and  C_3
REMARK    3  A    between atoms: C_3  and  C_5
REMARK    4  A    between atoms: C_5  and  C_7
REMARK    5  A    between atoms: C_5  and  N_14
REMARK    6  A    between atoms: C_7  and  C_8
REMARK    7  A    between atoms: C_15  and  C_17
REMARK    8  A    between atoms: C_17  and  N_19
REMARK    9  A    between atoms: C_17  and  C_20
REMARK   10  A    between atoms: C_20  and  C_21
REMARK   11  A    between atoms: C_21  and  O_22
REMARK                            x       y       z     vdW  Elec       q    Type
REMARK                         _______ _______ _______ _____ _____    ______ ____
ROOT
ATOM      1  N   UNL     1       8.108  -2.270  22.519  0.00  0.00    -0.301 N 
ATOM      2  H   UNL     1       7.890  -1.824  21.631  0.00  0.00    +0.150 HD
ATOM      3  C   UNL     1       9.387  -2.059  22.977  0.00  0.00    +0.231 C 
ATOM      4  O   UNL     1       9.891  -2.718  23.877  0.00  0.00    -0.274 OA
ENDROOT
BRANCH   1   5
ATOM      5  C   UNL     1       7.300  -3.394  23.003  0.00  0.00    +0.186 C 
BRANCH   5   6
ATOM      6  C   UNL     1       6.433  -4.073  21.927  0.00  0.00    +0.328 C 
ATOM      7  O   UNL     1       5.368  -3.609  21.537  0.00  0.00    -0.249 OA
BRANCH   6   9
ATOM      8  C   UNL     1       6.527  -6.400  22.118  0.00  0.00    +0.280 C 
ATOM      9  O   UNL     1       6.990  -5.222  21.452  0.00  0.00    -0.467 OA
ENDBRANCH   6   9
ENDBRANCH   5   6
BRANCH   5  10
ATOM     10  C   UNL     1       6.380  -2.953  24.155  0.00  0.00    +0.069 C 
BRANCH  10  11
ATOM     11  C   UNL     1       6.320  -3.950  25.292  0.00  0.00    -0.045 A 
ATOM     12  C   UNL     1       7.469  -4.262  26.032  0.00  0.00    +0.004 A 
ATOM     13  C   UNL     1       7.410  -5.179  27.082  0.00  0.00    +0.000 A 
ATOM     14  C   UNL     1       6.206  -5.805  27.393  0.00  0.00    +0.000 A 
ATOM     15  C   UNL     1       5.060  -5.518  26.653  0.00  0.00    +0.000 A 
ATOM     16  C   UNL     1       5.116  -4.595  25.606  0.00  0.00    +0.004 A 
ENDBRANCH  10  11
ENDBRANCH   5  10
ENDBRANCH   1   5
BRANCH   3  17
ATOM     17  C   UNL     1      10.084  -0.841  22.337  0.00  0.00    +0.148 C 
BRANCH  17  18
ATOM     18  N   UNL     1       9.645  -0.724  20.917  0.00  0.00    -0.320 NA
ATOM     19  H   UNL     1       8.683  -1.062  20.847  0.00  0.00    +0.119 HD
ATOM     20  H   UNL     1       9.593   0.272  20.687  0.00  0.00    +0.119 HD
ENDBRANCH  17  18
BRANCH  17  21
ATOM     21  C   UNL     1       9.696   0.427  23.088  0.00  0.00    +0.148 C 
BRANCH  21  22
ATOM     22  C   UNL     1       9.240   1.500  22.135  0.00  0.00    +0.307 C 
ATOM     23  O   UNL     1       8.066   1.691  21.854  0.00  0.00    -0.251 OA
BRANCH  22  24
ATOM     24  O   UNL     1      10.243   2.249  21.629  0.00  0.00    -0.481 OA
ATOM     25  H   UNL     1      10.710   1.855  20.864  0.00  0.00    +0.295 HD
ENDBRANCH  22  24
ENDBRANCH  21  22
ENDBRANCH  17  21
ENDBRANCH   3  17
TORSDOF 10
ENDMDL
MODEL 7
REMARK VINA RESULT:      -5.6      2.056      3.003
REMARK  Name = 
REMARK  11 active torsions:
REMARK  status: ('A' for Active; 'I' for Inactive)
REMARK    1  A    between atoms: C_1  and  O_2
REMARK    2  A    between atoms: O_2  and  C_3
REMARK    3  A    between atoms: C_3  and  C_5
REMARK    4  A    between atoms: C_5  and  C_7
REMARK    5  A    between atoms: C_5  and  N_14
REMARK    6  A    between atoms: C_7  and  C_8
REMARK    7  A    between atoms: C_15  and  C_17
REMARK    8  A    between atoms: C_17  and  N_19
REMARK    9  A    between atoms: C_17  and  C_20
REMARK   10  A    between atoms: C_20  and  C_21
REMARK   11  A    between atoms: C_21  and  O_22
REMARK                            x       y       z     vdW  Elec       q    Type
REMARK                         _______ _______ _______ _____ _____    ______ ____
ROOT
ATOM      1  N   UNL     1       7.784  -3.603  24.752  0.00  0.00    -0.301 N 
ATOM      2  H   UNL     1       7.793  -4.351  24.063  0.00  0.00    +0.150 HD
ATOM      3  C   UNL     1       7.218  -3.934  25.962  0.00  0.00    +0.231 C 
ATOM      4  O   UNL     1       6.895  -3.100  26.797  0.00  0.00    -0.274 OA
ENDROOT
BRANCH   1   5
ATOM      5  C   UNL     1       7.924  -2.205  24.333  0.00  0.00    +0.186 C 
BRANCH   5   6
ATOM      6  C   UNL     1       6.707  -1.634  23.582  0.00  0.00    +0.328 C 
ATOM      7  O   UNL     1       6.117  -2.249  22.702  0.00  0.00    -0.249 OA
BRANCH   6   9
ATOM      8  C   UNL     1       5.573  -0.404  25.214  0.00  0.00    +0.280 C 
ATOM      9  O   UNL     1       6.357  -0.391  24.018  0.00  0.00    -0.467 OA
ENDBRANCH   6   9
ENDBRANCH   5   6
BRANCH   5  10
ATOM     10  C   UNL     1       9.167  -2.020  23.446  0.00  0.00    +0.069 C 
BRANCH  10  11
ATOM     11  C   UNL     1       9.601  -0.576  23.312  0.00  0.00    -0.045 A 
ATOM     12  C   UNL     1       9.601   0.058  22.062  0.00  0.00    +0.004 A 
ATOM     13  C   UNL     1       9.998   1.390  21.941  0.00  0.00    +0.000 A 
ATOM     14  C   UNL     1      10.412   2.098  23.067  0.00  0.00    +0.000 A 
ATOM     15  C   UNL     1      10.434   1.473  24.313  0.00  0.00    +0.000 A 
ATOM     16  C   UNL     1      10.031   0.142  24.436  0.00  0.00    +0.004 A 
ENDBRANCH  10  11
ENDBRANCH   5  10
ENDBRANCH   1   5
BRANCH   3  17
ATOM     17  C   UNL     1       7.140  -5.453  26.216  0.00  0.00    +0.148 C 
BRANCH  17  18
ATOM     18  N   UNL     1       8.019  -5.796  27.371  0.00  0.00    -0.320 NA
ATOM     19  H   UNL     1       7.440  -6.203  28.108  0.00  0.00    +0.119 HD
ATOM     20  H   UNL     1       8.642  -6.553  27.075  0.00  0.00    +0.119 HD
ENDBRANCH  17  18
BRANCH  17  21
ATOM     21  C   UNL     1       5.705  -5.846  26.545  0.00  0.00    +0.148 C 
BRANCH  21  22
ATOM     22  C   UNL     1       5.558  -6.184  28.005  0.00  0.00    +0.307 C 
ATOM     23  O   UNL     1       5.467  -5.338  28.881  0.00  0.00    -0.251 OA
BRANCH  22  24
ATOM     24  O   UNL     1       5.520  -7.510  28.262  0.00  0.00    -0.481 OA
ATOM     25  H   UNL     1       6.393  -7.948  28.313  0.00  0.00    +0.295 HD
ENDBRANCH  22  24
ENDBRANCH  21  22
ENDBRANCH  17  21
ENDBRANCH   3  17
TORSDOF 10
ENDMDL
MODEL 8
REMARK VINA RESULT:      -5.5      1.787      2.320
REMARK  Name = 
REMARK  11 active torsions:
REMARK  status: ('A' for Active; 'I' for Inactive)
REMARK    1  A    between atoms: C_1  and  O_2
REMARK    2  A    between atoms: O_2  and  C_3
REMARK    3  A    between atoms: C_3  and  C_5
REMARK    4  A    between atoms: C_5  and  C_7
REMARK    5  A    between atoms: C_5  and  N_14
REMARK    6  A    between atoms: C_7  and  C_8
REMARK    7  A    between atoms: C_15  and  C_17
REMARK    8  A    between atoms: C_17  and  N_19
REMARK    9  A    between atoms: C_17  and  C_20
REMARK   10  A    between atoms: C_20  and  C_21
REMARK   11  A    between atoms: C_21  and  O_22
REMARK                            x       y       z     vdW  Elec       q    Type
REMARK                         _______ _______ _______ _____ _____    ______ ____
ROOT
ATOM      1  N   UNL     1       8.203  -1.894  25.110  0.00  0.00    -0.301 N 
ATOM      2  H   UNL     1       9.021  -2.485  24.978  0.00  0.00    +0.150 HD
ATOM      3  C   UNL     1       7.029  -2.571  25.343  0.00  0.00    +0.231 C 
ATOM      4  O   UNL     1       5.928  -2.042  25.266  0.00  0.00    -0.274 OA
ENDROOT
BRANCH   1   5
ATOM      5  C   UNL     1       8.203  -0.509  24.629  0.00  0.00    +0.186 C 
BRANCH   5   6
ATOM      6  C   UNL     1       7.940  -0.352  23.121  0.00  0.00    +0.328 C 
ATOM      7  O   UNL     1       7.006   0.302  22.669  0.00  0.00    -0.249 OA
BRANCH   6   9
ATOM      8  C   UNL     1       9.402  -0.191  21.304  0.00  0.00    +0.280 C 
ATOM      9  O   UNL     1       8.865  -0.997  22.356  0.00  0.00    -0.467 OA
ENDBRANCH   6   9
ENDBRANCH   5   6
BRANCH   5  10
ATOM     10  C   UNL     1       9.534   0.187  24.960  0.00  0.00    +0.069 C 
BRANCH  10  11
ATOM     11  C   UNL     1       9.549   1.658  24.602  0.00  0.00    -0.045 A 
ATOM     12  C   UNL     1       8.530   2.513  25.048  0.00  0.00    +0.004 A 
ATOM     13  C   UNL     1       8.547   3.869  24.720  0.00  0.00    +0.000 A 
ATOM     14  C   UNL     1       9.574   4.382  23.931  0.00  0.00    +0.000 A 
ATOM     15  C   UNL     1      10.583   3.539  23.467  0.00  0.00    +0.000 A 
ATOM     16  C   UNL     1      10.571   2.183  23.800  0.00  0.00    +0.004 A 
ENDBRANCH  10  11
ENDBRANCH   5  10
ENDBRANCH   1   5
BRANCH   3  17
ATOM     17  C   UNL     1       7.232  -4.022  25.824  0.00  0.00    +0.148 C 
BRANCH  17  18
ATOM     18  N   UNL     1       7.066  -4.944  24.664  0.00  0.00    -0.320 NA
ATOM     19  H   UNL     1       7.793  -4.733  23.977  0.00  0.00    +0.119 HD
ATOM     20  H   UNL     1       7.275  -5.893  24.987  0.00  0.00    +0.119 HD
ENDBRANCH  17  18
BRANCH  17  21
ATOM     21  C   UNL     1       8.635  -4.183  26.396  0.00  0.00    +0.148 C 
BRANCH  21  22
ATOM     22  C   UNL     1       9.551  -4.844  25.401  0.00  0.00    +0.307 C 
ATOM     23  O   UNL     1      10.073  -4.246  24.472  0.00  0.00    -0.251 OA
BRANCH  22  24
ATOM     24  O   UNL     1       9.761  -6.158  25.634  0.00  0.00    -0.481 OA
ATOM     25  H   UNL     1       9.244  -6.535  26.375  0.00  0.00    +0.295 HD
ENDBRANCH  22  24
ENDBRANCH  21  22
ENDBRANCH  17  21
ENDBRANCH   3  17
TORSDOF 10
ENDMDL
MODEL 9
REMARK VINA RESULT:      -5.5      2.608      4.279
REMARK  Name = 
REMARK  11 active torsions:
REMARK  status: ('A' for Active; 'I' for Inactive)
REMARK    1  A    between atoms: C_1  and  O_2
REMARK    2  A    between atoms: O_2  and  C_3
REMARK    3  A    between atoms: C_3  and  C_5
REMARK    4  A    between atoms: C_5  and  C_7
REMARK    5  A    between atoms: C_5  and  N_14
REMARK    6  A    between atoms: C_7  and  C_8
REMARK    7  A    between atoms: C_15  and  C_17
REMARK    8  A    between atoms: C_17  and  N_19
REMARK    9  A    between atoms: C_17  and  C_20
REMARK   10  A    between atoms: C_20  and  C_21
REMARK   11  A    between atoms: C_21  and  O_22
REMARK                            x       y       z     vdW  Elec       q    Type
REMARK                         _______ _______ _______ _____ _____    ______ ____
ROOT
ATOM      1  N   UNL     1       6.609  -3.848  24.459  0.00  0.00    -0.301 N 
ATOM      2  H   UNL     1       5.736  -3.584  24.910  0.00  0.00    +0.150 HD
ATOM      3  C   UNL     1       6.494  -4.823  23.495  0.00  0.00    +0.231 C 
ATOM      4  O   UNL     1       7.456  -5.432  23.045  0.00  0.00    -0.274 OA
ENDROOT
BRANCH   1   5
ATOM      5  C   UNL     1       7.893  -3.559  25.103  0.00  0.00    +0.186 C 
BRANCH   5   6
ATOM      6  C   UNL     1       8.090  -4.230  26.475  0.00  0.00    +0.328 C 
ATOM      7  O   UNL     1       7.181  -4.377  27.283  0.00  0.00    -0.249 OA
BRANCH   6   9
ATOM      8  C   UNL     1       9.999  -5.151  25.488  0.00  0.00    +0.280 C 
ATOM      9  O   UNL     1       9.370  -4.655  26.673  0.00  0.00    -0.467 OA
ENDBRANCH   6   9
ENDBRANCH   5   6
BRANCH   5  10
ATOM     10  C   UNL     1       8.092  -2.043  25.277  0.00  0.00    +0.069 C 
BRANCH  10  11
ATOM     11  C   UNL     1       8.668  -1.368  24.050  0.00  0.00    -0.045 A 
ATOM     12  C   UNL     1       9.722  -1.958  23.338  0.00  0.00    +0.004 A 
ATOM     13  C   UNL     1      10.249  -1.336  22.205  0.00  0.00    +0.000 A 
ATOM     14  C   UNL     1       9.738  -0.111  21.781  0.00  0.00    +0.000 A 
ATOM     15  C   UNL     1       8.702   0.493  22.492  0.00  0.00    +0.000 A 
ATOM     16  C   UNL     1       8.169  -0.131  23.621  0.00  0.00    +0.004 A 
ENDBRANCH  10  11
ENDBRANCH   5  10
ENDBRANCH   1   5
BRANCH   3  17
ATOM     17  C   UNL     1       5.061  -4.993  22.950  0.00  0.00    +0.148 C 
BRANCH  17  18
ATOM     18  N   UNL     1       5.035  -6.154  22.015  0.00  0.00    -0.320 NA
ATOM     19  H   UNL     1       4.431  -6.876  22.413  0.00  0.00    +0.119 HD
ATOM     20  H   UNL     1       4.561  -5.855  21.158  0.00  0.00    +0.119 HD
ENDBRANCH  17  18
BRANCH  17  21
ATOM     21  C   UNL     1       4.100  -5.256  24.103  0.00  0.00    +0.148 C 
BRANCH  21  22
ATOM     22  C   UNL     1       4.492  -6.496  24.861  0.00  0.00    +0.307 C 
ATOM     23  O   UNL     1       4.286  -7.627  24.446  0.00  0.00    -0.251 OA
BRANCH  22  24
ATOM     24  O   UNL     1       5.108  -6.250  26.037  0.00  0.00    -0.481 OA
ATOM     25  H   UNL     1       5.375  -7.046  26.540  0.00  0.00    +0.295 HD
ENDBRANCH  22  24
ENDBRANCH  21  22
ENDBRANCH  17  21
ENDBRANCH   3  17
TORSDOF 10
ENDMDL
