MODEL 1
REMARK VINA RESULT:      -5.4      0.000      0.000
REMARK  Name = 
REMARK  1 active torsions:
REMARK  status: ('A' for Active; 'I' for Inactive)
REMARK    1  A    between atoms: C_1  and  C_2
REMARK                            x       y       z     vdW  Elec       q    Type
REMARK                         _______ _______ _______ _____ _____    ______ ____
ROOT
ATOM      1  C   UNL     1       9.452  -0.099  21.548  0.00  0.00    +0.109 C 
ATOM      2  C   UNL     1       9.056  -1.320  22.277  0.00  0.00    +0.196 A 
ATOM      3  O   UNL     1       9.994  -1.857  23.120  0.00  0.00    -0.422 OA
ATOM      4  C   UNL     1       9.385  -2.965  23.643  0.00  0.00    +0.256 A 
ATOM      5  N   UNL     1       9.948  -3.835  24.516  0.00  0.00    -0.179 NA
ATOM      6  C   UNL     1       9.169  -4.828  24.839  0.00  0.00    +0.196 A 
ATOM      7  N   UNL     1       7.881  -4.972  24.368  0.00  0.00    -0.293 N 
ATOM      8  H   UNL     1       7.325  -5.768  24.641  0.00  0.00    +0.172 HD
ATOM      9  C   UNL     1       7.269  -4.111  23.473  0.00  0.00    +0.282 A 
ATOM     10  O   UNL     1       6.128  -4.301  23.070  0.00  0.00    -0.265 OA
ATOM     11  N   UNL     1       9.613  -5.801  25.672  0.00  0.00    -0.329 N 
ATOM     12  H   UNL     1       8.963  -6.388  26.174  0.00  0.00    +0.145 HD
ATOM     13  H   UNL     1      10.471  -5.579  26.168  0.00  0.00    +0.145 HD
ATOM     14  C   UNL     1       8.125  -3.016  23.090  0.00  0.00    +0.193 A 
ATOM     15  N   UNL     1       7.911  -1.976  22.224  0.00  0.00    -0.206 NA
ENDROOT
TORSDOF 0
ENDMDL
MODEL 2
REMARK VINA RESULT:      -5.1      2.533      3.647
REMARK  Name = 
REMARK  1 active torsions:
REMARK  status: ('A' for Active; 'I' for Inactive)
REMARK    1  A    between atoms: C_1  and  C_2
REMARK                            x       y       z     vdW  Elec       q    Type
REMARK                         _______ _______ _______ _____ _____    ______ ____
ROOT
ATOM      1  C   UNL     1       5.996  -3.397  21.752  0.00  0.00    +0.109 C 
ATOM      2  C   UNL     1       6.625  -3.979  22.954  0.00  0.00    +0.196 A 
ATOM      3  O   UNL     1       5.775  -4.400  23.942  0.00  0.00    -0.422 OA
ATOM      4  C   UNL     1       6.603  -4.871  24.924  0.00  0.00    +0.256 A 
ATOM      5  N   UNL     1       6.203  -5.371  26.119  0.00  0.00    -0.179 NA
ATOM      6  C   UNL     1       7.191  -5.723  26.893  0.00  0.00    +0.196 A 
ATOM      7  N   UNL     1       8.517  -5.632  26.528  0.00  0.00    -0.293 N 
ATOM      8  H   UNL     1       9.242  -5.909  27.172  0.00  0.00    +0.172 HD
ATOM      9  C   UNL     1       8.969  -5.125  25.322  0.00  0.00    +0.282 A 
ATOM     10  O   UNL     1      10.163  -5.046  25.059  0.00  0.00    -0.265 OA
ATOM     11  N   UNL     1       6.944  -6.202  28.137  0.00  0.00    -0.329 N 
ATOM     12  H   UNL     1       7.632  -6.758  28.623  0.00  0.00    +0.145 HD
ATOM     13  H   UNL     1       5.977  -6.456  28.313  0.00  0.00    +0.145 HD
ATOM     14  C   UNL     1       7.890  -4.711  24.460  0.00  0.00    +0.193 A 
ATOM     15  N   UNL     1       7.910  -4.146  23.212  0.00  0.00    -0.206 NA
ENDROOT
TORSDOF 0
ENDMDL
MODEL 3
REMARK VINA RESULT:      -5.0      2.470      5.046
REMARK  Name = 
REMARK  1 active torsions:
REMARK  status: ('A' for Active; 'I' for Inactive)
REMARK    1  A    between atoms: C_1  and  C_2
REMARK                            x       y       z     vdW  Elec       q    Type
REMARK                         _______ _______ _______ _____ _____    ______ ____
ROOT
ATOM      1  C   UNL     1       7.824  -4.284  23.196  0.00  0.00    +0.109 C 
ATOM      2  C   UNL     1       8.394  -2.925  23.273  0.00  0.00    +0.196 A 
ATOM      3  O   UNL     1       8.336  -2.174  22.129  0.00  0.00    -0.422 OA
ATOM      4  C   UNL     1       8.935  -0.991  22.468  0.00  0.00    +0.256 A 
ATOM      5  N   UNL     1       9.131   0.060  21.635  0.00  0.00    -0.179 NA
ATOM      6  C   UNL     1       9.755   1.058  22.193  0.00  0.00    +0.196 A 
ATOM      7  N   UNL     1      10.152   1.068  23.513  0.00  0.00    -0.293 N 
ATOM      8  H   UNL     1      10.643   1.863  23.891  0.00  0.00    +0.172 HD
ATOM      9  C   UNL     1       9.976   0.016  24.397  0.00  0.00    +0.282 A 
ATOM     10  O   UNL     1      10.371   0.071  25.555  0.00  0.00    -0.265 OA
ATOM     11  N   UNL     1      10.059   2.164  21.469  0.00  0.00    -0.329 N 
ATOM     12  H   UNL     1      10.247   3.044  21.924  0.00  0.00    +0.145 HD
ATOM     13  H   UNL     1       9.586   2.230  20.573  0.00  0.00    +0.145 HD
ATOM     14  C   UNL     1       9.305  -1.106  23.790  0.00  0.00    +0.193 A 
ATOM     15  N   UNL     1       8.964  -2.328  24.305  0.00  0.00    -0.206 NA
ENDROOT
TORSDOF 0
ENDMDL
MODEL 4
REMARK VINA RESULT:      -4.9      2.500      4.935
REMARK  Name = 
REMARK  1 active torsions:
REMARK  status: ('A' for Active; 'I' for Inactive)
REMARK    1  A    between atoms: C_1  and  C_2
REMARK                            x       y       z     vdW  Elec       q    Type
REMARK                         _______ _______ _______ _____ _____    ______ ____
ROOT
ATOM      1  C   UNL     1       5.397  -2.781  24.096  0.00  0.00    +0.109 C 
ATOM      2  C   UNL     1       6.609  -2.095  23.609  0.00  0.00    +0.196 A 
ATOM      3  O   UNL     1       6.467  -0.775  23.269  0.00  0.00    -0.422 OA
ATOM      4  C   UNL     1       7.712  -0.398  22.844  0.00  0.00    +0.256 A 
ATOM      5  N   UNL     1       8.047   0.831  22.380  0.00  0.00    -0.179 NA
ATOM      6  C   UNL     1       9.292   0.925  22.008  0.00  0.00    +0.196 A 
ATOM      7  N   UNL     1      10.198  -0.109  22.103  0.00  0.00    -0.293 N 
ATOM      8  H   UNL     1      11.148   0.015  21.789  0.00  0.00    +0.172 HD
ATOM      9  C   UNL     1       9.898  -1.379  22.566  0.00  0.00    +0.282 A 
ATOM     10  O   UNL     1      10.739  -2.269  22.608  0.00  0.00    -0.265 OA
ATOM     11  N   UNL     1       9.761   2.084  21.483  0.00  0.00    -0.329 N 
ATOM     12  H   UNL     1      10.749   2.288  21.479  0.00  0.00    +0.145 HD
ATOM     13  H   UNL     1       9.152   2.887  21.609  0.00  0.00    +0.145 HD
ATOM     14  C   UNL     1       8.518  -1.508  22.964  0.00  0.00    +0.193 A 
ATOM     15  N   UNL     1       7.825  -2.585  23.448  0.00  0.00    -0.206 NA
ENDROOT
TORSDOF 0
ENDMDL
MODEL 5
REMARK VINA RESULT:      -4.8      1.858      2.690
REMARK  Name = 
REMARK  1 active torsions:
REMARK  status: ('A' for Active; 'I' for Inactive)
REMARK    1  A    between atoms: C_1  and  C_2
REMARK                            x       y       z     vdW  Elec       q    Type
REMARK                         _______ _______ _______ _____ _____    ______ ____
ROOT
ATOM      1  C   UNL     1       9.865  -1.053  22.078  0.00  0.00    +0.109 C 
ATOM      2  C   UNL     1       9.376  -2.147  22.941  0.00  0.00    +0.196 A 
ATOM      3  O   UNL     1       8.038  -2.429  22.866  0.00  0.00    -0.422 OA
ATOM      4  C   UNL     1       7.856  -3.450  23.759  0.00  0.00    +0.256 A 
ATOM      5  N   UNL     1       6.672  -4.043  24.047  0.00  0.00    -0.179 NA
ATOM      6  C   UNL     1       6.762  -4.970  24.959  0.00  0.00    +0.196 A 
ATOM      7  N   UNL     1       7.947  -5.342  25.556  0.00  0.00    -0.293 N 
ATOM      8  H   UNL     1       7.957  -6.058  26.265  0.00  0.00    +0.172 HD
ATOM      9  C   UNL     1       9.177  -4.760  25.295  0.00  0.00    +0.282 A 
ATOM     10  O   UNL     1      10.196  -5.115  25.874  0.00  0.00    -0.265 OA
ATOM     11  N   UNL     1       5.650  -5.623  25.379  0.00  0.00    -0.329 N 
ATOM     12  H   UNL     1       5.718  -6.523  25.829  0.00  0.00    +0.145 HD
ATOM     13  H   UNL     1       4.831  -5.490  24.795  0.00  0.00    +0.145 HD
ATOM     14  C   UNL     1       9.093  -3.718  24.303  0.00  0.00    +0.193 A 
ATOM     15  N   UNL     1      10.060  -2.896  23.787  0.00  0.00    -0.206 NA
ENDROOT
TORSDOF 0
ENDMDL
MODEL 6
REMARK VINA RESULT:      -4.8      3.520      4.765
REMARK  Name = 
REMARK  1 active torsions:
REMARK  status: ('A' for Active; 'I' for Inactive)
REMARK    1  A    between atoms: C_1  and  C_2
REMARK                            x       y       z     vdW  Elec       q    Type
REMARK                         _______ _______ _______ _____ _____    ______ ____
ROOT
ATOM      1  C   UNL     1       3.170  -3.753  24.963  0.00  0.00    +0.109 C 
ATOM      2  C   UNL     1       4.464  -4.229  25.491  0.00  0.00    +0.196 A 
ATOM      3  O   UNL     1       5.525  -4.194  24.624  0.00  0.00    -0.422 OA
ATOM      4  C   UNL     1       6.572  -4.694  25.349  0.00  0.00    +0.256 A 
ATOM      5  N   UNL     1       7.834  -4.874  24.889  0.00  0.00    -0.179 NA
ATOM      6  C   UNL     1       8.640  -5.397  25.769  0.00  0.00    +0.196 A 
ATOM      7  N   UNL     1       8.264  -5.710  27.058  0.00  0.00    -0.293 N 
ATOM      8  H   UNL     1       8.926  -6.124  27.695  0.00  0.00    +0.172 HD
ATOM      9  C   UNL     1       6.987  -5.547  27.567  0.00  0.00    +0.282 A 
ATOM     10  O   UNL     1       6.702  -5.864  28.716  0.00  0.00    -0.265 OA
ATOM     11  N   UNL     1       9.925  -5.673  25.438  0.00  0.00    -0.329 N 
ATOM     12  H   UNL     1      10.633  -5.776  26.150  0.00  0.00    +0.145 HD
ATOM     13  H   UNL     1      10.241  -5.254  24.569  0.00  0.00    +0.145 HD
ATOM     14  C   UNL     1       6.076  -4.987  26.600  0.00  0.00    +0.193 A 
ATOM     15  N   UNL     1       4.741  -4.695  26.695  0.00  0.00    -0.206 NA
ENDROOT
TORSDOF 0
ENDMDL
MODEL 7
REMARK VINA RESULT:      -4.8      1.731      3.848
REMARK  Name = 
REMARK  1 active torsions:
REMARK  status: ('A' for Active; 'I' for Inactive)
REMARK    1  A    between atoms: C_1  and  C_2
REMARK                            x       y       z     vdW  Elec       q    Type
REMARK                         _______ _______ _______ _____ _____    ______ ____
ROOT
ATOM      1  C   UNL     1       7.768  -5.276  26.908  0.00  0.00    +0.109 C 
ATOM      2  C   UNL     1       7.919  -4.509  25.656  0.00  0.00    +0.196 A 
ATOM      3  O   UNL     1       9.104  -3.841  25.491  0.00  0.00    -0.422 OA
ATOM      4  C   UNL     1       8.975  -3.215  24.281  0.00  0.00    +0.256 A 
ATOM      5  N   UNL     1       9.901  -2.407  23.710  0.00  0.00    -0.179 NA
ATOM      6  C   UNL     1       9.522  -1.907  22.567  0.00  0.00    +0.196 A 
ATOM      7  N   UNL     1       8.312  -2.193  21.973  0.00  0.00    -0.293 N 
ATOM      8  H   UNL     1       8.064  -1.768  21.092  0.00  0.00    +0.172 HD
ATOM      9  C   UNL     1       7.337  -3.007  22.523  0.00  0.00    +0.282 A 
ATOM     10  O   UNL     1       6.267  -3.208  21.960  0.00  0.00    -0.265 OA
ATOM     11  N   UNL     1      10.329  -1.048  21.898  0.00  0.00    -0.329 N 
ATOM     12  H   UNL     1      10.215  -0.896  20.907  0.00  0.00    +0.145 HD
ATOM     13  H   UNL     1      11.286  -1.009  22.236  0.00  0.00    +0.145 HD
ATOM     14  C   UNL     1       7.731  -3.554  23.798  0.00  0.00    +0.193 A 
ATOM     15  N   UNL     1       7.058  -4.373  24.664  0.00  0.00    -0.206 NA
ENDROOT
TORSDOF 0
ENDMDL
MODEL 8
REMARK VINA RESULT:      -4.7      1.772      4.017
REMARK  Name = 
REMARK  1 active torsions:
REMARK  status: ('A' for Active; 'I' for Inactive)
REMARK    1  A    between atoms: C_1  and  C_2
REMARK                            x       y       z     vdW  Elec       q    Type
REMARK                         _______ _______ _______ _____ _____    ______ ____
ROOT
ATOM      1  C   UNL     1       5.301  -5.791  22.238  0.00  0.00    +0.109 C 
ATOM      2  C   UNL     1       6.444  -4.980  22.705  0.00  0.00    +0.196 A 
ATOM      3  O   UNL     1       6.739  -3.864  21.968  0.00  0.00    -0.422 OA
ATOM      4  C   UNL     1       7.825  -3.319  22.598  0.00  0.00    +0.256 A 
ATOM      5  N   UNL     1       8.488  -2.205  22.203  0.00  0.00    -0.179 NA
ATOM      6  C   UNL     1       9.510  -1.912  22.957  0.00  0.00    +0.196 A 
ATOM      7  N   UNL     1       9.871  -2.640  24.070  0.00  0.00    -0.293 N 
ATOM      8  H   UNL     1      10.679  -2.375  24.612  0.00  0.00    +0.172 HD
ATOM      9  C   UNL     1       9.225  -3.785  24.506  0.00  0.00    +0.282 A 
ATOM     10  O   UNL     1       9.605  -4.406  25.492  0.00  0.00    -0.265 OA
ATOM     11  N   UNL     1      10.293  -0.846  22.659  0.00  0.00    -0.329 N 
ATOM     12  H   UNL     1      10.875  -0.419  23.364  0.00  0.00    +0.145 HD
ATOM     13  H   UNL     1       9.903  -0.209  21.972  0.00  0.00    +0.145 HD
ATOM     14  C   UNL     1       8.103  -4.136  23.672  0.00  0.00    +0.193 A 
ATOM     15  N   UNL     1       7.231  -5.189  23.745  0.00  0.00    -0.206 NA
ENDROOT
TORSDOF 0
ENDMDL
MODEL 9
REMARK VINA RESULT:      -4.7      4.001      5.370
REMARK  Name = 
REMARK  1 active torsions:
REMARK  status: ('A' for Active; 'I' for Inactive)
REMARK    1  A    between atoms: C_1  and  C_2
REMARK                            x       y       z     vdW  Elec       q    Type
REMARK                         _______ _______ _______ _____ _____    ______ ____
ROOT
ATOM      1  C   UNL     1       5.686  -5.466  22.169  0.00  0.00    +0.109 C 
ATOM      2  C   UNL     1       5.852  -5.638  23.625  0.00  0.00    +0.196 A 
ATOM      3  O   UNL     1       4.911  -6.409  24.258  0.00  0.00    -0.422 OA
ATOM      4  C   UNL     1       5.287  -6.390  25.574  0.00  0.00    +0.256 A 
ATOM      5  N   UNL     1       4.630  -7.001  26.589  0.00  0.00    -0.179 NA
ATOM      6  C   UNL     1       5.175  -6.804  27.756  0.00  0.00    +0.196 A 
ATOM      7  N   UNL     1       6.329  -6.074  27.946  0.00  0.00    -0.293 N 
ATOM      8  H   UNL     1       6.702  -5.943  28.874  0.00  0.00    +0.172 HD
ATOM      9  C   UNL     1       7.029  -5.430  26.939  0.00  0.00    +0.282 A 
ATOM     10  O   UNL     1       8.037  -4.774  27.170  0.00  0.00    -0.265 OA
ATOM     11  N   UNL     1       4.604  -7.321  28.872  0.00  0.00    -0.329 N 
ATOM     12  H   UNL     1       5.143  -7.454  29.715  0.00  0.00    +0.145 HD
ATOM     13  H   UNL     1       3.886  -8.018  28.700  0.00  0.00    +0.145 HD
ATOM     14  C   UNL     1       6.427  -5.621  25.643  0.00  0.00    +0.193 A 
ATOM     15  N   UNL     1       6.790  -5.143  24.412  0.00  0.00    -0.206 NA
ENDROOT
TORSDOF 0
ENDMDL
