MODEL 1
REMARK VINA RESULT:      -7.3      0.000      0.000
REMARK  Name = 
REMARK  8 active torsions:
REMARK  status: ('A' for Active; 'I' for Inactive)
REMARK    1  A    between atoms: C_6  and  N_7
REMARK    2  A    between atoms: C_14  and  O_15
REMARK    3  A    between atoms: O_15  and  C_16
REMARK    4  A    between atoms: C_16  and  C_17
REMARK    5  A    between atoms: C_17  and  C_18
REMARK    6  A    between atoms: C_18  and  N_19
REMARK    7  A    between atoms: C_25  and  N_26
REMARK    8  A    between atoms: C_27  and  C_29
REMARK                            x       y       z     vdW  Elec       q    Type
REMARK                         _______ _______ _______ _____ _____    ______ ____
ROOT
ATOM      1  N   UNL     1       8.568   1.128  24.951  0.00  0.00    -0.299 N 
ATOM      2  H   UNL     1       7.971   0.670  25.625  0.00  0.00    +0.154 HD
ATOM      3  C   UNL     1       8.747   0.345  23.783  0.00  0.00    +0.134 A 
ATOM      4  C   UNL     1       8.407  -1.028  23.777  0.00  0.00    +0.042 A 
ATOM      5  C   UNL     1       8.654  -1.672  22.557  0.00  0.00    +0.080 A 
ATOM      6  C   UNL     1       8.355  -3.010  22.413  0.00  0.00    +0.076 A 
ATOM      7  C   UNL     1       7.809  -3.772  23.448  0.00  0.00    +0.144 A 
ATOM      8  C   UNL     1       7.560  -3.163  24.679  0.00  0.00    +0.077 A 
ATOM      9  N   UNL     1       9.162  -1.080  21.480  0.00  0.00    -0.235 NA
ATOM     10  C   UNL     1       9.459   0.207  21.601  0.00  0.00    +0.223 A 
ATOM     11  C   UNL     1       7.844  -1.798  24.844  0.00  0.00    +0.040 A 
ATOM     12  N   UNL     1       9.282   0.937  22.698  0.00  0.00    -0.220 NA
ENDROOT
BRANCH   1  17
ATOM     13  F   UNL     1       7.932   6.640  25.437  0.00  0.00    -0.204 F 
ATOM     14  C   UNL     1       8.145   5.319  25.334  0.00  0.00    +0.142 A 
ATOM     15  C   UNL     1       7.341   4.452  26.064  0.00  0.00    +0.041 A 
ATOM     16  C   UNL     1       7.518   3.073  25.934  0.00  0.00    +0.026 A 
ATOM     17  C   UNL     1       8.484   2.540  25.069  0.00  0.00    +0.034 A 
ATOM     18  C   UNL     1       9.323   3.441  24.397  0.00  0.00    +0.046 A 
ATOM     19  C   UNL     1       9.142   4.820  24.507  0.00  0.00    +0.078 A 
ATOM     20 CL   UNL     1      10.144   5.886  23.597  0.00  0.00    -0.081 Cl
ENDBRANCH   1  17
BRANCH   8  21
ATOM     21  N   UNL     1       7.053  -3.958  25.730  0.00  0.00    -0.279 N 
ATOM     22  H   UNL     1       6.110  -3.727  26.023  0.00  0.00    +0.155 HD
ATOM     23  C   UNL     1       7.848  -4.645  26.622  0.00  0.00    +0.241 C 
ATOM     24  O   UNL     1       9.071  -4.636  26.647  0.00  0.00    -0.271 OA
BRANCH  23  25
ATOM     25  C   UNL     1       7.042  -5.372  27.645  0.00  0.00    +0.060 C 
ATOM     26  C   UNL     1       5.922  -4.836  28.144  0.00  0.00    +0.013 C 
ENDBRANCH  23  25
ENDBRANCH   8  21
BRANCH   7  27
ATOM     27  O   UNL     1       7.433  -5.092  23.308  0.00  0.00    -0.490 OA
BRANCH  27  28
ATOM     28  C   UNL     1       7.291  -5.510  21.944  0.00  0.00    +0.230 C 
BRANCH  28  29
ATOM     29  C   UNL     1       5.824  -5.679  21.593  0.00  0.00    +0.056 C 
BRANCH  29  30
ATOM     30  C   UNL     1       4.985  -5.940  22.850  0.00  0.00    +0.088 C 
BRANCH  30  31
ATOM     31  N   UNL     1       3.696  -5.220  22.894  0.00  0.00    -0.298 NA
ATOM     32  C   UNL     1       3.638  -4.313  24.068  0.00  0.00    +0.112 C 
ATOM     33  C   UNL     1       3.521  -5.061  25.409  0.00  0.00    +0.175 C 
ATOM     34  O   UNL     1       2.395  -5.950  25.424  0.00  0.00    -0.377 OA
ATOM     35  C   UNL     1       2.426  -6.861  24.318  0.00  0.00    +0.175 C 
ATOM     36  C   UNL     1       2.518  -6.111  22.980  0.00  0.00    +0.112 C 
ENDBRANCH  30  31
ENDBRANCH  29  30
ENDBRANCH  28  29
ENDBRANCH  27  28
ENDBRANCH   7  27
TORSDOF 8
ENDMDL
MODEL 2
REMARK VINA RESULT:      -7.3      2.034      3.424
REMARK  Name = 
REMARK  8 active torsions:
REMARK  status: ('A' for Active; 'I' for Inactive)
REMARK    1  A    between atoms: C_6  and  N_7
REMARK    2  A    between atoms: C_14  and  O_15
REMARK    3  A    between atoms: O_15  and  C_16
REMARK    4  A    between atoms: C_16  and  C_17
REMARK    5  A    between atoms: C_17  and  C_18
REMARK    6  A    between atoms: C_18  and  N_19
REMARK    7  A    between atoms: C_25  and  N_26
REMARK    8  A    between atoms: C_27  and  C_29
REMARK                            x       y       z     vdW  Elec       q    Type
REMARK                         _______ _______ _______ _____ _____    ______ ____
ROOT
ATOM      1  N   UNL     1       7.577   1.887  23.848  0.00  0.00    -0.299 N 
ATOM      2  H   UNL     1       6.732   1.384  23.614  0.00  0.00    +0.154 HD
ATOM      3  C   UNL     1       8.708   1.034  23.880  0.00  0.00    +0.134 A 
ATOM      4  C   UNL     1       8.551  -0.371  23.924  0.00  0.00    +0.042 A 
ATOM      5  C   UNL     1       9.760  -1.080  23.967  0.00  0.00    +0.080 A 
ATOM      6  C   UNL     1       9.748  -2.457  24.000  0.00  0.00    +0.076 A 
ATOM      7  C   UNL     1       8.564  -3.198  23.996  0.00  0.00    +0.144 A 
ATOM      8  C   UNL     1       7.343  -2.522  23.963  0.00  0.00    +0.077 A 
ATOM      9  N   UNL     1      10.966  -0.517  23.968  0.00  0.00    -0.235 NA
ATOM     10  C   UNL     1      10.996   0.808  23.939  0.00  0.00    +0.223 A 
ATOM     11  C   UNL     1       7.332  -1.119  23.916  0.00  0.00    +0.040 A 
ATOM     12  N   UNL     1       9.930   1.602  23.903  0.00  0.00    -0.220 NA
ENDROOT
BRANCH   1  17
ATOM     13  F   UNL     1       7.221   7.108  21.942  0.00  0.00    -0.204 F 
ATOM     14  C   UNL     1       7.297   5.872  22.458  0.00  0.00    +0.142 A 
ATOM     15  C   UNL     1       6.487   4.874  21.929  0.00  0.00    +0.041 A 
ATOM     16  C   UNL     1       6.586   3.572  22.424  0.00  0.00    +0.026 A 
ATOM     17  C   UNL     1       7.497   3.243  23.436  0.00  0.00    +0.034 A 
ATOM     18  C   UNL     1       8.253   4.284  23.994  0.00  0.00    +0.046 A 
ATOM     19  C   UNL     1       8.174   5.585  23.496  0.00  0.00    +0.078 A 
ATOM     20 CL   UNL     1       9.184   6.814  24.158  0.00  0.00    -0.081 Cl
ENDBRANCH   1  17
BRANCH   8  21
ATOM     21  N   UNL     1       6.155  -3.282  24.010  0.00  0.00    -0.279 N 
ATOM     22  H   UNL     1       6.088  -3.921  24.795  0.00  0.00    +0.155 HD
ATOM     23  C   UNL     1       5.367  -3.541  22.909  0.00  0.00    +0.241 C 
ATOM     24  O   UNL     1       5.599  -3.185  21.761  0.00  0.00    -0.271 OA
BRANCH  23  25
ATOM     25  C   UNL     1       4.194  -4.397  23.248  0.00  0.00    +0.060 C 
ATOM     26  C   UNL     1       4.182  -5.699  22.935  0.00  0.00    +0.013 C 
ENDBRANCH  23  25
ENDBRANCH   8  21
BRANCH   7  27
ATOM     27  O   UNL     1       8.525  -4.576  23.954  0.00  0.00    -0.490 OA
BRANCH  27  28
ATOM     28  C   UNL     1       9.186  -5.205  25.061  0.00  0.00    +0.230 C 
BRANCH  28  29
ATOM     29  C   UNL     1       8.770  -4.550  26.366  0.00  0.00    +0.056 C 
BRANCH  29  30
ATOM     30  C   UNL     1       7.639  -5.337  27.040  0.00  0.00    +0.088 C 
BRANCH  30  31
ATOM     31  N   UNL     1       6.285  -5.026  26.539  0.00  0.00    -0.298 NA
ATOM     32  C   UNL     1       5.585  -4.092  27.457  0.00  0.00    +0.112 C 
ATOM     33  C   UNL     1       5.184  -4.741  28.795  0.00  0.00    +0.175 C 
ATOM     34  O   UNL     1       4.388  -5.918  28.597  0.00  0.00    -0.377 OA
ATOM     35  C   UNL     1       5.040  -6.858  27.734  0.00  0.00    +0.175 C 
ATOM     36  C   UNL     1       5.416  -6.215  26.391  0.00  0.00    +0.112 C 
ENDBRANCH  30  31
ENDBRANCH  29  30
ENDBRANCH  28  29
ENDBRANCH  27  28
ENDBRANCH   7  27
TORSDOF 8
ENDMDL
MODEL 3
REMARK VINA RESULT:      -7.3      2.287      3.398
REMARK  Name = 
REMARK  8 active torsions:
REMARK  status: ('A' for Active; 'I' for Inactive)
REMARK    1  A    between atoms: C_6  and  N_7
REMARK    2  A    between atoms: C_14  and  O_15
REMARK    3  A    between atoms: O_15  and  C_16
REMARK    4  A    between atoms: C_16  and  C_17
REMARK    5  A    between atoms: C_17  and  C_18
REMARK    6  A    between atoms: C_18  and  N_19
REMARK    7  A    between atoms: C_25  and  N_26
REMARK    8  A    between atoms: C_27  and  C_29
REMARK                            x       y       z     vdW  Elec       q    Type
REMARK                         _______ _______ _______ _____ _____    ______ ____
ROOT
ATOM      1  N   UNL     1       7.604   1.951  24.879  0.00  0.00    -0.299 N 
ATOM      2  H   UNL     1       6.676   1.747  25.223  0.00  0.00    +0.154 HD
ATOM      3  C   UNL     1       8.391   0.779  24.751  0.00  0.00    +0.134 A 
ATOM      4  C   UNL     1       7.994  -0.427  25.374  0.00  0.00    +0.042 A 
ATOM      5  C   UNL     1       8.879  -1.494  25.169  0.00  0.00    +0.080 A 
ATOM      6  C   UNL     1       8.603  -2.730  25.712  0.00  0.00    +0.076 A 
ATOM      7  C   UNL     1       7.461  -2.976  26.476  0.00  0.00    +0.144 A 
ATOM      8  C   UNL     1       6.564  -1.932  26.707  0.00  0.00    +0.077 A 
ATOM      9  N   UNL     1      10.002  -1.419  24.459  0.00  0.00    -0.235 NA
ATOM     10  C   UNL     1      10.285  -0.235  23.931  0.00  0.00    +0.223 A 
ATOM     11  C   UNL     1       6.818  -0.668  26.153  0.00  0.00    +0.040 A 
ATOM     12  N   UNL     1       9.539   0.859  24.051  0.00  0.00    -0.220 NA
ENDROOT
BRANCH   1  17
ATOM     13  F   UNL     1       7.563   6.338  21.448  0.00  0.00    -0.204 F 
ATOM     14  C   UNL     1       7.565   5.320  22.322  0.00  0.00    +0.142 A 
ATOM     15  C   UNL     1       6.703   4.251  22.106  0.00  0.00    +0.041 A 
ATOM     16  C   UNL     1       6.723   3.162  22.980  0.00  0.00    +0.026 A 
ATOM     17  C   UNL     1       7.605   3.116  24.068  0.00  0.00    +0.034 A 
ATOM     18  C   UNL     1       8.415   4.237  24.297  0.00  0.00    +0.046 A 
ATOM     19  C   UNL     1       8.415   5.323  23.420  0.00  0.00    +0.078 A 
ATOM     20 CL   UNL     1       9.487   6.643  23.697  0.00  0.00    -0.081 Cl
ENDBRANCH   1  17
BRANCH   8  21
ATOM     21  N   UNL     1       5.439  -2.183  27.523  0.00  0.00    -0.279 N 
ATOM     22  H   UNL     1       5.649  -2.606  28.420  0.00  0.00    +0.155 HD
ATOM     23  C   UNL     1       4.156  -2.320  27.038  0.00  0.00    +0.241 C 
ATOM     24  O   UNL     1       3.826  -2.278  25.860  0.00  0.00    -0.271 OA
BRANCH  23  25
ATOM     25  C   UNL     1       3.176  -2.614  28.122  0.00  0.00    +0.060 C 
ATOM     26  C   UNL     1       3.533  -3.331  29.195  0.00  0.00    +0.013 C 
ENDBRANCH  23  25
ENDBRANCH   8  21
BRANCH   7  27
ATOM     27  O   UNL     1       7.124  -4.220  26.970  0.00  0.00    -0.490 OA
BRANCH  27  28
ATOM     28  C   UNL     1       7.195  -5.267  25.992  0.00  0.00    +0.230 C 
BRANCH  28  29
ATOM     29  C   UNL     1       5.804  -5.635  25.511  0.00  0.00    +0.056 C 
BRANCH  29  30
ATOM     30  C   UNL     1       5.572  -5.150  24.075  0.00  0.00    +0.088 C 
BRANCH  30  31
ATOM     31  N   UNL     1       6.802  -4.853  23.315  0.00  0.00    -0.298 NA
ATOM     32  C   UNL     1       6.716  -3.518  22.672  0.00  0.00    +0.112 C 
ATOM     33  C   UNL     1       5.716  -3.471  21.501  0.00  0.00    +0.175 C 
ATOM     34  O   UNL     1       6.006  -4.470  20.514  0.00  0.00    -0.377 OA
ATOM     35  C   UNL     1       6.075  -5.780  21.092  0.00  0.00    +0.175 C 
ATOM     36  C   UNL     1       7.091  -5.831  22.242  0.00  0.00    +0.112 C 
ENDBRANCH  30  31
ENDBRANCH  29  30
ENDBRANCH  28  29
ENDBRANCH  27  28
ENDBRANCH   7  27
TORSDOF 8
ENDMDL
MODEL 4
REMARK VINA RESULT:      -7.1      4.826      9.395
REMARK  Name = 
REMARK  8 active torsions:
REMARK  status: ('A' for Active; 'I' for Inactive)
REMARK    1  A    between atoms: C_6  and  N_7
REMARK    2  A    between atoms: C_14  and  O_15
REMARK    3  A    between atoms: O_15  and  C_16
REMARK    4  A    between atoms: C_16  and  C_17
REMARK    5  A    between atoms: C_17  and  C_18
REMARK    6  A    between atoms: C_18  and  N_19
REMARK    7  A    between atoms: C_25  and  N_26
REMARK    8  A    between atoms: C_27  and  C_29
REMARK                            x       y       z     vdW  Elec       q    Type
REMARK                         _______ _______ _______ _____ _____    ______ ____
ROOT
ATOM      1  N   UNL     1       5.697  -4.097  24.104  0.00  0.00    -0.299 N 
ATOM      2  H   UNL     1       5.221  -3.217  23.959  0.00  0.00    +0.154 HD
ATOM      3  C   UNL     1       7.100  -3.929  24.213  0.00  0.00    +0.134 A 
ATOM      4  C   UNL     1       7.715  -2.722  23.808  0.00  0.00    +0.042 A 
ATOM      5  C   UNL     1       9.108  -2.711  23.963  0.00  0.00    +0.080 A 
ATOM      6  C   UNL     1       9.829  -1.589  23.616  0.00  0.00    +0.076 A 
ATOM      7  C   UNL     1       9.227  -0.438  23.104  0.00  0.00    +0.144 A 
ATOM      8  C   UNL     1       7.842  -0.421  22.928  0.00  0.00    +0.077 A 
ATOM      9  N   UNL     1       9.823  -3.725  24.444  0.00  0.00    -0.235 NA
ATOM     10  C   UNL     1       9.145  -4.814  24.781  0.00  0.00    +0.223 A 
ATOM     11  C   UNL     1       7.086  -1.548  23.286  0.00  0.00    +0.040 A 
ATOM     12  N   UNL     1       7.828  -4.962  24.680  0.00  0.00    -0.220 NA
ENDROOT
BRANCH   1  17
ATOM     13  F   UNL     1       2.271  -7.811  26.447  0.00  0.00    -0.204 F 
ATOM     14  C   UNL     1       3.132  -6.919  25.933  0.00  0.00    +0.142 A 
ATOM     15  C   UNL     1       3.657  -7.149  24.667  0.00  0.00    +0.041 A 
ATOM     16  C   UNL     1       4.520  -6.210  24.097  0.00  0.00    +0.026 A 
ATOM     17  C   UNL     1       4.858  -5.028  24.770  0.00  0.00    +0.034 A 
ATOM     18  C   UNL     1       4.364  -4.856  26.072  0.00  0.00    +0.046 A 
ATOM     19  C   UNL     1       3.488  -5.781  26.642  0.00  0.00    +0.078 A 
ATOM     20 CL   UNL     1       2.842  -5.485  28.212  0.00  0.00    -0.081 Cl
ENDBRANCH   1  17
BRANCH   8  21
ATOM     21  N   UNL     1       7.253   0.731  22.362  0.00  0.00    -0.279 N 
ATOM     22  H   UNL     1       7.613   0.990  21.450  0.00  0.00    +0.155 HD
ATOM     23  C   UNL     1       6.623   1.710  23.099  0.00  0.00    +0.241 C 
ATOM     24  O   UNL     1       6.518   1.734  24.319  0.00  0.00    -0.271 OA
BRANCH  23  25
ATOM     25  C   UNL     1       6.127   2.825  22.242  0.00  0.00    +0.060 C 
ATOM     26  C   UNL     1       4.984   3.459  22.535  0.00  0.00    +0.013 C 
ENDBRANCH  23  25
ENDBRANCH   8  21
BRANCH   7  27
ATOM     27  O   UNL     1       9.916   0.722  22.817  0.00  0.00    -0.490 OA
BRANCH  27  28
ATOM     28  C   UNL     1      10.459   1.371  23.975  0.00  0.00    +0.230 C 
BRANCH  28  29
ATOM     29  C   UNL     1      10.787   2.820  23.664  0.00  0.00    +0.056 C 
BRANCH  29  30
ATOM     30  C   UNL     1       9.523   3.687  23.683  0.00  0.00    +0.088 C 
BRANCH  30  31
ATOM     31  N   UNL     1       9.672   4.983  24.374  0.00  0.00    -0.298 NA
ATOM     32  C   UNL     1       8.623   5.152  25.411  0.00  0.00    +0.112 C 
ATOM     33  C   UNL     1       7.217   5.374  24.823  0.00  0.00    +0.175 C 
ATOM     34  O   UNL     1       7.189   6.485  23.917  0.00  0.00    -0.377 OA
ATOM     35  C   UNL     1       8.173   6.349  22.884  0.00  0.00    +0.175 C 
ATOM     36  C   UNL     1       9.578   6.154  23.473  0.00  0.00    +0.112 C 
ENDBRANCH  30  31
ENDBRANCH  29  30
ENDBRANCH  28  29
ENDBRANCH  27  28
ENDBRANCH   7  27
TORSDOF 8
ENDMDL
MODEL 5
REMARK VINA RESULT:      -7.0      1.571      1.943
REMARK  Name = 
REMARK  8 active torsions:
REMARK  status: ('A' for Active; 'I' for Inactive)
REMARK    1  A    between atoms: C_6  and  N_7
REMARK    2  A    between atoms: C_14  and  O_15
REMARK    3  A    between atoms: O_15  and  C_16
REMARK    4  A    between atoms: C_16  and  C_17
REMARK    5  A    between atoms: C_17  and  C_18
REMARK    6  A    between atoms: C_18  and  N_19
REMARK    7  A    between atoms: C_25  and  N_26
REMARK    8  A    between atoms: C_27  and  C_29
REMARK                            x       y       z     vdW  Elec       q    Type
REMARK                         _______ _______ _______ _____ _____    ______ ____
ROOT
ATOM      1  N   UNL     1       8.226   1.373  24.168  0.00  0.00    -0.299 N 
ATOM      2  H   UNL     1       7.436   1.170  24.764  0.00  0.00    +0.154 HD
ATOM      3  C   UNL     1       8.606   0.250  23.392  0.00  0.00    +0.134 A 
ATOM      4  C   UNL     1       8.135  -1.044  23.717  0.00  0.00    +0.042 A 
ATOM      5  C   UNL     1       8.607  -2.054  22.868  0.00  0.00    +0.080 A 
ATOM      6  C   UNL     1       8.214  -3.360  23.067  0.00  0.00    +0.076 A 
ATOM      7  C   UNL     1       7.351  -3.734  24.099  0.00  0.00    +0.144 A 
ATOM      8  C   UNL     1       6.870  -2.753  24.968  0.00  0.00    +0.077 A 
ATOM      9  N   UNL     1       9.427  -1.854  21.839  0.00  0.00    -0.235 NA
ATOM     10  C   UNL     1       9.818  -0.603  21.634  0.00  0.00    +0.223 A 
ATOM     11  C   UNL     1       7.247  -1.415  24.776  0.00  0.00    +0.040 A 
ATOM     12  N   UNL     1       9.453   0.446  22.363  0.00  0.00    -0.220 NA
ENDROOT
BRANCH   1  17
ATOM     13  F   UNL     1       8.245   6.697  22.533  0.00  0.00    -0.204 F 
ATOM     14  C   UNL     1       8.251   5.433  22.985  0.00  0.00    +0.142 A 
ATOM     15  C   UNL     1       7.174   4.609  22.681  0.00  0.00    +0.041 A 
ATOM     16  C   UNL     1       7.184   3.278  23.104  0.00  0.00    +0.026 A 
ATOM     17  C   UNL     1       8.266   2.748  23.820  0.00  0.00    +0.034 A 
ATOM     18  C   UNL     1       9.306   3.622  24.168  0.00  0.00    +0.046 A 
ATOM     19  C   UNL     1       9.314   4.949  23.735  0.00  0.00    +0.078 A 
ATOM     20 CL   UNL     1      10.654   5.961  24.116  0.00  0.00    -0.081 Cl
ENDBRANCH   1  17
BRANCH   8  21
ATOM     21  N   UNL     1       6.038  -3.154  26.036  0.00  0.00    -0.279 N 
ATOM     22  H   UNL     1       6.423  -3.884  26.626  0.00  0.00    +0.155 HD
ATOM     23  C   UNL     1       4.671  -2.977  26.051  0.00  0.00    +0.241 C 
ATOM     24  O   UNL     1       4.001  -2.491  25.149  0.00  0.00    -0.271 OA
BRANCH  23  25
ATOM     25  C   UNL     1       4.048  -3.527  27.289  0.00  0.00    +0.060 C 
ATOM     26  C   UNL     1       4.792  -4.141  28.217  0.00  0.00    +0.013 C 
ENDBRANCH  23  25
ENDBRANCH   8  21
BRANCH   7  27
ATOM     27  O   UNL     1       6.884  -5.020  24.277  0.00  0.00    -0.490 OA
BRANCH  27  28
ATOM     28  C   UNL     1       6.434  -5.642  23.065  0.00  0.00    +0.230 C 
BRANCH  28  29
ATOM     29  C   UNL     1       5.072  -5.103  22.669  0.00  0.00    +0.056 C 
BRANCH  29  30
ATOM     30  C   UNL     1       3.968  -5.691  23.556  0.00  0.00    +0.088 C 
BRANCH  30  31
ATOM     31  N   UNL     1       2.597  -5.508  23.041  0.00  0.00    -0.298 NA
ATOM     32  C   UNL     1       1.720  -4.903  24.075  0.00  0.00    +0.112 C 
ATOM     33  C   UNL     1       1.396  -5.864  25.234  0.00  0.00    +0.175 C 
ATOM     34  O   UNL     1       0.818  -7.090  24.762  0.00  0.00    -0.377 OA
ATOM     35  C   UNL     1       1.647  -7.719  23.777  0.00  0.00    +0.175 C 
ATOM     36  C   UNL     1       1.948  -6.767  22.610  0.00  0.00    +0.112 C 
ENDBRANCH  30  31
ENDBRANCH  29  30
ENDBRANCH  28  29
ENDBRANCH  27  28
ENDBRANCH   7  27
TORSDOF 8
ENDMDL
MODEL 6
REMARK VINA RESULT:      -7.0      1.990      3.816
REMARK  Name = 
REMARK  8 active torsions:
REMARK  status: ('A' for Active; 'I' for Inactive)
REMARK    1  A    between atoms: C_6  and  N_7
REMARK    2  A    between atoms: C_14  and  O_15
REMARK    3  A    between atoms: O_15  and  C_16
REMARK    4  A    between atoms: C_16  and  C_17
REMARK    5  A    between atoms: C_17  and  C_18
REMARK    6  A    between atoms: C_18  and  N_19
REMARK    7  A    between atoms: C_25  and  N_26
REMARK    8  A    between atoms: C_27  and  C_29
REMARK                            x       y       z     vdW  Elec       q    Type
REMARK                         _______ _______ _______ _____ _____    ______ ____
ROOT
ATOM      1  N   UNL     1       8.295   1.307  23.955  0.00  0.00    -0.299 N 
ATOM      2  H   UNL     1       8.595   0.594  23.304  0.00  0.00    +0.154 HD
ATOM      3  C   UNL     1       7.748   0.748  25.137  0.00  0.00    +0.134 A 
ATOM      4  C   UNL     1       7.372  -0.615  25.183  0.00  0.00    +0.042 A 
ATOM      5  C   UNL     1       6.834  -1.018  26.413  0.00  0.00    +0.080 A 
ATOM      6  C   UNL     1       6.439  -2.325  26.595  0.00  0.00    +0.076 A 
ATOM      7  C   UNL     1       6.548  -3.289  25.590  0.00  0.00    +0.144 A 
ATOM      8  C   UNL     1       7.071  -2.918  24.350  0.00  0.00    +0.077 A 
ATOM      9  N   UNL     1       6.675  -0.220  27.466  0.00  0.00    -0.235 NA
ATOM     10  C   UNL     1       7.048   1.043  27.308  0.00  0.00    +0.223 A 
ATOM     11  C   UNL     1       7.492  -1.594  24.147  0.00  0.00    +0.040 A 
ATOM     12  N   UNL     1       7.566   1.559  26.197  0.00  0.00    -0.220 NA
ENDROOT
BRANCH   1  17
ATOM     13  F   UNL     1      11.528   5.820  23.515  0.00  0.00    -0.204 F 
ATOM     14  C   UNL     1      10.713   4.756  23.577  0.00  0.00    +0.142 A 
ATOM     15  C   UNL     1      11.262   3.485  23.458  0.00  0.00    +0.041 A 
ATOM     16  C   UNL     1      10.435   2.365  23.566  0.00  0.00    +0.026 A 
ATOM     17  C   UNL     1       9.060   2.493  23.804  0.00  0.00    +0.034 A 
ATOM     18  C   UNL     1       8.526   3.789  23.853  0.00  0.00    +0.046 A 
ATOM     19  C   UNL     1       9.347   4.914  23.764  0.00  0.00    +0.078 A 
ATOM     20 CL   UNL     1       8.656   6.486  23.913  0.00  0.00    -0.081 Cl
ENDBRANCH   1  17
BRANCH   8  21
ATOM     21  N   UNL     1       7.128  -3.891  23.329  0.00  0.00    -0.279 N 
ATOM     22  H   UNL     1       8.055  -4.259  23.143  0.00  0.00    +0.155 HD
ATOM     23  C   UNL     1       6.181  -4.017  22.336  0.00  0.00    +0.241 C 
ATOM     24  O   UNL     1       5.201  -3.299  22.185  0.00  0.00    -0.271 OA
BRANCH  23  25
ATOM     25  C   UNL     1       6.518  -5.106  21.376  0.00  0.00    +0.060 C 
ATOM     26  C   UNL     1       6.785  -6.345  21.809  0.00  0.00    +0.013 C 
ENDBRANCH  23  25
ENDBRANCH   8  21
BRANCH   7  27
ATOM     27  O   UNL     1       6.228  -4.619  25.769  0.00  0.00    -0.490 OA
BRANCH  27  28
ATOM     28  C   UNL     1       6.061  -4.992  27.144  0.00  0.00    +0.230 C 
BRANCH  28  29
ATOM     29  C   UNL     1       5.178  -6.221  27.254  0.00  0.00    +0.056 C 
BRANCH  29  30
ATOM     30  C   UNL     1       4.738  -6.708  25.868  0.00  0.00    +0.088 C 
BRANCH  30  31
ATOM     31  N   UNL     1       3.276  -6.793  25.677  0.00  0.00    -0.298 NA
ATOM     32  C   UNL     1       2.949  -7.287  24.316  0.00  0.00    +0.112 C 
ATOM     33  C   UNL     1       3.258  -6.263  23.208  0.00  0.00    +0.175 C 
ATOM     34  O   UNL     1       2.601  -5.010  23.443  0.00  0.00    -0.377 OA
ATOM     35  C   UNL     1       2.910  -4.486  24.740  0.00  0.00    +0.175 C 
ATOM     36  C   UNL     1       2.576  -5.499  25.845  0.00  0.00    +0.112 C 
ENDBRANCH  30  31
ENDBRANCH  29  30
ENDBRANCH  28  29
ENDBRANCH  27  28
ENDBRANCH   7  27
TORSDOF 8
ENDMDL
MODEL 7
REMARK VINA RESULT:      -6.8      4.948      9.456
REMARK  Name = 
REMARK  8 active torsions:
REMARK  status: ('A' for Active; 'I' for Inactive)
REMARK    1  A    between atoms: C_6  and  N_7
REMARK    2  A    between atoms: C_14  and  O_15
REMARK    3  A    between atoms: O_15  and  C_16
REMARK    4  A    between atoms: C_16  and  C_17
REMARK    5  A    between atoms: C_17  and  C_18
REMARK    6  A    between atoms: C_18  and  N_19
REMARK    7  A    between atoms: C_25  and  N_26
REMARK    8  A    between atoms: C_27  and  C_29
REMARK                            x       y       z     vdW  Elec       q    Type
REMARK                         _______ _______ _______ _____ _____    ______ ____
ROOT
ATOM      1  N   UNL     1       6.931  -1.235  23.791  0.00  0.00    -0.299 N 
ATOM      2  H   UNL     1       6.372  -0.851  24.541  0.00  0.00    +0.154 HD
ATOM      3  C   UNL     1       7.494  -0.221  22.977  0.00  0.00    +0.134 A 
ATOM      4  C   UNL     1       7.010   1.107  23.042  0.00  0.00    +0.042 A 
ATOM      5  C   UNL     1       7.655   1.993  22.168  0.00  0.00    +0.080 A 
ATOM      6  C   UNL     1       7.286   3.321  22.140  0.00  0.00    +0.076 A 
ATOM      7  C   UNL     1       6.277   3.837  22.956  0.00  0.00    +0.144 A 
ATOM      8  C   UNL     1       5.609   2.978  23.830  0.00  0.00    +0.077 A 
ATOM      9  N   UNL     1       8.638   1.654  21.338  0.00  0.00    -0.235 NA
ATOM     10  C   UNL     1       9.004   0.379  21.350  0.00  0.00    +0.223 A 
ATOM     11  C   UNL     1       5.976   1.625  23.884  0.00  0.00    +0.040 A 
ATOM     12  N   UNL     1       8.474  -0.566  22.121  0.00  0.00    -0.220 NA
ENDROOT
BRANCH   1  17
ATOM     13  F   UNL     1       9.341  -6.011  25.341  0.00  0.00    -0.204 F 
ATOM     14  C   UNL     1       8.707  -4.891  24.961  0.00  0.00    +0.142 A 
ATOM     15  C   UNL     1       8.794  -3.765  25.772  0.00  0.00    +0.041 A 
ATOM     16  C   UNL     1       8.178  -2.577  25.369  0.00  0.00    +0.026 A 
ATOM     17  C   UNL     1       7.483  -2.491  24.156  0.00  0.00    +0.034 A 
ATOM     18  C   UNL     1       7.357  -3.661  23.393  0.00  0.00    +0.046 A 
ATOM     19  C   UNL     1       7.983  -4.847  23.777  0.00  0.00    +0.078 A 
ATOM     20 CL   UNL     1       7.870  -6.237  22.765  0.00  0.00    -0.081 Cl
ENDBRANCH   1  17
BRANCH   8  21
ATOM     21  N   UNL     1       4.557   3.504  24.612  0.00  0.00    -0.279 N 
ATOM     22  H   UNL     1       4.777   3.625  25.595  0.00  0.00    +0.155 HD
ATOM     23  C   UNL     1       3.227   3.425  24.261  0.00  0.00    +0.241 C 
ATOM     24  O   UNL     1       2.780   2.873  23.264  0.00  0.00    -0.271 OA
BRANCH  23  25
ATOM     25  C   UNL     1       2.338   4.035  25.291  0.00  0.00    +0.060 C 
ATOM     26  C   UNL     1       2.771   5.040  26.063  0.00  0.00    +0.013 C 
ENDBRANCH  23  25
ENDBRANCH   8  21
BRANCH   7  27
ATOM     27  O   UNL     1       5.939   5.174  23.000  0.00  0.00    -0.490 OA
BRANCH  27  28
ATOM     28  C   UNL     1       6.873   6.027  22.325  0.00  0.00    +0.230 C 
BRANCH  28  29
ATOM     29  C   UNL     1       7.746   6.755  23.331  0.00  0.00    +0.056 C 
BRANCH  29  30
ATOM     30  C   UNL     1       9.219   6.364  23.166  0.00  0.00    +0.088 C 
BRANCH  30  31
ATOM     31  N   UNL     1       9.844   5.784  24.371  0.00  0.00    -0.298 NA
ATOM     32  C   UNL     1      11.252   6.236  24.506  0.00  0.00    +0.112 C 
ATOM     33  C   UNL     1      12.191   5.623  23.451  0.00  0.00    +0.175 C 
ATOM     34  O   UNL     1      12.137   4.189  23.461  0.00  0.00    -0.377 OA
ATOM     35  C   UNL     1      10.795   3.710  23.309  0.00  0.00    +0.175 C 
ATOM     36  C   UNL     1       9.866   4.304  24.378  0.00  0.00    +0.112 C 
ENDBRANCH  30  31
ENDBRANCH  29  30
ENDBRANCH  28  29
ENDBRANCH  27  28
ENDBRANCH   7  27
TORSDOF 8
ENDMDL
MODEL 8
REMARK VINA RESULT:      -6.7      5.008      9.403
REMARK  Name = 
REMARK  8 active torsions:
REMARK  status: ('A' for Active; 'I' for Inactive)
REMARK    1  A    between atoms: C_6  and  N_7
REMARK    2  A    between atoms: C_14  and  O_15
REMARK    3  A    between atoms: O_15  and  C_16
REMARK    4  A    between atoms: C_16  and  C_17
REMARK    5  A    between atoms: C_17  and  C_18
REMARK    6  A    between atoms: C_18  and  N_19
REMARK    7  A    between atoms: C_25  and  N_26
REMARK    8  A    between atoms: C_27  and  C_29
REMARK                            x       y       z     vdW  Elec       q    Type
REMARK                         _______ _______ _______ _____ _____    ______ ____
ROOT
ATOM      1  N   UNL     1       3.895  -4.956  23.515  0.00  0.00    -0.299 N 
ATOM      2  H   UNL     1       3.690  -4.165  24.109  0.00  0.00    +0.154 HD
ATOM      3  C   UNL     1       5.234  -4.938  23.052  0.00  0.00    +0.134 A 
ATOM      4  C   UNL     1       6.015  -3.763  23.150  0.00  0.00    +0.042 A 
ATOM      5  C   UNL     1       7.313  -3.895  22.638  0.00  0.00    +0.080 A 
ATOM      6  C   UNL     1       8.182  -2.827  22.683  0.00  0.00    +0.076 A 
ATOM      7  C   UNL     1       7.824  -1.590  23.223  0.00  0.00    +0.144 A 
ATOM      8  C   UNL     1       6.535  -1.423  23.733  0.00  0.00    +0.077 A 
ATOM      9  N   UNL     1       7.803  -5.009  22.099  0.00  0.00    -0.235 NA
ATOM     10  C   UNL     1       6.979  -6.047  22.045  0.00  0.00    +0.223 A 
ATOM     11  C   UNL     1       5.637  -2.502  23.709  0.00  0.00    +0.040 A 
ATOM     12  N   UNL     1       5.725  -6.058  22.487  0.00  0.00    -0.220 NA
ENDROOT
BRANCH   1  17
ATOM     13  F   UNL     1       0.949  -9.435  25.025  0.00  0.00    -0.204 F 
ATOM     14  C   UNL     1       1.606  -8.331  24.640  0.00  0.00    +0.142 A 
ATOM     15  C   UNL     1       2.398  -7.665  25.568  0.00  0.00    +0.041 A 
ATOM     16  C   UNL     1       3.125  -6.540  25.173  0.00  0.00    +0.026 A 
ATOM     17  C   UNL     1       3.086  -6.073  23.853  0.00  0.00    +0.034 A 
ATOM     18  C   UNL     1       2.228  -6.726  22.956  0.00  0.00    +0.046 A 
ATOM     19  C   UNL     1       1.510  -7.861  23.337  0.00  0.00    +0.078 A 
ATOM     20 CL   UNL     1       0.533  -8.679  22.178  0.00  0.00    -0.081 Cl
ENDBRANCH   1  17
BRANCH   8  21
ATOM     21  N   UNL     1       6.171  -0.153  24.231  0.00  0.00    -0.279 N 
ATOM     22  H   UNL     1       6.213   0.599  23.552  0.00  0.00    +0.155 HD
ATOM     23  C   UNL     1       6.219   0.190  25.565  0.00  0.00    +0.241 C 
ATOM     24  O   UNL     1       6.606  -0.530  26.477  0.00  0.00    -0.271 OA
BRANCH  23  25
ATOM     25  C   UNL     1       5.812   1.605  25.796  0.00  0.00    +0.060 C 
ATOM     26  C   UNL     1       6.467   2.374  26.675  0.00  0.00    +0.013 C 
ENDBRANCH  23  25
ENDBRANCH   8  21
BRANCH   7  27
ATOM     27  O   UNL     1       8.696  -0.529  23.347  0.00  0.00    -0.490 OA
BRANCH  27  28
ATOM     28  C   UNL     1       9.752  -0.757  24.290  0.00  0.00    +0.230 C 
BRANCH  28  29
ATOM     29  C   UNL     1      10.416   0.555  24.667  0.00  0.00    +0.056 C 
BRANCH  29  30
ATOM     30  C   UNL     1       9.451   1.732  24.485  0.00  0.00    +0.088 C 
BRANCH  30  31
ATOM     31  N   UNL     1       9.663   2.521  23.255  0.00  0.00    -0.298 NA
ATOM     32  C   UNL     1      10.306   3.823  23.567  0.00  0.00    +0.112 C 
ATOM     33  C   UNL     1       9.371   4.802  24.301  0.00  0.00    +0.175 C 
ATOM     34  O   UNL     1       8.154   5.022  23.574  0.00  0.00    -0.377 OA
ATOM     35  C   UNL     1       7.488   3.789  23.273  0.00  0.00    +0.175 C 
ATOM     36  C   UNL     1       8.415   2.824  22.518  0.00  0.00    +0.112 C 
ENDBRANCH  30  31
ENDBRANCH  29  30
ENDBRANCH  28  29
ENDBRANCH  27  28
ENDBRANCH   7  27
TORSDOF 8
ENDMDL
MODEL 9
REMARK VINA RESULT:      -6.6      1.980      2.701
REMARK  Name = 
REMARK  8 active torsions:
REMARK  status: ('A' for Active; 'I' for Inactive)
REMARK    1  A    between atoms: C_6  and  N_7
REMARK    2  A    between atoms: C_14  and  O_15
REMARK    3  A    between atoms: O_15  and  C_16
REMARK    4  A    between atoms: C_16  and  C_17
REMARK    5  A    between atoms: C_17  and  C_18
REMARK    6  A    between atoms: C_18  and  N_19
REMARK    7  A    between atoms: C_25  and  N_26
REMARK    8  A    between atoms: C_27  and  C_29
REMARK                            x       y       z     vdW  Elec       q    Type
REMARK                         _______ _______ _______ _____ _____    ______ ____
ROOT
ATOM      1  N   UNL     1       9.230   1.265  24.448  0.00  0.00    -0.299 N 
ATOM      2  H   UNL     1       8.548   1.249  25.194  0.00  0.00    +0.154 HD
ATOM      3  C   UNL     1       9.038   0.202  23.531  0.00  0.00    +0.134 A 
ATOM      4  C   UNL     1       8.215  -0.899  23.866  0.00  0.00    +0.042 A 
ATOM      5  C   UNL     1       8.133  -1.877  22.865  0.00  0.00    +0.080 A 
ATOM      6  C   UNL     1       7.354  -2.996  23.060  0.00  0.00    +0.076 A 
ATOM      7  C   UNL     1       6.628  -3.211  24.233  0.00  0.00    +0.144 A 
ATOM      8  C   UNL     1       6.696  -2.261  25.253  0.00  0.00    +0.077 A 
ATOM      9  N   UNL     1       8.759  -1.811  21.693  0.00  0.00    -0.235 NA
ATOM     10  C   UNL     1       9.516  -0.741  21.489  0.00  0.00    +0.223 A 
ATOM     11  C   UNL     1       7.473  -1.106  25.072  0.00  0.00    +0.040 A 
ATOM     12  N   UNL     1       9.687   0.255  22.352  0.00  0.00    -0.220 NA
ENDROOT
BRANCH   1  17
ATOM     13  F   UNL     1      11.283   6.361  23.534  0.00  0.00    -0.204 F 
ATOM     14  C   UNL     1      10.738   5.149  23.722  0.00  0.00    +0.142 A 
ATOM     15  C   UNL     1      11.481   4.023  23.388  0.00  0.00    +0.041 A 
ATOM     16  C   UNL     1      10.947   2.752  23.619  0.00  0.00    +0.026 A 
ATOM     17  C   UNL     1       9.681   2.587  24.195  0.00  0.00    +0.034 A 
ATOM     18  C   UNL     1       8.930   3.742  24.459  0.00  0.00    +0.046 A 
ATOM     19  C   UNL     1       9.461   5.015  24.248  0.00  0.00    +0.078 A 
ATOM     20 CL   UNL     1       8.532   6.405  24.666  0.00  0.00    -0.081 Cl
ENDBRANCH   1  17
BRANCH   8  21
ATOM     21  N   UNL     1       5.996  -2.515  26.453  0.00  0.00    -0.279 N 
ATOM     22  H   UNL     1       6.312  -3.331  26.966  0.00  0.00    +0.155 HD
ATOM     23  C   UNL     1       4.722  -2.055  26.710  0.00  0.00    +0.241 C 
ATOM     24  O   UNL     1       4.026  -1.406  25.940  0.00  0.00    -0.271 OA
BRANCH  23  25
ATOM     25  C   UNL     1       4.221  -2.505  28.040  0.00  0.00    +0.060 C 
ATOM     26  C   UNL     1       2.959  -2.925  28.192  0.00  0.00    +0.013 C 
ENDBRANCH  23  25
ENDBRANCH   8  21
BRANCH   7  27
ATOM     27  O   UNL     1       5.784  -4.285  24.424  0.00  0.00    -0.490 OA
BRANCH  27  28
ATOM     28  C   UNL     1       4.681  -4.322  23.509  0.00  0.00    +0.230 C 
BRANCH  28  29
ATOM     29  C   UNL     1       4.508  -5.720  22.944  0.00  0.00    +0.056 C 
BRANCH  29  30
ATOM     30  C   UNL     1       3.275  -6.406  23.542  0.00  0.00    +0.088 C 
BRANCH  30  31
ATOM     31  N   UNL     1       3.572  -7.546  24.433  0.00  0.00    -0.298 NA
ATOM     32  C   UNL     1       2.328  -8.272  24.793  0.00  0.00    +0.112 C 
ATOM     33  C   UNL     1       1.414  -7.478  25.745  0.00  0.00    +0.175 C 
ATOM     34  O   UNL     1       2.107  -7.078  26.936  0.00  0.00    -0.377 OA
ATOM     35  C   UNL     1       3.304  -6.351  26.632  0.00  0.00    +0.175 C 
ATOM     36  C   UNL     1       4.225  -7.156  25.703  0.00  0.00    +0.112 C 
ENDBRANCH  30  31
ENDBRANCH  29  30
ENDBRANCH  28  29
ENDBRANCH  27  28
ENDBRANCH   7  27
TORSDOF 8
ENDMDL
