MODEL 1
REMARK VINA RESULT:      -7.6      0.000      0.000
REMARK  Name = 
REMARK  10 active torsions:
REMARK  status: ('A' for Active; 'I' for Inactive)
REMARK    1  A    between atoms: C_1  and  C_2
REMARK    2  A    between atoms: C_6  and  O_8
REMARK    3  A    between atoms: C_10  and  C_12
REMARK    4  A    between atoms: N_14  and  C_15
REMARK    5  A    between atoms: C_15  and  C_17
REMARK    6  A    between atoms: C_15  and  C_24
REMARK    7  A    between atoms: C_17  and  C_18
REMARK    8  A    between atoms: C_18  and  C_19
REMARK    9  A    between atoms: C_19  and  N_20
REMARK   10  A    between atoms: C_24  and  C_26
REMARK                            x       y       z     vdW  Elec       q    Type
REMARK                         _______ _______ _______ _____ _____    ______ ____
ROOT
ATOM      1  C   UNL     1       7.698  -4.284  23.769  0.00  0.00    +0.146 C 
ENDROOT
BRANCH   1   3
ATOM      2  C   UNL     1       5.858  -3.928  25.427  0.00  0.00    +0.234 C 
ATOM      3  N   UNL     1       7.025  -4.544  25.053  0.00  0.00    -0.304 N 
ATOM      4  H   UNL     1       7.452  -5.209  25.696  0.00  0.00    +0.149 HD
ATOM      5  O   UNL     1       5.263  -3.144  24.687  0.00  0.00    -0.274 OA
BRANCH   2   9
ATOM      6  C   UNL     1       2.499  -3.952  26.175  0.00  0.00    +0.109 C 
ATOM      7  C   UNL     1       3.029  -5.181  26.872  0.00  0.00    +0.213 C 
ATOM      8  N   UNL     1       4.402  -5.306  26.970  0.00  0.00    -0.288 N 
ATOM      9  C   UNL     1       5.378  -4.213  26.863  0.00  0.00    +0.164 C 
ATOM     10  C   UNL     1       6.576  -4.656  27.717  0.00  0.00    +0.065 C 
ATOM     11  C   UNL     1       6.102  -5.888  28.485  0.00  0.00    +0.134 C 
ATOM     12  C   UNL     1       4.994  -6.465  27.616  0.00  0.00    +0.140 C 
ATOM     13  O   UNL     1       2.260  -6.047  27.276  0.00  0.00    -0.276 OA
BRANCH  11  14
ATOM     14  O   UNL     1       7.168  -6.798  28.704  0.00  0.00    -0.390 OA
ATOM     15  H   UNL     1       6.825  -7.707  28.650  0.00  0.00    +0.210 HD
ENDBRANCH  11  14
ENDBRANCH   2   9
ENDBRANCH   1   3
BRANCH   1  16
ATOM     16  C   UNL     1       9.039  -3.649  24.180  0.00  0.00    +0.208 C 
ATOM     17  O   UNL     1       9.850  -4.325  24.826  0.00  0.00    -0.288 OA
BRANCH  16  18
ATOM     18  C   UNL     1       9.253  -2.260  23.798  0.00  0.00    +0.147 A 
ATOM     19  S   UNL     1       8.924  -1.742  22.200  0.00  0.00    -0.064 S 
ATOM     20  C   UNL     1       9.499  -0.169  22.595  0.00  0.00    +0.040 A 
ATOM     21  C   UNL     1       9.649   0.951  21.763  0.00  0.00    +0.017 A 
ATOM     22  C   UNL     1      10.191   2.115  22.315  0.00  0.00    +0.001 A 
ATOM     23  C   UNL     1      10.536   2.173  23.662  0.00  0.00    +0.002 A 
ATOM     24  C   UNL     1      10.351   1.060  24.490  0.00  0.00    +0.029 A 
ATOM     25  C   UNL     1       9.843  -0.137  23.948  0.00  0.00    +0.079 A 
ATOM     26  N   UNL     1       9.671  -1.332  24.631  0.00  0.00    -0.236 NA
ENDBRANCH  16  18
ENDBRANCH   1  16
BRANCH   1  27
ATOM     27  C   UNL     1       7.863  -5.605  22.982  0.00  0.00    +0.033 C 
BRANCH  27  28
ATOM     28  C   UNL     1       7.227  -5.658  21.574  0.00  0.00    +0.039 C 
BRANCH  28  29
ATOM     29  C   UNL     1       5.733  -5.371  21.604  0.00  0.00    +0.196 C 
BRANCH  29  30
ATOM     30  N   UNL     1       4.943  -6.384  22.280  0.00  0.00    -0.276 N 
ATOM     31  H   UNL     1       5.492  -7.112  22.729  0.00  0.00    +0.258 HD
ATOM     32  C   UNL     1       3.875  -6.016  23.030  0.00  0.00    +0.376 C 
ATOM     33  N   UNL     1       3.264  -4.890  23.047  0.00  0.00    -0.130 NA
ATOM     34  H   UNL     1       3.677  -4.247  22.377  0.00  0.00    +0.306 HD
ATOM     35  N   UNL     1       3.449  -6.996  23.844  0.00  0.00    -0.289 N 
ATOM     36  H   UNL     1       2.564  -6.717  24.254  0.00  0.00    +0.255 HD
ATOM     37  H   UNL     1       3.350  -7.887  23.370  0.00  0.00    +0.255 HD
ENDBRANCH  29  30
ENDBRANCH  28  29
ENDBRANCH  27  28
ENDBRANCH   1  27
TORSDOF 9
ENDMDL
MODEL 2
REMARK VINA RESULT:      -7.5      2.525      6.911
REMARK  Name = 
REMARK  10 active torsions:
REMARK  status: ('A' for Active; 'I' for Inactive)
REMARK    1  A    between atoms: C_1  and  C_2
REMARK    2  A    between atoms: C_6  and  O_8
REMARK    3  A    between atoms: C_10  and  C_12
REMARK    4  A    between atoms: N_14  and  C_15
REMARK    5  A    between atoms: C_15  and  C_17
REMARK    6  A    between atoms: C_15  and  C_24
REMARK    7  A    between atoms: C_17  and  C_18
REMARK    8  A    between atoms: C_18  and  C_19
REMARK    9  A    between atoms: C_19  and  N_20
REMARK   10  A    between atoms: C_24  and  C_26
REMARK                            x       y       z     vdW  Elec       q    Type
REMARK                         _______ _______ _______ _____ _____    ______ ____
ROOT
ATOM      1  C   UNL     1       7.172  -0.968  24.433  0.00  0.00    +0.146 C 
ENDROOT
BRANCH   1   3
ATOM      2  C   UNL     1       8.062  -3.183  23.682  0.00  0.00    +0.234 C 
ATOM      3  N   UNL     1       7.194  -2.441  24.441  0.00  0.00    -0.304 N 
ATOM      4  H   UNL     1       6.526  -2.931  25.034  0.00  0.00    +0.149 HD
ATOM      5  O   UNL     1       8.923  -2.663  22.971  0.00  0.00    -0.274 OA
BRANCH   2   9
ATOM      6  C   UNL     1       8.192  -4.920  26.651  0.00  0.00    +0.109 C 
ATOM      7  C   UNL     1       6.968  -5.474  25.966  0.00  0.00    +0.213 C 
ATOM      8  N   UNL     1       6.793  -5.155  24.633  0.00  0.00    -0.288 N 
ATOM      9  C   UNL     1       7.843  -4.708  23.707  0.00  0.00    +0.164 C 
ATOM     10  C   UNL     1       7.383  -5.175  22.318  0.00  0.00    +0.065 C 
ATOM     11  C   UNL     1       6.196  -6.103  22.567  0.00  0.00    +0.134 C 
ATOM     12  C   UNL     1       5.633  -5.638  23.902  0.00  0.00    +0.140 C 
ATOM     13  O   UNL     1       6.145  -6.130  26.597  0.00  0.00    -0.276 OA
BRANCH  11  14
ATOM     14  O   UNL     1       5.253  -6.025  21.510  0.00  0.00    -0.390 OA
ATOM     15  H   UNL     1       5.636  -5.506  20.780  0.00  0.00    +0.210 HD
ENDBRANCH  11  14
ENDBRANCH   2   9
ENDBRANCH   1   3
BRANCH   1  16
ATOM     16  C   UNL     1       5.765  -0.620  24.952  0.00  0.00    +0.208 C 
ATOM     17  O   UNL     1       5.297   0.499  24.709  0.00  0.00    -0.288 OA
BRANCH  16  18
ATOM     18  C   UNL     1       5.081  -1.641  25.734  0.00  0.00    +0.147 A 
ATOM     19  S   UNL     1       5.351  -1.764  27.420  0.00  0.00    -0.064 S 
ATOM     20  C   UNL     1       4.330  -3.148  27.479  0.00  0.00    +0.040 A 
ATOM     21  C   UNL     1       4.031  -3.978  28.571  0.00  0.00    +0.017 A 
ATOM     22  C   UNL     1       3.204  -5.083  28.351  0.00  0.00    +0.001 A 
ATOM     23  C   UNL     1       2.661  -5.330  27.094  0.00  0.00    +0.002 A 
ATOM     24  C   UNL     1       2.940  -4.477  26.020  0.00  0.00    +0.029 A 
ATOM     25  C   UNL     1       3.803  -3.378  26.207  0.00  0.00    +0.079 A 
ATOM     26  N   UNL     1       4.219  -2.492  25.224  0.00  0.00    -0.236 NA
ENDBRANCH  16  18
ENDBRANCH   1  16
BRANCH   1  27
ATOM     27  C   UNL     1       8.307  -0.419  25.328  0.00  0.00    +0.033 C 
BRANCH  27  28
ATOM     28  C   UNL     1       8.802   1.012  25.018  0.00  0.00    +0.039 C 
BRANCH  28  29
ATOM     29  C   UNL     1      10.127   1.016  24.269  0.00  0.00    +0.196 C 
BRANCH  29  30
ATOM     30  N   UNL     1      10.172   0.119  23.129  0.00  0.00    -0.276 N 
ATOM     31  H   UNL     1       9.828  -0.818  23.320  0.00  0.00    +0.258 HD
ATOM     32  C   UNL     1       9.786   0.562  21.908  0.00  0.00    +0.376 C 
ATOM     33  N   UNL     1       9.613   1.771  21.517  0.00  0.00    -0.130 NA
ATOM     34  H   UNL     1       9.826   2.424  22.267  0.00  0.00    +0.306 HD
ATOM     35  N   UNL     1       9.567  -0.437  21.037  0.00  0.00    -0.289 N 
ATOM     36  H   UNL     1       9.440  -0.041  20.112  0.00  0.00    +0.255 HD
ATOM     37  H   UNL     1      10.316  -1.121  21.025  0.00  0.00    +0.255 HD
ENDBRANCH  29  30
ENDBRANCH  28  29
ENDBRANCH  27  28
ENDBRANCH   1  27
TORSDOF 9
ENDMDL
MODEL 3
REMARK VINA RESULT:      -7.5      3.506      7.682
REMARK  Name = 
REMARK  10 active torsions:
REMARK  status: ('A' for Active; 'I' for Inactive)
REMARK    1  A    between atoms: C_1  and  C_2
REMARK    2  A    between atoms: C_6  and  O_8
REMARK    3  A    between atoms: C_10  and  C_12
REMARK    4  A    between atoms: N_14  and  C_15
REMARK    5  A    between atoms: C_15  and  C_17
REMARK    6  A    between atoms: C_15  and  C_24
REMARK    7  A    between atoms: C_17  and  C_18
REMARK    8  A    between atoms: C_18  and  C_19
REMARK    9  A    between atoms: C_19  and  N_20
REMARK   10  A    between atoms: C_24  and  C_26
REMARK                            x       y       z     vdW  Elec       q    Type
REMARK                         _______ _______ _______ _____ _____    ______ ____
ROOT
ATOM      1  C   UNL     1       6.862  -0.020  26.015  0.00  0.00    +0.146 C 
ENDROOT
BRANCH   1   3
ATOM      2  C   UNL     1       7.387   1.841  24.427  0.00  0.00    +0.234 C 
ATOM      3  N   UNL     1       7.552   0.545  24.843  0.00  0.00    -0.304 N 
ATOM      4  H   UNL     1       8.176  -0.061  24.311  0.00  0.00    +0.149 HD
ATOM      5  O   UNL     1       6.681   2.643  25.040  0.00  0.00    -0.274 OA
BRANCH   2   9
ATOM      6  C   UNL     1       9.405   4.621  24.221  0.00  0.00    +0.109 C 
ATOM      7  C   UNL     1      10.194   3.554  23.504  0.00  0.00    +0.213 C 
ATOM      8  N   UNL     1       9.530   2.381  23.195  0.00  0.00    -0.288 N 
ATOM      9  C   UNL     1       8.073   2.214  23.098  0.00  0.00    +0.164 C 
ATOM     10  C   UNL     1       7.864   1.078  22.086  0.00  0.00    +0.065 C 
ATOM     11  C   UNL     1       9.233   0.827  21.457  0.00  0.00    +0.134 C 
ATOM     12  C   UNL     1      10.220   1.298  22.516  0.00  0.00    +0.140 C 
ATOM     13  O   UNL     1      11.387   3.716  23.265  0.00  0.00    -0.276 OA
BRANCH  11  14
ATOM     14  O   UNL     1       9.397  -0.539  21.113  0.00  0.00    -0.390 OA
ATOM     15  H   UNL     1       8.624  -1.041  21.426  0.00  0.00    +0.210 HD
ENDBRANCH  11  14
ENDBRANCH   2   9
ENDBRANCH   1   3
BRANCH   1  16
ATOM     16  C   UNL     1       5.553  -0.584  25.434  0.00  0.00    +0.208 C 
ATOM     17  O   UNL     1       4.496   0.027  25.633  0.00  0.00    -0.288 OA
BRANCH  16  18
ATOM     18  C   UNL     1       5.646  -1.840  24.701  0.00  0.00    +0.147 A 
ATOM     19  S   UNL     1       5.015  -3.282  25.373  0.00  0.00    -0.064 S 
ATOM     20  C   UNL     1       5.599  -4.166  24.018  0.00  0.00    +0.040 A 
ATOM     21  C   UNL     1       5.557  -5.549  23.780  0.00  0.00    +0.017 A 
ATOM     22  C   UNL     1       6.152  -6.036  22.613  0.00  0.00    +0.001 A 
ATOM     23  C   UNL     1       6.735  -5.169  21.693  0.00  0.00    +0.002 A 
ATOM     24  C   UNL     1       6.742  -3.789  21.925  0.00  0.00    +0.029 A 
ATOM     25  C   UNL     1       6.183  -3.277  23.113  0.00  0.00    +0.079 A 
ATOM     26  N   UNL     1       6.178  -1.946  23.504  0.00  0.00    -0.236 NA
ENDBRANCH  16  18
ENDBRANCH   1  16
BRANCH   1  27
ATOM     27  C   UNL     1       7.749  -1.096  26.682  0.00  0.00    +0.033 C 
BRANCH  27  28
ATOM     28  C   UNL     1       9.077  -1.439  25.969  0.00  0.00    +0.039 C 
BRANCH  28  29
ATOM     29  C   UNL     1       9.070  -2.840  25.376  0.00  0.00    +0.196 C 
BRANCH  29  30
ATOM     30  N   UNL     1       8.537  -3.861  26.259  0.00  0.00    -0.276 N 
ATOM     31  H   UNL     1       7.555  -3.741  26.492  0.00  0.00    +0.258 HD
ATOM     32  C   UNL     1       8.855  -5.163  26.053  0.00  0.00    +0.376 C 
ATOM     33  N   UNL     1       9.792  -5.649  25.326  0.00  0.00    -0.130 NA
ATOM     34  H   UNL     1      10.332  -4.904  24.892  0.00  0.00    +0.306 HD
ATOM     35  N   UNL     1       8.049  -6.006  26.719  0.00  0.00    -0.289 N 
ATOM     36  H   UNL     1       8.433  -6.943  26.653  0.00  0.00    +0.255 HD
ATOM     37  H   UNL     1       7.923  -5.747  27.691  0.00  0.00    +0.255 HD
ENDBRANCH  29  30
ENDBRANCH  28  29
ENDBRANCH  27  28
ENDBRANCH   1  27
TORSDOF 9
ENDMDL
MODEL 4
REMARK VINA RESULT:      -7.3      3.664      7.284
REMARK  Name = 
REMARK  10 active torsions:
REMARK  status: ('A' for Active; 'I' for Inactive)
REMARK    1  A    between atoms: C_1  and  C_2
REMARK    2  A    between atoms: C_6  and  O_8
REMARK    3  A    between atoms: C_10  and  C_12
REMARK    4  A    between atoms: N_14  and  C_15
REMARK    5  A    between atoms: C_15  and  C_17
REMARK    6  A    between atoms: C_15  and  C_24
REMARK    7  A    between atoms: C_17  and  C_18
REMARK    8  A    between atoms: C_18  and  C_19
REMARK    9  A    between atoms: C_19  and  N_20
REMARK   10  A    between atoms: C_24  and  C_26
REMARK                            x       y       z     vdW  Elec       q    Type
REMARK                         _______ _______ _______ _____ _____    ______ ____
ROOT
ATOM      1  C   UNL     1      10.037  -0.455  24.542  0.00  0.00    +0.146 C 
ENDROOT
BRANCH   1   3
ATOM      2  C   UNL     1       8.159  -0.122  26.161  0.00  0.00    +0.234 C 
ATOM      3  N   UNL     1       8.728   0.095  24.933  0.00  0.00    -0.304 N 
ATOM      4  H   UNL     1       8.218   0.657  24.253  0.00  0.00    +0.149 HD
ATOM      5  O   UNL     1       8.731  -0.758  27.048  0.00  0.00    -0.274 OA
BRANCH   2   9
ATOM      6  C   UNL     1       7.223   1.442  29.080  0.00  0.00    +0.109 C 
ATOM      7  C   UNL     1       6.652   2.329  28.001  0.00  0.00    +0.213 C 
ATOM      8  N   UNL     1       6.642   1.827  26.713  0.00  0.00    -0.288 N 
ATOM      9  C   UNL     1       6.722   0.408  26.340  0.00  0.00    +0.164 C 
ATOM     10  C   UNL     1       5.974   0.300  25.003  0.00  0.00    +0.065 C 
ATOM     11  C   UNL     1       5.275   1.643  24.811  0.00  0.00    +0.134 C 
ATOM     12  C   UNL     1       6.121   2.621  25.614  0.00  0.00    +0.140 C 
ATOM     13  O   UNL     1       6.271   3.465  28.266  0.00  0.00    -0.276 OA
BRANCH  11  14
ATOM     14  O   UNL     1       5.188   1.985  23.436  0.00  0.00    -0.390 OA
ATOM     15  H   UNL     1       4.331   2.417  23.270  0.00  0.00    +0.210 HD
ENDBRANCH  11  14
ENDBRANCH   2   9
ENDBRANCH   1   3
BRANCH   1  16
ATOM     16  C   UNL     1       9.716  -1.334  23.319  0.00  0.00    +0.208 C 
ATOM     17  O   UNL     1      10.382  -1.192  22.287  0.00  0.00    -0.288 OA
BRANCH  16  18
ATOM     18  C   UNL     1       8.608  -2.270  23.456  0.00  0.00    +0.147 A 
ATOM     19  S   UNL     1       8.763  -3.655  24.449  0.00  0.00    -0.064 S 
ATOM     20  C   UNL     1       7.191  -4.168  23.976  0.00  0.00    +0.040 A 
ATOM     21  C   UNL     1       6.508  -5.347  24.312  0.00  0.00    +0.017 A 
ATOM     22  C   UNL     1       5.244  -5.559  23.753  0.00  0.00    +0.001 A 
ATOM     23  C   UNL     1       4.664  -4.609  22.918  0.00  0.00    +0.002 A 
ATOM     24  C   UNL     1       5.341  -3.422  22.616  0.00  0.00    +0.029 A 
ATOM     25  C   UNL     1       6.632  -3.203  23.136  0.00  0.00    +0.079 A 
ATOM     26  N   UNL     1       7.443  -2.109  22.869  0.00  0.00    -0.236 NA
ENDBRANCH  16  18
ENDBRANCH   1  16
BRANCH   1  27
ATOM     27  C   UNL     1      11.020   0.695  24.226  0.00  0.00    +0.033 C 
BRANCH  27  28
ATOM     28  C   UNL     1      10.459   2.132  24.323  0.00  0.00    +0.039 C 
BRANCH  28  29
ATOM     29  C   UNL     1      10.511   2.864  22.990  0.00  0.00    +0.196 C 
BRANCH  29  30
ATOM     30  N   UNL     1      10.116   2.057  21.850  0.00  0.00    -0.276 N 
ATOM     31  H   UNL     1      10.659   1.206  21.731  0.00  0.00    +0.258 HD
ATOM     32  C   UNL     1       8.801   1.861  21.586  0.00  0.00    +0.376 C 
ATOM     33  N   UNL     1       7.791   2.501  22.050  0.00  0.00    -0.130 NA
ATOM     34  H   UNL     1       8.094   3.245  22.674  0.00  0.00    +0.306 HD
ATOM     35  N   UNL     1       8.587   0.852  20.726  0.00  0.00    -0.289 N 
ATOM     36  H   UNL     1       7.611   0.860  20.450  0.00  0.00    +0.255 HD
ATOM     37  H   UNL     1       9.183   0.899  19.907  0.00  0.00    +0.255 HD
ENDBRANCH  29  30
ENDBRANCH  28  29
ENDBRANCH  27  28
ENDBRANCH   1  27
TORSDOF 9
ENDMDL
MODEL 5
REMARK VINA RESULT:      -7.2      3.562      7.692
REMARK  Name = 
REMARK  10 active torsions:
REMARK  status: ('A' for Active; 'I' for Inactive)
REMARK    1  A    between atoms: C_1  and  C_2
REMARK    2  A    between atoms: C_6  and  O_8
REMARK    3  A    between atoms: C_10  and  C_12
REMARK    4  A    between atoms: N_14  and  C_15
REMARK    5  A    between atoms: C_15  and  C_17
REMARK    6  A    between atoms: C_15  and  C_24
REMARK    7  A    between atoms: C_17  and  C_18
REMARK    8  A    between atoms: C_18  and  C_19
REMARK    9  A    between atoms: C_19  and  N_20
REMARK   10  A    between atoms: C_24  and  C_26
REMARK                            x       y       z     vdW  Elec       q    Type
REMARK                         _______ _______ _______ _____ _____    ______ ____
ROOT
ATOM      1  C   UNL     1       6.786  -0.086  26.266  0.00  0.00    +0.146 C 
ENDROOT
BRANCH   1   3
ATOM      2  C   UNL     1       7.598   2.147  25.482  0.00  0.00    +0.234 C 
ATOM      3  N   UNL     1       7.335   0.823  25.245  0.00  0.00    -0.304 N 
ATOM      4  H   UNL     1       7.520   0.449  24.315  0.00  0.00    +0.149 HD
ATOM      5  O   UNL     1       7.438   2.662  26.589  0.00  0.00    -0.274 OA
BRANCH   2   9
ATOM      6  C   UNL     1      10.646   1.593  23.982  0.00  0.00    +0.109 C 
ATOM      7  C   UNL     1       9.690   1.697  22.820  0.00  0.00    +0.213 C 
ATOM      8  N   UNL     1       8.421   2.175  23.089  0.00  0.00    -0.288 N 
ATOM      9  C   UNL     1       8.031   2.977  24.257  0.00  0.00    +0.164 C 
ATOM     10  C   UNL     1       6.846   3.831  23.782  0.00  0.00    +0.065 C 
ATOM     11  C   UNL     1       6.788   3.652  22.267  0.00  0.00    +0.134 C 
ATOM     12  C   UNL     1       7.436   2.295  22.028  0.00  0.00    +0.140 C 
ATOM     13  O   UNL     1      10.024   1.316  21.702  0.00  0.00    -0.276 OA
BRANCH  11  14
ATOM     14  O   UNL     1       5.453   3.721  21.793  0.00  0.00    -0.390 OA
ATOM     15  H   UNL     1       5.464   3.815  20.824  0.00  0.00    +0.210 HD
ENDBRANCH  11  14
ENDBRANCH   2   9
ENDBRANCH   1   3
BRANCH   1  16
ATOM     16  C   UNL     1       5.481  -0.603  25.634  0.00  0.00    +0.208 C 
ATOM     17  O   UNL     1       4.430   0.017  25.836  0.00  0.00    -0.288 OA
BRANCH  16  18
ATOM     18  C   UNL     1       5.571  -1.828  24.851  0.00  0.00    +0.147 A 
ATOM     19  S   UNL     1       5.045  -3.317  25.512  0.00  0.00    -0.064 S 
ATOM     20  C   UNL     1       5.565  -4.130  24.087  0.00  0.00    +0.040 A 
ATOM     21  C   UNL     1       5.560  -5.504  23.803  0.00  0.00    +0.017 A 
ATOM     22  C   UNL     1       6.089  -5.926  22.580  0.00  0.00    +0.001 A 
ATOM     23  C   UNL     1       6.570  -5.006  21.654  0.00  0.00    +0.002 A 
ATOM     24  C   UNL     1       6.540  -3.635  21.935  0.00  0.00    +0.029 A 
ATOM     25  C   UNL     1       6.049  -3.187  23.178  0.00  0.00    +0.079 A 
ATOM     26  N   UNL     1       6.020  -1.871  23.616  0.00  0.00    -0.236 NA
ENDBRANCH  16  18
ENDBRANCH   1  16
BRANCH   1  27
ATOM     27  C   UNL     1       7.803  -1.208  26.575  0.00  0.00    +0.033 C 
BRANCH  27  28
ATOM     28  C   UNL     1       8.965  -1.387  25.572  0.00  0.00    +0.039 C 
BRANCH  28  29
ATOM     29  C   UNL     1       9.159  -2.841  25.167  0.00  0.00    +0.196 C 
BRANCH  29  30
ATOM     30  N   UNL     1       8.652  -3.803  26.127  0.00  0.00    -0.276 N 
ATOM     31  H   UNL     1       7.690  -3.642  26.413  0.00  0.00    +0.258 HD
ATOM     32  C   UNL     1       8.920  -5.122  25.966  0.00  0.00    +0.376 C 
ATOM     33  N   UNL     1       9.796  -5.670  25.207  0.00  0.00    -0.130 NA
ATOM     34  H   UNL     1      10.330  -4.963  24.708  0.00  0.00    +0.306 HD
ATOM     35  N   UNL     1       8.133  -5.909  26.718  0.00  0.00    -0.289 N 
ATOM     36  H   UNL     1       8.485  -6.859  26.674  0.00  0.00    +0.255 HD
ATOM     37  H   UNL     1       8.074  -5.602  27.682  0.00  0.00    +0.255 HD
ENDBRANCH  29  30
ENDBRANCH  28  29
ENDBRANCH  27  28
ENDBRANCH   1  27
TORSDOF 9
ENDMDL
MODEL 6
REMARK VINA RESULT:      -7.1      2.419      6.267
REMARK  Name = 
REMARK  10 active torsions:
REMARK  status: ('A' for Active; 'I' for Inactive)
REMARK    1  A    between atoms: C_1  and  C_2
REMARK    2  A    between atoms: C_6  and  O_8
REMARK    3  A    between atoms: C_10  and  C_12
REMARK    4  A    between atoms: N_14  and  C_15
REMARK    5  A    between atoms: C_15  and  C_17
REMARK    6  A    between atoms: C_15  and  C_24
REMARK    7  A    between atoms: C_17  and  C_18
REMARK    8  A    between atoms: C_18  and  C_19
REMARK    9  A    between atoms: C_19  and  N_20
REMARK   10  A    between atoms: C_24  and  C_26
REMARK                            x       y       z     vdW  Elec       q    Type
REMARK                         _______ _______ _______ _____ _____    ______ ____
ROOT
ATOM      1  C   UNL     1       9.949  -2.129  23.284  0.00  0.00    +0.146 C 
ENDROOT
BRANCH   1   3
ATOM      2  C   UNL     1       9.390  -3.607  25.224  0.00  0.00    +0.234 C 
ATOM      3  N   UNL     1       9.292  -2.404  24.573  0.00  0.00    -0.304 N 
ATOM      4  H   UNL     1       8.731  -1.666  24.996  0.00  0.00    +0.149 HD
ATOM      5  O   UNL     1      10.080  -4.532  24.795  0.00  0.00    -0.274 OA
BRANCH   2   9
ATOM      6  C   UNL     1       8.273  -0.834  26.931  0.00  0.00    +0.109 C 
ATOM      7  C   UNL     1       7.053  -1.718  26.847  0.00  0.00    +0.213 C 
ATOM      8  N   UNL     1       7.247  -3.024  26.439  0.00  0.00    -0.288 N 
ATOM      9  C   UNL     1       8.517  -3.762  26.485  0.00  0.00    +0.164 C 
ATOM     10  C   UNL     1       8.120  -5.237  26.646  0.00  0.00    +0.065 C 
ATOM     11  C   UNL     1       6.623  -5.232  26.944  0.00  0.00    +0.134 C 
ATOM     12  C   UNL     1       6.124  -3.937  26.320  0.00  0.00    +0.140 C 
ATOM     13  O   UNL     1       5.937  -1.262  27.081  0.00  0.00    -0.276 OA
BRANCH  11  14
ATOM     14  O   UNL     1       5.989  -6.385  26.413  0.00  0.00    -0.390 OA
ATOM     15  H   UNL     1       5.051  -6.184  26.247  0.00  0.00    +0.210 HD
ENDBRANCH  11  14
ENDBRANCH   2   9
ENDBRANCH   1   3
BRANCH   1  16
ATOM     16  C   UNL     1       8.775  -1.913  22.312  0.00  0.00    +0.208 C 
ATOM     17  O   UNL     1       8.858  -1.018  21.462  0.00  0.00    -0.288 OA
BRANCH  16  18
ATOM     18  C   UNL     1       7.614  -2.774  22.483  0.00  0.00    +0.147 A 
ATOM     19  S   UNL     1       6.088  -2.102  22.874  0.00  0.00    -0.064 S 
ATOM     20  C   UNL     1       5.419  -3.683  22.971  0.00  0.00    +0.040 A 
ATOM     21  C   UNL     1       4.120  -4.072  23.335  0.00  0.00    +0.017 A 
ATOM     22  C   UNL     1       3.831  -5.438  23.388  0.00  0.00    +0.001 A 
ATOM     23  C   UNL     1       4.792  -6.385  23.049  0.00  0.00    +0.002 A 
ATOM     24  C   UNL     1       6.074  -5.985  22.655  0.00  0.00    +0.029 A 
ATOM     25  C   UNL     1       6.402  -4.615  22.633  0.00  0.00    +0.079 A 
ATOM     26  N   UNL     1       7.646  -4.080  22.329  0.00  0.00    -0.236 NA
ENDBRANCH  16  18
ENDBRANCH   1  16
BRANCH   1  27
ATOM     27  C   UNL     1      10.870  -0.894  23.415  0.00  0.00    +0.033 C 
BRANCH  27  28
ATOM     28  C   UNL     1      10.492   0.142  24.498  0.00  0.00    +0.039 C 
BRANCH  28  29
ATOM     29  C   UNL     1      10.610   1.573  23.994  0.00  0.00    +0.196 C 
BRANCH  29  30
ATOM     30  N   UNL     1      10.116   1.775  22.644  0.00  0.00    -0.276 N 
ATOM     31  H   UNL     1      10.331   1.017  22.002  0.00  0.00    +0.258 HD
ATOM     32  C   UNL     1       8.867   2.266  22.450  0.00  0.00    +0.376 C 
ATOM     33  N   UNL     1       8.098   2.845  23.297  0.00  0.00    -0.130 NA
ATOM     34  H   UNL     1       8.557   2.924  24.202  0.00  0.00    +0.306 HD
ATOM     35  N   UNL     1       8.429   2.092  21.193  0.00  0.00    -0.289 N 
ATOM     36  H   UNL     1       7.568   2.616  21.072  0.00  0.00    +0.255 HD
ATOM     37  H   UNL     1       9.110   2.373  20.496  0.00  0.00    +0.255 HD
ENDBRANCH  29  30
ENDBRANCH  28  29
ENDBRANCH  27  28
ENDBRANCH   1  27
TORSDOF 9
ENDMDL
MODEL 7
REMARK VINA RESULT:      -7.1      2.988      5.341
REMARK  Name = 
REMARK  10 active torsions:
REMARK  status: ('A' for Active; 'I' for Inactive)
REMARK    1  A    between atoms: C_1  and  C_2
REMARK    2  A    between atoms: C_6  and  O_8
REMARK    3  A    between atoms: C_10  and  C_12
REMARK    4  A    between atoms: N_14  and  C_15
REMARK    5  A    between atoms: C_15  and  C_17
REMARK    6  A    between atoms: C_15  and  C_24
REMARK    7  A    between atoms: C_17  and  C_18
REMARK    8  A    between atoms: C_18  and  C_19
REMARK    9  A    between atoms: C_19  and  N_20
REMARK   10  A    between atoms: C_24  and  C_26
REMARK                            x       y       z     vdW  Elec       q    Type
REMARK                         _______ _______ _______ _____ _____    ______ ____
ROOT
ATOM      1  C   UNL     1       9.210  -0.753  24.391  0.00  0.00    +0.146 C 
ENDROOT
BRANCH   1   3
ATOM      2  C   UNL     1       8.950  -3.226  24.108  0.00  0.00    +0.234 C 
ATOM      3  N   UNL     1       8.402  -1.977  24.248  0.00  0.00    -0.304 N 
ATOM      4  H   UNL     1       7.387  -1.887  24.246  0.00  0.00    +0.149 HD
ATOM      5  O   UNL     1      10.166  -3.418  24.141  0.00  0.00    -0.274 OA
BRANCH   2   9
ATOM      6  C   UNL     1       7.865  -5.272  26.654  0.00  0.00    +0.109 C 
ATOM      7  C   UNL     1       6.602  -4.944  25.896  0.00  0.00    +0.213 C 
ATOM      8  N   UNL     1       6.747  -4.342  24.661  0.00  0.00    -0.288 N 
ATOM      9  C   UNL     1       7.955  -4.369  23.824  0.00  0.00    +0.164 C 
ATOM     10  C   UNL     1       7.448  -4.249  22.379  0.00  0.00    +0.065 C 
ATOM     11  C   UNL     1       5.933  -4.421  22.458  0.00  0.00    +0.134 C 
ATOM     12  C   UNL     1       5.581  -3.982  23.872  0.00  0.00    +0.140 C 
ATOM     13  O   UNL     1       5.502  -5.159  26.397  0.00  0.00    -0.276 OA
BRANCH  11  14
ATOM     14  O   UNL     1       5.277  -3.656  21.460  0.00  0.00    -0.390 OA
ATOM     15  H   UNL     1       5.923  -3.405  20.776  0.00  0.00    +0.210 HD
ENDBRANCH  11  14
ENDBRANCH   2   9
ENDBRANCH   1   3
BRANCH   1  16
ATOM     16  C   UNL     1       8.501   0.263  23.478  0.00  0.00    +0.208 C 
ATOM     17  O   UNL     1       7.636  -0.139  22.691  0.00  0.00    -0.288 OA
BRANCH  16  18
ATOM     18  C   UNL     1       8.928   1.652  23.584  0.00  0.00    +0.147 A 
ATOM     19  S   UNL     1      10.497   2.115  23.079  0.00  0.00    -0.064 S 
ATOM     20  C   UNL     1      10.191   3.722  23.610  0.00  0.00    +0.040 A 
ATOM     21  C   UNL     1      11.055   4.828  23.623  0.00  0.00    +0.017 A 
ATOM     22  C   UNL     1      10.581   6.029  24.157  0.00  0.00    +0.001 A 
ATOM     23  C   UNL     1       9.276   6.137  24.626  0.00  0.00    +0.002 A 
ATOM     24  C   UNL     1       8.412   5.036  24.577  0.00  0.00    +0.029 A 
ATOM     25  C   UNL     1       8.879   3.803  24.080  0.00  0.00    +0.079 A 
ATOM     26  N   UNL     1       8.158   2.618  24.033  0.00  0.00    -0.236 NA
ENDBRANCH  16  18
ENDBRANCH   1  16
BRANCH   1  27
ATOM     27  C   UNL     1       9.252  -0.319  25.874  0.00  0.00    +0.033 C 
BRANCH  27  28
ATOM     28  C   UNL     1       8.180  -0.928  26.806  0.00  0.00    +0.039 C 
BRANCH  28  29
ATOM     29  C   UNL     1       7.170   0.107  27.280  0.00  0.00    +0.196 C 
BRANCH  29  30
ATOM     30  N   UNL     1       6.633   0.946  26.225  0.00  0.00    -0.276 N 
ATOM     31  H   UNL     1       7.334   1.331  25.598  0.00  0.00    +0.258 HD
ATOM     32  C   UNL     1       5.516   0.559  25.560  0.00  0.00    +0.376 C 
ATOM     33  N   UNL     1       4.668  -0.344  25.886  0.00  0.00    -0.130 NA
ATOM     34  H   UNL     1       4.922  -0.771  26.774  0.00  0.00    +0.306 HD
ATOM     35  N   UNL     1       5.327   1.243  24.419  0.00  0.00    -0.289 N 
ATOM     36  H   UNL     1       4.405   1.023  24.057  0.00  0.00    +0.255 HD
ATOM     37  H   UNL     1       5.426   2.245  24.539  0.00  0.00    +0.255 HD
ENDBRANCH  29  30
ENDBRANCH  28  29
ENDBRANCH  27  28
ENDBRANCH   1  27
TORSDOF 9
ENDMDL
MODEL 8
REMARK VINA RESULT:      -7.1      3.306      6.875
REMARK  Name = 
REMARK  10 active torsions:
REMARK  status: ('A' for Active; 'I' for Inactive)
REMARK    1  A    between atoms: C_1  and  C_2
REMARK    2  A    between atoms: C_6  and  O_8
REMARK    3  A    between atoms: C_10  and  C_12
REMARK    4  A    between atoms: N_14  and  C_15
REMARK    5  A    between atoms: C_15  and  C_17
REMARK    6  A    between atoms: C_15  and  C_24
REMARK    7  A    between atoms: C_17  and  C_18
REMARK    8  A    between atoms: C_18  and  C_19
REMARK    9  A    between atoms: C_19  and  N_20
REMARK   10  A    between atoms: C_24  and  C_26
REMARK                            x       y       z     vdW  Elec       q    Type
REMARK                         _______ _______ _______ _____ _____    ______ ____
ROOT
ATOM      1  C   UNL     1      10.136  -0.596  24.545  0.00  0.00    +0.146 C 
ENDROOT
BRANCH   1   3
ATOM      2  C   UNL     1       8.475  -0.260  26.386  0.00  0.00    +0.234 C 
ATOM      3  N   UNL     1       8.857  -0.098  25.079  0.00  0.00    -0.304 N 
ATOM      4  H   UNL     1       8.222   0.383  24.443  0.00  0.00    +0.149 HD
ATOM      5  O   UNL     1       9.204  -0.794  27.222  0.00  0.00    -0.274 OA
BRANCH   2   9
ATOM      6  C   UNL     1       7.603   3.064  26.192  0.00  0.00    +0.109 C 
ATOM      7  C   UNL     1       6.451   2.354  25.526  0.00  0.00    +0.213 C 
ATOM      8  N   UNL     1       6.387   0.981  25.675  0.00  0.00    -0.288 N 
ATOM      9  C   UNL     1       7.043   0.196  26.730  0.00  0.00    +0.164 C 
ATOM     10  C   UNL     1       6.154  -1.041  26.925  0.00  0.00    +0.065 C 
ATOM     11  C   UNL     1       4.878  -0.761  26.134  0.00  0.00    +0.134 C 
ATOM     12  C   UNL     1       5.317   0.219  25.055  0.00  0.00    +0.140 C 
ATOM     13  O   UNL     1       5.648   2.978  24.839  0.00  0.00    -0.276 OA
BRANCH  11  14
ATOM     14  O   UNL     1       4.328  -1.958  25.607  0.00  0.00    -0.390 OA
ATOM     15  H   UNL     1       3.877  -1.758  24.768  0.00  0.00    +0.210 HD
ENDBRANCH  11  14
ENDBRANCH   2   9
ENDBRANCH   1   3
BRANCH   1  16
ATOM     16  C   UNL     1       9.720  -1.445  23.329  0.00  0.00    +0.208 C 
ATOM     17  O   UNL     1      10.350  -1.326  22.272  0.00  0.00    -0.288 OA
BRANCH  16  18
ATOM     18  C   UNL     1       8.572  -2.324  23.504  0.00  0.00    +0.147 A 
ATOM     19  S   UNL     1       8.668  -3.673  24.554  0.00  0.00    -0.064 S 
ATOM     20  C   UNL     1       7.073  -4.135  24.102  0.00  0.00    +0.040 A 
ATOM     21  C   UNL     1       6.339  -5.267  24.486  0.00  0.00    +0.017 A 
ATOM     22  C   UNL     1       5.067  -5.447  23.936  0.00  0.00    +0.001 A 
ATOM     23  C   UNL     1       4.528  -4.507  23.062  0.00  0.00    +0.002 A 
ATOM     24  C   UNL     1       5.256  -3.365  22.711  0.00  0.00    +0.029 A 
ATOM     25  C   UNL     1       6.557  -3.181  23.222  0.00  0.00    +0.079 A 
ATOM     26  N   UNL     1       7.414  -2.136  22.910  0.00  0.00    -0.236 NA
ENDBRANCH  16  18
ENDBRANCH   1  16
BRANCH   1  27
ATOM     27  C   UNL     1      11.052   0.593  24.175  0.00  0.00    +0.033 C 
BRANCH  27  28
ATOM     28  C   UNL     1      10.377   1.979  24.060  0.00  0.00    +0.039 C 
BRANCH  28  29
ATOM     29  C   UNL     1      10.039   2.339  22.621  0.00  0.00    +0.196 C 
BRANCH  29  30
ATOM     30  N   UNL     1       8.784   3.049  22.461  0.00  0.00    -0.276 N 
ATOM     31  H   UNL     1       8.855   3.908  21.922  0.00  0.00    +0.258 HD
ATOM     32  C   UNL     1       7.652   2.361  22.173  0.00  0.00    +0.376 C 
ATOM     33  N   UNL     1       7.441   1.100  22.265  0.00  0.00    -0.130 NA
ATOM     34  H   UNL     1       8.266   0.624  22.622  0.00  0.00    +0.306 HD
ATOM     35  N   UNL     1       6.659   3.153  21.734  0.00  0.00    -0.289 N 
ATOM     36  H   UNL     1       5.804   2.608  21.691  0.00  0.00    +0.255 HD
ATOM     37  H   UNL     1       6.523   3.973  22.315  0.00  0.00    +0.255 HD
ENDBRANCH  29  30
ENDBRANCH  28  29
ENDBRANCH  27  28
ENDBRANCH   1  27
TORSDOF 9
ENDMDL
MODEL 9
REMARK VINA RESULT:      -6.9      2.137      4.132
REMARK  Name = 
REMARK  10 active torsions:
REMARK  status: ('A' for Active; 'I' for Inactive)
REMARK    1  A    between atoms: C_1  and  C_2
REMARK    2  A    between atoms: C_6  and  O_8
REMARK    3  A    between atoms: C_10  and  C_12
REMARK    4  A    between atoms: N_14  and  C_15
REMARK    5  A    between atoms: C_15  and  C_17
REMARK    6  A    between atoms: C_15  and  C_24
REMARK    7  A    between atoms: C_17  and  C_18
REMARK    8  A    between atoms: C_18  and  C_19
REMARK    9  A    between atoms: C_19  and  N_20
REMARK   10  A    between atoms: C_24  and  C_26
REMARK                            x       y       z     vdW  Elec       q    Type
REMARK                         _______ _______ _______ _____ _____    ______ ____
ROOT
ATOM      1  C   UNL     1       8.164  -3.527  26.007  0.00  0.00    +0.146 C 
ENDROOT
BRANCH   1   3
ATOM      2  C   UNL     1       6.553  -5.411  25.660  0.00  0.00    +0.234 C 
ATOM      3  N   UNL     1       7.058  -4.190  25.294  0.00  0.00    -0.304 N 
ATOM      4  H   UNL     1       6.656  -3.720  24.484  0.00  0.00    +0.149 HD
ATOM      5  O   UNL     1       6.961  -6.020  26.650  0.00  0.00    -0.274 OA
BRANCH   2   9
ATOM      6  C   UNL     1       3.386  -6.131  26.798  0.00  0.00    +0.109 C 
ATOM      7  C   UNL     1       3.143  -5.447  25.476  0.00  0.00    +0.213 C 
ATOM      8  N   UNL     1       4.237  -5.263  24.651  0.00  0.00    -0.288 N 
ATOM      9  C   UNL     1       5.499  -6.015  24.712  0.00  0.00    +0.164 C 
ATOM     10  C   UNL     1       6.045  -6.002  23.277  0.00  0.00    +0.065 C 
ATOM     11  C   UNL     1       4.915  -5.452  22.409  0.00  0.00    +0.134 C 
ATOM     12  C   UNL     1       4.092  -4.602  23.366  0.00  0.00    +0.140 C 
ATOM     13  O   UNL     1       2.026  -5.027  25.188  0.00  0.00    -0.276 OA
BRANCH  11  14
ATOM     14  O   UNL     1       5.425  -4.715  21.309  0.00  0.00    -0.390 OA
ATOM     15  H   UNL     1       6.250  -4.274  21.577  0.00  0.00    +0.210 HD
ENDBRANCH  11  14
ENDBRANCH   2   9
ENDBRANCH   1   3
BRANCH   1  16
ATOM     16  C   UNL     1       9.265  -3.398  24.939  0.00  0.00    +0.208 C 
ATOM     17  O   UNL     1       9.995  -4.370  24.710  0.00  0.00    -0.288 OA
BRANCH  16  18
ATOM     18  C   UNL     1       9.392  -2.105  24.280  0.00  0.00    +0.147 A 
ATOM     19  S   UNL     1       8.880  -1.906  22.659  0.00  0.00    -0.064 S 
ATOM     20  C   UNL     1       9.443  -0.280  22.684  0.00  0.00    +0.040 A 
ATOM     21  C   UNL     1       9.469   0.661  21.643  0.00  0.00    +0.017 A 
ATOM     22  C   UNL     1      10.030   1.915  21.902  0.00  0.00    +0.001 A 
ATOM     23  C   UNL     1      10.513   2.233  23.167  0.00  0.00    +0.002 A 
ATOM     24  C   UNL     1      10.453   1.297  24.206  0.00  0.00    +0.029 A 
ATOM     25  C   UNL     1       9.928   0.013  23.959  0.00  0.00    +0.079 A 
ATOM     26  N   UNL     1       9.867  -1.031  24.871  0.00  0.00    -0.236 NA
ENDBRANCH  16  18
ENDBRANCH   1  16
BRANCH   1  27
ATOM     27  C   UNL     1       7.691  -2.166  26.566  0.00  0.00    +0.033 C 
BRANCH  27  28
ATOM     28  C   UNL     1       6.174  -2.009  26.817  0.00  0.00    +0.039 C 
BRANCH  28  29
ATOM     29  C   UNL     1       5.629  -0.700  26.262  0.00  0.00    +0.196 C 
BRANCH  29  30
ATOM     30  N   UNL     1       5.839  -0.521  24.838  0.00  0.00    -0.276 N 
ATOM     31  H   UNL     1       5.096  -0.896  24.255  0.00  0.00    +0.258 HD
ATOM     32  C   UNL     1       6.304   0.663  24.369  0.00  0.00    +0.376 C 
ATOM     33  N   UNL     1       6.853   1.619  25.024  0.00  0.00    -0.130 NA
ATOM     34  H   UNL     1       6.929   1.380  26.010  0.00  0.00    +0.306 HD
ATOM     35  N   UNL     1       6.138   0.799  23.043  0.00  0.00    -0.289 N 
ATOM     36  H   UNL     1       6.644   1.623  22.735  0.00  0.00    +0.255 HD
ATOM     37  H   UNL     1       6.445  -0.015  22.522  0.00  0.00    +0.255 HD
ENDBRANCH  29  30
ENDBRANCH  28  29
ENDBRANCH  27  28
ENDBRANCH   1  27
TORSDOF 9
ENDMDL
