MODEL 1
REMARK VINA RESULT:      -8.1      0.000      0.000
REMARK  Name = 
REMARK  8 active torsions:
REMARK  status: ('A' for Active; 'I' for Inactive)
REMARK    1  A    between atoms: C_4  and  C_5
REMARK    2  A    between atoms: C_4  and  C_6
REMARK    3  A    between atoms: CA_7  and  C_31
REMARK    4  A    between atoms: CA_12  and  N_14
REMARK    5  A    between atoms: C_15  and  C_17
REMARK    6  A    between atoms: C_18  and  C_19
REMARK    7  A    between atoms: C_22  and  C_23
REMARK    8  A    between atoms: C_31  and  O_32
REMARK                            x       y       z     vdW  Elec       q    Type
REMARK                         _______ _______ _______ _____ _____    ______ ____
ROOT
ATOM      1  N   UNL     1       7.926  -3.179  23.635  0.00  0.00    -0.298 N 
ATOM      2  H   UNL     1       8.070  -2.682  24.508  0.00  0.00    +0.150 HD
ATOM      3  C   UNL     1       7.573  -4.505  23.687  0.00  0.00    +0.250 C 
ATOM      4  O   UNL     1       7.580  -5.221  22.695  0.00  0.00    -0.270 OA
ENDROOT
BRANCH   1   6
ATOM      5  C   UNL     1       7.654  -1.030  22.289  0.00  0.00    +0.165 C 
ATOM      6  CA  UNL     1       8.226  -2.476  22.361  0.00  0.00    +0.190 C 
ATOM      7  C   UNL     1       9.602  -1.762  22.237  0.00  0.00    +0.240 C 
ATOM      8  O   UNL     1      10.775  -2.025  22.395  0.00  0.00    -0.273 OA
ATOM      9  N   UNL     1       9.028  -0.534  22.076  0.00  0.00    -0.271 N 
ATOM     10  CA  UNL     1       9.439   0.597  22.931  0.00  0.00    +0.201 C 
ATOM     11  C   UNL     1       8.745   0.415  24.301  0.00  0.00    +0.042 C 
ATOM     12  C   UNL     1       9.515  -0.576  25.203  0.00  0.00    +0.025 C 
ATOM     13  C   UNL     1       8.556   1.692  25.125  0.00  0.00    +0.025 C 
ATOM     14  S   UNL     1       7.093  -0.324  23.903  0.00  0.00    -0.127 S 
BRANCH  10  15
ATOM     15  C   UNL     1       9.105   1.868  22.129  0.00  0.00    +0.327 C 
ATOM     16  OXT UNL     1       8.000   2.370  22.012  0.00  0.00    -0.249 OA
BRANCH  15  17
ATOM     17  O   UNL     1      10.216   2.493  21.652  0.00  0.00    -0.479 OA
ATOM     18  H   UNL     1      10.114   2.695  20.697  0.00  0.00    +0.295 HD
ENDBRANCH  15  17
ENDBRANCH  10  15
ENDBRANCH   1   6
BRANCH   3  19
ATOM     19  C   UNL     1       7.190  -4.980  25.001  0.00  0.00    +0.106 A 
ATOM     20  C   UNL     1       5.903  -5.303  25.562  0.00  0.00    +0.130 A 
ATOM     21  N   UNL     1       6.049  -5.695  26.838  0.00  0.00    -0.077 NA
ATOM     22  O   UNL     1       7.393  -5.654  27.118  0.00  0.00    -0.359 OA
ATOM     23  C   UNL     1       8.080  -5.250  26.023  0.00  0.00    +0.147 A 
ATOM     24  C   UNL     1       9.546  -5.162  26.184  0.00  0.00    +0.090 C 
BRANCH  20  25
ATOM     25  C   UNL     1       4.561  -5.197  24.966  0.00  0.00    +0.058 A 
ATOM     26  C   UNL     1       3.732  -4.070  25.109  0.00  0.00    +0.053 A 
ATOM     27 CL   UNL     1       4.317  -2.517  25.605  0.00  0.00    -0.083 Cl
ATOM     28  C   UNL     1       2.368  -4.137  24.789  0.00  0.00    +0.021 A 
ATOM     29  C   UNL     1       1.838  -5.276  24.191  0.00  0.00    +0.004 A 
ATOM     30  C   UNL     1       2.682  -6.336  23.885  0.00  0.00    +0.039 A 
ATOM     31  C   UNL     1       4.019  -6.301  24.286  0.00  0.00    +0.134 A 
ATOM     32  F   UNL     1       4.761  -7.386  24.022  0.00  0.00    -0.205 F 
ENDBRANCH  20  25
ENDBRANCH   3  19
TORSDOF 5
ENDMDL
MODEL 2
REMARK VINA RESULT:      -7.8      1.463      1.727
REMARK  Name = 
REMARK  8 active torsions:
REMARK  status: ('A' for Active; 'I' for Inactive)
REMARK    1  A    between atoms: C_4  and  C_5
REMARK    2  A    between atoms: C_4  and  C_6
REMARK    3  A    between atoms: CA_7  and  C_31
REMARK    4  A    between atoms: CA_12  and  N_14
REMARK    5  A    between atoms: C_15  and  C_17
REMARK    6  A    between atoms: C_18  and  C_19
REMARK    7  A    between atoms: C_22  and  C_23
REMARK    8  A    between atoms: C_31  and  O_32
REMARK                            x       y       z     vdW  Elec       q    Type
REMARK                         _______ _______ _______ _____ _____    ______ ____
ROOT
ATOM      1  N   UNL     1       8.001  -3.197  23.826  0.00  0.00    -0.298 N 
ATOM      2  H   UNL     1       8.434  -2.760  24.634  0.00  0.00    +0.150 HD
ATOM      3  C   UNL     1       7.414  -4.428  23.983  0.00  0.00    +0.250 C 
ATOM      4  O   UNL     1       7.056  -5.105  23.028  0.00  0.00    -0.270 OA
ENDROOT
BRANCH   1   6
ATOM      5  C   UNL     1       7.452  -1.139  22.423  0.00  0.00    +0.165 C 
ATOM      6  CA  UNL     1       8.139  -2.533  22.504  0.00  0.00    +0.190 C 
ATOM      7  C   UNL     1       9.440  -1.726  22.233  0.00  0.00    +0.240 C 
ATOM      8  O   UNL     1      10.639  -1.894  22.299  0.00  0.00    -0.273 OA
ATOM      9  N   UNL     1       8.761  -0.552  22.073  0.00  0.00    -0.271 N 
ATOM     10  CA  UNL     1       9.152   0.644  22.843  0.00  0.00    +0.201 C 
ATOM     11  C   UNL     1       8.590   0.476  24.274  0.00  0.00    +0.042 C 
ATOM     12  C   UNL     1       9.507  -0.413  25.145  0.00  0.00    +0.025 C 
ATOM     13  C   UNL     1       8.372   1.771  25.059  0.00  0.00    +0.025 C 
ATOM     14  S   UNL     1       6.974  -0.402  24.050  0.00  0.00    -0.127 S 
BRANCH  10  15
ATOM     15  C   UNL     1       8.655   1.848  22.023  0.00  0.00    +0.327 C 
ATOM     16  OXT UNL     1       7.517   2.016  21.617  0.00  0.00    -0.249 OA
BRANCH  15  17
ATOM     17  O   UNL     1       9.597   2.822  21.899  0.00  0.00    -0.479 OA
ATOM     18  H   UNL     1      10.143   2.879  22.714  0.00  0.00    +0.295 HD
ENDBRANCH  15  17
ENDBRANCH  10  15
ENDBRANCH   1   6
BRANCH   3  19
ATOM     19  C   UNL     1       7.252  -4.852  25.358  0.00  0.00    +0.106 A 
ATOM     20  C   UNL     1       6.074  -5.036  26.168  0.00  0.00    +0.130 A 
ATOM     21  N   UNL     1       6.428  -5.434  27.400  0.00  0.00    -0.077 NA
ATOM     22  O   UNL     1       7.799  -5.532  27.412  0.00  0.00    -0.359 OA
ATOM     23  C   UNL     1       8.293  -5.207  26.193  0.00  0.00    +0.147 A 
ATOM     24  C   UNL     1       9.763  -5.272  26.062  0.00  0.00    +0.090 C 
BRANCH  20  25
ATOM     25  C   UNL     1       4.659  -4.795  25.842  0.00  0.00    +0.058 A 
ATOM     26  C   UNL     1       3.922  -5.582  24.938  0.00  0.00    +0.053 A 
ATOM     27 CL   UNL     1       4.416  -7.165  24.435  0.00  0.00    -0.083 Cl
ATOM     28  C   UNL     1       2.691  -5.136  24.436  0.00  0.00    +0.021 A 
ATOM     29  C   UNL     1       2.107  -3.973  24.929  0.00  0.00    +0.004 A 
ATOM     30  C   UNL     1       2.742  -3.275  25.947  0.00  0.00    +0.039 A 
ATOM     31  C   UNL     1       4.009  -3.672  26.380  0.00  0.00    +0.134 A 
ATOM     32  F   UNL     1       4.596  -2.913  27.317  0.00  0.00    -0.205 F 
ENDBRANCH  20  25
ENDBRANCH   3  19
TORSDOF 5
ENDMDL
MODEL 3
REMARK VINA RESULT:      -7.4      3.511      7.043
REMARK  Name = 
REMARK  8 active torsions:
REMARK  status: ('A' for Active; 'I' for Inactive)
REMARK    1  A    between atoms: C_4  and  C_5
REMARK    2  A    between atoms: C_4  and  C_6
REMARK    3  A    between atoms: CA_7  and  C_31
REMARK    4  A    between atoms: CA_12  and  N_14
REMARK    5  A    between atoms: C_15  and  C_17
REMARK    6  A    between atoms: C_18  and  C_19
REMARK    7  A    between atoms: C_22  and  C_23
REMARK    8  A    between atoms: C_31  and  O_32
REMARK                            x       y       z     vdW  Elec       q    Type
REMARK                         _______ _______ _______ _____ _____    ______ ____
ROOT
ATOM      1  N   UNL     1       7.100  -1.585  26.165  0.00  0.00    -0.298 N 
ATOM      2  H   UNL     1       6.353  -1.205  25.592  0.00  0.00    +0.150 HD
ATOM      3  C   UNL     1       8.032  -0.720  26.684  0.00  0.00    +0.250 C 
ATOM      4  O   UNL     1       9.066  -1.113  27.208  0.00  0.00    -0.270 OA
ENDROOT
BRANCH   1   6
ATOM      5  C   UNL     1       6.133  -3.849  25.499  0.00  0.00    +0.165 C 
ATOM      6  CA  UNL     1       7.208  -3.060  26.303  0.00  0.00    +0.190 C 
ATOM      7  C   UNL     1       8.210  -3.801  25.372  0.00  0.00    +0.240 C 
ATOM      8  O   UNL     1       9.378  -3.722  25.056  0.00  0.00    -0.273 OA
ATOM      9  N   UNL     1       7.224  -4.536  24.779  0.00  0.00    -0.271 N 
ATOM     10  CA  UNL     1       7.101  -4.566  23.309  0.00  0.00    +0.201 C 
ATOM     11  C   UNL     1       6.422  -3.245  22.876  0.00  0.00    +0.042 C 
ATOM     12  C   UNL     1       7.439  -2.084  22.790  0.00  0.00    +0.025 C 
ATOM     13  C   UNL     1       5.694  -3.282  21.530  0.00  0.00    +0.025 C 
ATOM     14  S   UNL     1       5.218  -2.862  24.231  0.00  0.00    -0.127 S 
BRANCH  10  15
ATOM     15  C   UNL     1       6.369  -5.880  22.980  0.00  0.00    +0.327 C 
ATOM     16  OXT UNL     1       5.321  -6.259  23.474  0.00  0.00    -0.249 OA
BRANCH  15  17
ATOM     17  O   UNL     1       6.942  -6.552  21.944  0.00  0.00    -0.479 OA
ATOM     18  H   UNL     1       6.254  -6.898  21.336  0.00  0.00    +0.295 HD
ENDBRANCH  15  17
ENDBRANCH  10  15
ENDBRANCH   1   6
BRANCH   3  19
ATOM     19  C   UNL     1       7.690   0.683  26.566  0.00  0.00    +0.106 A 
ATOM     20  C   UNL     1       7.759   1.591  25.450  0.00  0.00    +0.130 A 
ATOM     21  N   UNL     1       7.340   2.810  25.829  0.00  0.00    -0.077 NA
ATOM     22  O   UNL     1       6.984   2.717  27.153  0.00  0.00    -0.359 OA
ATOM     23  C   UNL     1       7.170   1.448  27.591  0.00  0.00    +0.147 A 
ATOM     24  C   UNL     1       6.823   1.204  29.006  0.00  0.00    +0.090 C 
BRANCH  20  25
ATOM     25  C   UNL     1       8.254   1.368  24.082  0.00  0.00    +0.058 A 
ATOM     26  C   UNL     1       9.605   1.122  23.773  0.00  0.00    +0.053 A 
ATOM     27 CL   UNL     1      10.770   0.611  24.948  0.00  0.00    -0.083 Cl
ATOM     28  C   UNL     1      10.069   1.221  22.453  0.00  0.00    +0.021 A 
ATOM     29  C   UNL     1       9.177   1.425  21.404  0.00  0.00    +0.004 A 
ATOM     30  C   UNL     1       7.817   1.499  21.675  0.00  0.00    +0.039 A 
ATOM     31  C   UNL     1       7.369   1.491  22.998  0.00  0.00    +0.134 A 
ATOM     32  F   UNL     1       6.050   1.637  23.193  0.00  0.00    -0.205 F 
ENDBRANCH  20  25
ENDBRANCH   3  19
TORSDOF 5
ENDMDL
MODEL 4
REMARK VINA RESULT:      -7.3      2.251      3.140
REMARK  Name = 
REMARK  8 active torsions:
REMARK  status: ('A' for Active; 'I' for Inactive)
REMARK    1  A    between atoms: C_4  and  C_5
REMARK    2  A    between atoms: C_4  and  C_6
REMARK    3  A    between atoms: CA_7  and  C_31
REMARK    4  A    between atoms: CA_12  and  N_14
REMARK    5  A    between atoms: C_15  and  C_17
REMARK    6  A    between atoms: C_18  and  C_19
REMARK    7  A    between atoms: C_22  and  C_23
REMARK    8  A    between atoms: C_31  and  O_32
REMARK                            x       y       z     vdW  Elec       q    Type
REMARK                         _______ _______ _______ _____ _____    ______ ____
ROOT
ATOM      1  N   UNL     1       7.714  -3.440  24.486  0.00  0.00    -0.298 N 
ATOM      2  H   UNL     1       6.884  -2.905  24.717  0.00  0.00    +0.150 HD
ATOM      3  C   UNL     1       7.560  -4.725  24.027  0.00  0.00    +0.250 C 
ATOM      4  O   UNL     1       8.503  -5.498  23.922  0.00  0.00    -0.270 OA
ENDROOT
BRANCH   1   6
ATOM      5  C   UNL     1       9.577  -1.912  23.651  0.00  0.00    +0.165 C 
ATOM      6  CA  UNL     1       9.044  -2.845  24.777  0.00  0.00    +0.190 C 
ATOM      7  C   UNL     1       9.083  -1.552  25.641  0.00  0.00    +0.240 C 
ATOM      8  O   UNL     1       8.651  -1.162  26.704  0.00  0.00    -0.273 OA
ATOM      9  N   UNL     1       9.647  -0.816  24.639  0.00  0.00    -0.271 N 
ATOM     10  CA  UNL     1       9.038   0.461  24.221  0.00  0.00    +0.201 C 
ATOM     11  C   UNL     1       7.819   0.122  23.331  0.00  0.00    +0.042 C 
ATOM     12  C   UNL     1       6.573  -0.222  24.179  0.00  0.00    +0.025 C 
ATOM     13  C   UNL     1       7.386   1.215  22.351  0.00  0.00    +0.025 C 
ATOM     14  S   UNL     1       8.321  -1.397  22.395  0.00  0.00    -0.127 S 
BRANCH  10  15
ATOM     15  C   UNL     1      10.177   1.276  23.582  0.00  0.00    +0.327 C 
ATOM     16  OXT UNL     1      10.057   2.094  22.686  0.00  0.00    -0.249 OA
BRANCH  15  17
ATOM     17  O   UNL     1      11.366   1.104  24.223  0.00  0.00    -0.479 OA
ATOM     18  H   UNL     1      12.067   0.848  23.586  0.00  0.00    +0.295 HD
ENDBRANCH  15  17
ENDBRANCH  10  15
ENDBRANCH   1   6
BRANCH   3  19
ATOM     19  C   UNL     1       6.201  -5.084  23.676  0.00  0.00    +0.106 A 
ATOM     20  C   UNL     1       5.012  -5.221  24.477  0.00  0.00    +0.130 A 
ATOM     21  N   UNL     1       3.980  -5.588  23.700  0.00  0.00    -0.077 NA
ATOM     22  O   UNL     1       4.458  -5.678  22.415  0.00  0.00    -0.359 OA
ATOM     23  C   UNL     1       5.774  -5.358  22.391  0.00  0.00    +0.147 A 
ATOM     24  C   UNL     1       6.420  -5.412  21.063  0.00  0.00    +0.090 C 
BRANCH  20  25
ATOM     25  C   UNL     1       4.834  -5.079  25.932  0.00  0.00    +0.058 A 
ATOM     26  C   UNL     1       4.681  -3.840  26.581  0.00  0.00    +0.053 A 
ATOM     27 CL   UNL     1       4.240  -2.382  25.754  0.00  0.00    -0.083 Cl
ATOM     28  C   UNL     1       4.821  -3.736  27.972  0.00  0.00    +0.021 A 
ATOM     29  C   UNL     1       4.974  -4.878  28.753  0.00  0.00    +0.004 A 
ATOM     30  C   UNL     1       4.955  -6.124  28.143  0.00  0.00    +0.039 A 
ATOM     31  C   UNL     1       4.906  -6.218  26.751  0.00  0.00    +0.134 A 
ATOM     32  F   UNL     1       4.961  -7.449  26.222  0.00  0.00    -0.205 F 
ENDBRANCH  20  25
ENDBRANCH   3  19
TORSDOF 5
ENDMDL
MODEL 5
REMARK VINA RESULT:      -7.3      2.416      3.271
REMARK  Name = 
REMARK  8 active torsions:
REMARK  status: ('A' for Active; 'I' for Inactive)
REMARK    1  A    between atoms: C_4  and  C_5
REMARK    2  A    between atoms: C_4  and  C_6
REMARK    3  A    between atoms: CA_7  and  C_31
REMARK    4  A    between atoms: CA_12  and  N_14
REMARK    5  A    between atoms: C_15  and  C_17
REMARK    6  A    between atoms: C_18  and  C_19
REMARK    7  A    between atoms: C_22  and  C_23
REMARK    8  A    between atoms: C_31  and  O_32
REMARK                            x       y       z     vdW  Elec       q    Type
REMARK                         _______ _______ _______ _____ _____    ______ ____
ROOT
ATOM      1  N   UNL     1       8.161  -2.969  24.305  0.00  0.00    -0.298 N 
ATOM      2  H   UNL     1       7.288  -2.452  24.309  0.00  0.00    +0.150 HD
ATOM      3  C   UNL     1       8.110  -4.341  24.298  0.00  0.00    +0.250 C 
ATOM      4  O   UNL     1       9.101  -5.031  24.496  0.00  0.00    -0.270 OA
ENDROOT
BRANCH   1   6
ATOM      5  C   UNL     1       9.705  -1.233  23.252  0.00  0.00    +0.165 C 
ATOM      6  CA  UNL     1       9.433  -2.212  24.431  0.00  0.00    +0.190 C 
ATOM      7  C   UNL     1       9.419  -0.914  25.288  0.00  0.00    +0.240 C 
ATOM      8  O   UNL     1       9.076  -0.567  26.398  0.00  0.00    -0.273 OA
ATOM      9  N   UNL     1       9.761  -0.126  24.227  0.00  0.00    -0.271 N 
ATOM     10  CA  UNL     1       8.953   1.062  23.893  0.00  0.00    +0.201 C 
ATOM     11  C   UNL     1       7.685   0.566  23.159  0.00  0.00    +0.042 C 
ATOM     12  C   UNL     1       6.604   0.082  24.152  0.00  0.00    +0.025 C 
ATOM     13  C   UNL     1       7.004   1.587  22.243  0.00  0.00    +0.025 C 
ATOM     14  S   UNL     1       8.251  -0.891  22.163  0.00  0.00    -0.127 S 
BRANCH  10  15
ATOM     15  C   UNL     1       9.896   2.003  23.121  0.00  0.00    +0.327 C 
ATOM     16  OXT UNL     1      10.304   1.833  21.985  0.00  0.00    -0.249 OA
BRANCH  15  17
ATOM     17  O   UNL     1      10.139   3.163  23.790  0.00  0.00    -0.479 OA
ATOM     18  H   UNL     1       9.312   3.682  23.890  0.00  0.00    +0.295 HD
ENDBRANCH  15  17
ENDBRANCH  10  15
ENDBRANCH   1   6
BRANCH   3  19
ATOM     19  C   UNL     1       6.800  -4.898  24.033  0.00  0.00    +0.106 A 
ATOM     20  C   UNL     1       5.571  -4.848  24.785  0.00  0.00    +0.130 A 
ATOM     21  N   UNL     1       4.614  -5.530  24.137  0.00  0.00    -0.077 NA
ATOM     22  O   UNL     1       5.177  -6.008  22.978  0.00  0.00    -0.359 OA
ATOM     23  C   UNL     1       6.471  -5.617  22.901  0.00  0.00    +0.147 A 
ATOM     24  C   UNL     1       7.202  -6.062  21.696  0.00  0.00    +0.090 C 
BRANCH  20  25
ATOM     25  C   UNL     1       5.293  -4.242  26.097  0.00  0.00    +0.058 A 
ATOM     26  C   UNL     1       5.789  -4.751  27.312  0.00  0.00    +0.053 A 
ATOM     27 CL   UNL     1       7.119  -5.857  27.405  0.00  0.00    -0.083 Cl
ATOM     28  C   UNL     1       5.255  -4.330  28.538  0.00  0.00    +0.021 A 
ATOM     29  C   UNL     1       4.324  -3.296  28.585  0.00  0.00    +0.004 A 
ATOM     30  C   UNL     1       3.952  -2.665  27.406  0.00  0.00    +0.039 A 
ATOM     31  C   UNL     1       4.417  -3.147  26.181  0.00  0.00    +0.134 A 
ATOM     32  F   UNL     1       3.963  -2.536  25.076  0.00  0.00    -0.205 F 
ENDBRANCH  20  25
ENDBRANCH   3  19
TORSDOF 5
ENDMDL
MODEL 6
REMARK VINA RESULT:      -7.2      2.857      3.728
REMARK  Name = 
REMARK  8 active torsions:
REMARK  status: ('A' for Active; 'I' for Inactive)
REMARK    1  A    between atoms: C_4  and  C_5
REMARK    2  A    between atoms: C_4  and  C_6
REMARK    3  A    between atoms: CA_7  and  C_31
REMARK    4  A    between atoms: CA_12  and  N_14
REMARK    5  A    between atoms: C_15  and  C_17
REMARK    6  A    between atoms: C_18  and  C_19
REMARK    7  A    between atoms: C_22  and  C_23
REMARK    8  A    between atoms: C_31  and  O_32
REMARK                            x       y       z     vdW  Elec       q    Type
REMARK                         _______ _______ _______ _____ _____    ______ ____
ROOT
ATOM      1  N   UNL     1       8.166  -0.159  23.502  0.00  0.00    -0.298 N 
ATOM      2  H   UNL     1       7.328   0.081  24.021  0.00  0.00    +0.150 HD
ATOM      3  C   UNL     1       8.889  -1.258  23.895  0.00  0.00    +0.250 C 
ATOM      4  O   UNL     1      10.007  -1.493  23.458  0.00  0.00    -0.270 OA
ENDROOT
BRANCH   1   6
ATOM      5  C   UNL     1       7.621   1.913  22.117  0.00  0.00    +0.165 C 
ATOM      6  CA  UNL     1       8.624   0.765  22.432  0.00  0.00    +0.190 C 
ATOM      7  C   UNL     1       9.574   1.928  22.839  0.00  0.00    +0.240 C 
ATOM      8  O   UNL     1      10.614   2.076  23.443  0.00  0.00    -0.273 OA
ATOM      9  N   UNL     1       8.683   2.885  22.446  0.00  0.00    -0.271 N 
ATOM     10  CA  UNL     1       8.297   3.966  23.372  0.00  0.00    +0.201 C 
ATOM     11  C   UNL     1       7.272   3.375  24.369  0.00  0.00    +0.042 C 
ATOM     12  C   UNL     1       7.969   2.609  25.517  0.00  0.00    +0.025 C 
ATOM     13  C   UNL     1       6.331   4.384  25.032  0.00  0.00    +0.025 C 
ATOM     14  S   UNL     1       6.288   2.159  23.375  0.00  0.00    -0.127 S 
BRANCH  10  15
ATOM     15  C   UNL     1       7.828   5.130  22.481  0.00  0.00    +0.327 C 
ATOM     16  OXT UNL     1       6.787   5.173  21.847  0.00  0.00    -0.249 OA
BRANCH  15  17
ATOM     17  O   UNL     1       8.642   6.218  22.571  0.00  0.00    -0.479 OA
ATOM     18  H   UNL     1       9.489   5.979  23.005  0.00  0.00    +0.295 HD
ENDBRANCH  15  17
ENDBRANCH  10  15
ENDBRANCH   1   6
BRANCH   3  19
ATOM     19  C   UNL     1       8.221  -2.110  24.857  0.00  0.00    +0.106 A 
ATOM     20  C   UNL     1       7.548  -3.375  24.706  0.00  0.00    +0.130 A 
ATOM     21  N   UNL     1       7.070  -3.780  25.894  0.00  0.00    -0.077 NA
ATOM     22  O   UNL     1       7.427  -2.825  26.816  0.00  0.00    -0.359 OA
ATOM     23  C   UNL     1       8.130  -1.840  26.208  0.00  0.00    +0.147 A 
ATOM     24  C   UNL     1       8.582  -0.742  27.088  0.00  0.00    +0.090 C 
BRANCH  20  25
ATOM     25  C   UNL     1       7.293  -4.169  23.493  0.00  0.00    +0.058 A 
ATOM     26  C   UNL     1       6.359  -3.805  22.506  0.00  0.00    +0.053 A 
ATOM     27 CL   UNL     1       5.720  -2.203  22.348  0.00  0.00    -0.083 Cl
ATOM     28  C   UNL     1       5.937  -4.731  21.541  0.00  0.00    +0.021 A 
ATOM     29  C   UNL     1       6.538  -5.983  21.453  0.00  0.00    +0.004 A 
ATOM     30  C   UNL     1       7.583  -6.295  22.313  0.00  0.00    +0.039 A 
ATOM     31  C   UNL     1       7.938  -5.407  23.329  0.00  0.00    +0.134 A 
ATOM     32  F   UNL     1       8.908  -5.800  24.169  0.00  0.00    -0.205 F 
ENDBRANCH  20  25
ENDBRANCH   3  19
TORSDOF 5
ENDMDL
MODEL 7
REMARK VINA RESULT:      -7.1      2.508      3.400
REMARK  Name = 
REMARK  8 active torsions:
REMARK  status: ('A' for Active; 'I' for Inactive)
REMARK    1  A    between atoms: C_4  and  C_5
REMARK    2  A    between atoms: C_4  and  C_6
REMARK    3  A    between atoms: CA_7  and  C_31
REMARK    4  A    between atoms: CA_12  and  N_14
REMARK    5  A    between atoms: C_15  and  C_17
REMARK    6  A    between atoms: C_18  and  C_19
REMARK    7  A    between atoms: C_22  and  C_23
REMARK    8  A    between atoms: C_31  and  O_32
REMARK                            x       y       z     vdW  Elec       q    Type
REMARK                         _______ _______ _______ _____ _____    ______ ____
ROOT
ATOM      1  N   UNL     1       7.136   0.070  23.399  0.00  0.00    -0.298 N 
ATOM      2  H   UNL     1       6.933   0.437  24.323  0.00  0.00    +0.150 HD
ATOM      3  C   UNL     1       7.707  -1.174  23.298  0.00  0.00    +0.250 C 
ATOM      4  O   UNL     1       8.166  -1.599  22.246  0.00  0.00    -0.270 OA
ENDROOT
BRANCH   1   6
ATOM      5  C   UNL     1       6.176   2.279  22.559  0.00  0.00    +0.165 C 
ATOM      6  CA  UNL     1       6.918   0.952  22.223  0.00  0.00    +0.190 C 
ATOM      7  C   UNL     1       8.079   1.898  21.804  0.00  0.00    +0.240 C 
ATOM      8  O   UNL     1       9.263   1.821  21.555  0.00  0.00    -0.273 OA
ATOM      9  N   UNL     1       7.335   3.022  22.023  0.00  0.00    -0.271 N 
ATOM     10  CA  UNL     1       7.855   4.103  22.882  0.00  0.00    +0.201 C 
ATOM     11  C   UNL     1       7.669   3.654  24.350  0.00  0.00    +0.042 C 
ATOM     12  C   UNL     1       8.807   2.712  24.807  0.00  0.00    +0.025 C 
ATOM     13  C   UNL     1       7.599   4.780  25.385  0.00  0.00    +0.025 C 
ATOM     14  S   UNL     1       6.084   2.694  24.358  0.00  0.00    -0.127 S 
BRANCH  10  15
ATOM     15  C   UNL     1       7.122   5.380  22.432  0.00  0.00    +0.327 C 
ATOM     16  OXT UNL     1       6.010   5.730  22.788  0.00  0.00    -0.249 OA
BRANCH  15  17
ATOM     17  O   UNL     1       7.909   6.196  21.679  0.00  0.00    -0.479 OA
ATOM     18  H   UNL     1       8.822   5.838  21.622  0.00  0.00    +0.295 HD
ENDBRANCH  15  17
ENDBRANCH  10  15
ENDBRANCH   1   6
BRANCH   3  19
ATOM     19  C   UNL     1       7.717  -1.938  24.529  0.00  0.00    +0.106 A 
ATOM     20  C   UNL     1       7.030  -3.147  24.908  0.00  0.00    +0.130 A 
ATOM     21  N   UNL     1       7.348  -3.473  26.171  0.00  0.00    -0.077 NA
ATOM     22  O   UNL     1       8.234  -2.524  26.619  0.00  0.00    -0.359 OA
ATOM     23  C   UNL     1       8.474  -1.619  25.639  0.00  0.00    +0.147 A 
ATOM     24  C   UNL     1       9.417  -0.536  25.986  0.00  0.00    +0.090 C 
BRANCH  20  25
ATOM     25  C   UNL     1       6.056  -3.954  24.155  0.00  0.00    +0.058 A 
ATOM     26  C   UNL     1       4.676  -3.965  24.428  0.00  0.00    +0.053 A 
ATOM     27 CL   UNL     1       3.882  -2.738  25.357  0.00  0.00    -0.083 Cl
ATOM     28  C   UNL     1       3.847  -4.964  23.897  0.00  0.00    +0.021 A 
ATOM     29  C   UNL     1       4.346  -5.879  22.975  0.00  0.00    +0.004 A 
ATOM     30  C   UNL     1       5.668  -5.774  22.563  0.00  0.00    +0.039 A 
ATOM     31  C   UNL     1       6.512  -4.837  23.161  0.00  0.00    +0.134 A 
ATOM     32  F   UNL     1       7.794  -4.835  22.768  0.00  0.00    -0.205 F 
ENDBRANCH  20  25
ENDBRANCH   3  19
TORSDOF 5
ENDMDL
MODEL 8
REMARK VINA RESULT:      -7.1      2.420      3.616
REMARK  Name = 
REMARK  8 active torsions:
REMARK  status: ('A' for Active; 'I' for Inactive)
REMARK    1  A    between atoms: C_4  and  C_5
REMARK    2  A    between atoms: C_4  and  C_6
REMARK    3  A    between atoms: CA_7  and  C_31
REMARK    4  A    between atoms: CA_12  and  N_14
REMARK    5  A    between atoms: C_15  and  C_17
REMARK    6  A    between atoms: C_18  and  C_19
REMARK    7  A    between atoms: C_22  and  C_23
REMARK    8  A    between atoms: C_31  and  O_32
REMARK                            x       y       z     vdW  Elec       q    Type
REMARK                         _______ _______ _______ _____ _____    ______ ____
ROOT
ATOM      1  N   UNL     1       6.932  -2.132  26.279  0.00  0.00    -0.298 N 
ATOM      2  H   UNL     1       7.708  -2.751  26.066  0.00  0.00    +0.150 HD
ATOM      3  C   UNL     1       5.695  -2.684  26.498  0.00  0.00    +0.250 C 
ATOM      4  O   UNL     1       4.679  -2.005  26.558  0.00  0.00    -0.270 OA
ENDROOT
BRANCH   1   6
ATOM      5  C   UNL     1       8.499  -0.261  25.536  0.00  0.00    +0.165 C 
ATOM      6  CA  UNL     1       7.159  -0.665  26.217  0.00  0.00    +0.190 C 
ATOM      7  C   UNL     1       6.514   0.117  25.038  0.00  0.00    +0.240 C 
ATOM      8  O   UNL     1       5.422   0.242  24.526  0.00  0.00    -0.273 OA
ATOM      9  N   UNL     1       7.724   0.521  24.552  0.00  0.00    -0.271 N 
ATOM     10  CA  UNL     1       8.071   0.292  23.137  0.00  0.00    +0.201 C 
ATOM     11  C   UNL     1       8.473  -1.195  22.995  0.00  0.00    +0.042 C 
ATOM     12  C   UNL     1       7.234  -2.110  22.863  0.00  0.00    +0.025 C 
ATOM     13  C   UNL     1       9.383  -1.528  21.810  0.00  0.00    +0.025 C 
ATOM     14  S   UNL     1       9.334  -1.609  24.583  0.00  0.00    -0.127 S 
BRANCH  10  15
ATOM     15  C   UNL     1       9.135   1.350  22.792  0.00  0.00    +0.327 C 
ATOM     16  OXT UNL     1      10.140   1.591  23.439  0.00  0.00    -0.249 OA
BRANCH  15  17
ATOM     17  O   UNL     1       8.925   1.927  21.577  0.00  0.00    -0.479 OA
ATOM     18  H   UNL     1       8.426   2.766  21.676  0.00  0.00    +0.295 HD
ENDBRANCH  15  17
ENDBRANCH  10  15
ENDBRANCH   1   6
BRANCH   3  19
ATOM     19  C   UNL     1       5.693  -4.124  26.657  0.00  0.00    +0.106 A 
ATOM     20  C   UNL     1       5.915  -5.189  25.712  0.00  0.00    +0.130 A 
ATOM     21  N   UNL     1       5.797  -6.376  26.330  0.00  0.00    -0.077 NA
ATOM     22  O   UNL     1       5.523  -6.115  27.650  0.00  0.00    -0.359 OA
ATOM     23  C   UNL     1       5.481  -4.776  27.855  0.00  0.00    +0.147 A 
ATOM     24  C   UNL     1       5.195  -4.352  29.242  0.00  0.00    +0.090 C 
BRANCH  20  25
ATOM     25  C   UNL     1       6.168  -5.126  24.263  0.00  0.00    +0.058 A 
ATOM     26  C   UNL     1       5.152  -4.987  23.300  0.00  0.00    +0.053 A 
ATOM     27 CL   UNL     1       3.554  -4.434  23.678  0.00  0.00    -0.083 Cl
ATOM     28  C   UNL     1       5.409  -5.238  21.944  0.00  0.00    +0.021 A 
ATOM     29  C   UNL     1       6.706  -5.491  21.507  0.00  0.00    +0.004 A 
ATOM     30  C   UNL     1       7.748  -5.462  22.423  0.00  0.00    +0.039 A 
ATOM     31  C   UNL     1       7.477  -5.302  23.783  0.00  0.00    +0.134 A 
ATOM     32  F   UNL     1       8.522  -5.354  24.621  0.00  0.00    -0.205 F 
ENDBRANCH  20  25
ENDBRANCH   3  19
TORSDOF 5
ENDMDL
MODEL 9
REMARK VINA RESULT:      -7.1      3.288      7.910
REMARK  Name = 
REMARK  8 active torsions:
REMARK  status: ('A' for Active; 'I' for Inactive)
REMARK    1  A    between atoms: C_4  and  C_5
REMARK    2  A    between atoms: C_4  and  C_6
REMARK    3  A    between atoms: CA_7  and  C_31
REMARK    4  A    between atoms: CA_12  and  N_14
REMARK    5  A    between atoms: C_15  and  C_17
REMARK    6  A    between atoms: C_18  and  C_19
REMARK    7  A    between atoms: C_22  and  C_23
REMARK    8  A    between atoms: C_31  and  O_32
REMARK                            x       y       z     vdW  Elec       q    Type
REMARK                         _______ _______ _______ _____ _____    ______ ____
ROOT
ATOM      1  N   UNL     1       8.620  -1.164  24.609  0.00  0.00    -0.298 N 
ATOM      2  H   UNL     1       7.890  -1.372  23.935  0.00  0.00    +0.150 HD
ATOM      3  C   UNL     1       9.500  -0.148  24.329  0.00  0.00    +0.250 C 
ATOM      4  O   UNL     1      10.520   0.029  24.983  0.00  0.00    -0.270 OA
ENDROOT
BRANCH   1   6
ATOM      5  C   UNL     1       7.411  -2.500  26.414  0.00  0.00    +0.165 C 
ATOM      6  CA  UNL     1       8.765  -2.052  25.791  0.00  0.00    +0.190 C 
ATOM      7  C   UNL     1       8.961  -3.573  25.533  0.00  0.00    +0.240 C 
ATOM      8  O   UNL     1       9.682  -4.293  24.876  0.00  0.00    -0.273 OA
ATOM      9  N   UNL     1       7.808  -3.904  26.184  0.00  0.00    -0.271 N 
ATOM     10  CA  UNL     1       6.799  -4.755  25.525  0.00  0.00    +0.201 C 
ATOM     11  C   UNL     1       6.020  -3.861  24.531  0.00  0.00    +0.042 C 
ATOM     12  C   UNL     1       6.784  -3.693  23.197  0.00  0.00    +0.025 C 
ATOM     13  C   UNL     1       4.614  -4.342  24.166  0.00  0.00    +0.025 C 
ATOM     14  S   UNL     1       5.923  -2.205  25.356  0.00  0.00    -0.127 S 
BRANCH  10  15
ATOM     15  C   UNL     1       6.000  -5.411  26.665  0.00  0.00    +0.327 C 
ATOM     16  OXT UNL     1       5.624  -4.859  27.686  0.00  0.00    -0.249 OA
BRANCH  15  17
ATOM     17  O   UNL     1       5.607  -6.679  26.366  0.00  0.00    -0.479 OA
ATOM     18  H   UNL     1       5.065  -6.688  25.547  0.00  0.00    +0.295 HD
ENDBRANCH  15  17
ENDBRANCH  10  15
ENDBRANCH   1   6
BRANCH   3  19
ATOM     19  C   UNL     1       9.122   0.691  23.211  0.00  0.00    +0.106 A 
ATOM     20  C   UNL     1       8.701   2.068  23.150  0.00  0.00    +0.130 A 
ATOM     21  N   UNL     1       8.443   2.408  21.877  0.00  0.00    -0.077 NA
ATOM     22  O   UNL     1       8.701   1.300  21.106  0.00  0.00    -0.359 OA
ATOM     23  C   UNL     1       9.126   0.282  21.892  0.00  0.00    +0.147 A 
ATOM     24  C   UNL     1       9.443  -0.978  21.189  0.00  0.00    +0.090 C 
BRANCH  20  25
ATOM     25  C   UNL     1       8.479   3.035  24.238  0.00  0.00    +0.058 A 
ATOM     26  C   UNL     1       7.406   2.955  25.144  0.00  0.00    +0.053 A 
ATOM     27 CL   UNL     1       6.478   1.514  25.393  0.00  0.00    -0.083 Cl
ATOM     28  C   UNL     1       7.067   4.049  25.953  0.00  0.00    +0.021 A 
ATOM     29  C   UNL     1       7.872   5.185  25.979  0.00  0.00    +0.004 A 
ATOM     30  C   UNL     1       9.032   5.210  25.217  0.00  0.00    +0.039 A 
ATOM     31  C   UNL     1       9.317   4.157  24.345  0.00  0.00    +0.134 A 
ATOM     32  F   UNL     1      10.417   4.277  23.586  0.00  0.00    -0.205 F 
ENDBRANCH  20  25
ENDBRANCH   3  19
TORSDOF 5
ENDMDL
