MODEL 1
REMARK VINA RESULT:      -8.0      0.000      0.000
REMARK  Name = 
REMARK  5 active torsions:
REMARK  status: ('A' for Active; 'I' for Inactive)
REMARK    1  A    between atoms: C_2  and  N_18
REMARK    2  A    between atoms: N_5  and  C_6
REMARK    3  A    between atoms: C_6  and  C_7
REMARK    4  A    between atoms: N_18  and  S_19
REMARK    5  A    between atoms: S_19  and  C_22
REMARK                            x       y       z     vdW  Elec       q    Type
REMARK                         _______ _______ _______ _____ _____    ______ ____
ROOT
ATOM      1  C   UNL     1       8.366  -2.580  23.041  0.00  0.00    +0.164 C 
ATOM      2  C   UNL     1       8.697  -1.639  24.188  0.00  0.00    +0.235 C 
ATOM      3  O   UNL     1       8.227  -1.663  25.312  0.00  0.00    -0.274 OA
ATOM      4  N   UNL     1       9.647  -0.733  23.753  0.00  0.00    -0.294 N 
ATOM      5  C   UNL     1      10.165  -1.094  22.463  0.00  0.00    +0.110 C 
ATOM      6  C   UNL     1       9.017  -1.869  21.845  0.00  0.00    +0.049 C 
ENDROOT
BRANCH   1   7
ATOM      7  N   UNL     1       6.935  -2.801  22.763  0.00  0.00    -0.178 NA
ATOM      8  H   UNL     1       6.288  -2.273  23.347  0.00  0.00    +0.149 HD
BRANCH   7   9
ATOM      9  S   UNL     1       6.405  -4.405  22.614  0.00  0.00    +0.065 S 
ATOM     10  O   UNL     1       7.409  -5.162  21.906  0.00  0.00    -0.153 OA
ATOM     11  O   UNL     1       5.033  -4.338  22.156  0.00  0.00    -0.153 OA
BRANCH   9  12
ATOM     12  C   UNL     1       6.295  -5.109  24.238  0.00  0.00    +0.145 A 
ATOM     13  S   UNL     1       4.851  -5.964  24.582  0.00  0.00    -0.067 S 
ATOM     14  C   UNL     1       5.299  -6.208  26.222  0.00  0.00    +0.039 A 
ATOM     15  C   UNL     1       4.575  -6.842  27.241  0.00  0.00    +0.019 A 
ATOM     16  C   UNL     1       5.152  -6.869  28.507  0.00  0.00    +0.021 A 
ATOM     17  C   UNL     1       6.394  -6.288  28.688  0.00  0.00    +0.111 A 
ATOM     18  N   UNL     1       7.121  -5.690  27.725  0.00  0.00    -0.254 NA
ATOM     19  C   UNL     1       6.554  -5.661  26.488  0.00  0.00    +0.080 A 
ATOM     20  C   UNL     1       7.135  -5.069  25.333  0.00  0.00    +0.064 A 
ENDBRANCH   9  12
ENDBRANCH   7   9
ENDBRANCH   1   7
BRANCH   4  21
ATOM     21  C   UNL     1      10.334   0.175  24.645  0.00  0.00    +0.160 C 
BRANCH  21  22
ATOM     22  C   UNL     1       9.781   1.547  24.499  0.00  0.00    +0.035 A 
ATOM     23  N   UNL     1       8.703   1.989  25.237  0.00  0.00    -0.355 N 
ATOM     24  H   UNL     1       8.174   1.412  25.882  0.00  0.00    +0.166 HD
ATOM     25  C   UNL     1       8.517   3.341  25.052  0.00  0.00    +0.065 A 
ATOM     26  C   UNL     1       7.618   4.223  25.638  0.00  0.00    +0.136 A 
ATOM     27  N   UNL     1       7.670   5.534  25.312  0.00  0.00    -0.261 NA
ATOM     28  C   UNL     1       8.597   5.951  24.418  0.00  0.00    +0.111 A 
ATOM     29  C   UNL     1       9.510   5.123  23.782  0.00  0.00    +0.029 A 
ATOM     30  C   UNL     1       9.465   3.765  24.121  0.00  0.00    +0.003 A 
ATOM     31  C   UNL     1      10.227   2.623  23.752  0.00  0.00    +0.032 A 
ENDBRANCH  21  22
ENDBRANCH   4  21
TORSDOF 5
ENDMDL
MODEL 2
REMARK VINA RESULT:      -7.9      2.272      2.950
REMARK  Name = 
REMARK  5 active torsions:
REMARK  status: ('A' for Active; 'I' for Inactive)
REMARK    1  A    between atoms: C_2  and  N_18
REMARK    2  A    between atoms: N_5  and  C_6
REMARK    3  A    between atoms: C_6  and  C_7
REMARK    4  A    between atoms: N_18  and  S_19
REMARK    5  A    between atoms: S_19  and  C_22
REMARK                            x       y       z     vdW  Elec       q    Type
REMARK                         _______ _______ _______ _____ _____    ______ ____
ROOT
ATOM      1  C   UNL     1       7.505  -0.728  23.748  0.00  0.00    +0.164 C 
ATOM      2  C   UNL     1       8.185   0.361  22.933  0.00  0.00    +0.235 C 
ATOM      3  O   UNL     1       9.156   0.232  22.210  0.00  0.00    -0.274 OA
ATOM      4  N   UNL     1       7.506   1.548  23.134  0.00  0.00    -0.294 N 
ATOM      5  C   UNL     1       6.280   1.338  23.853  0.00  0.00    +0.110 C 
ATOM      6  C   UNL     1       6.575   0.087  24.660  0.00  0.00    +0.049 C 
ENDROOT
BRANCH   1   7
ATOM      7  N   UNL     1       8.383  -1.577  24.574  0.00  0.00    -0.178 NA
ATOM      8  H   UNL     1       9.266  -1.151  24.855  0.00  0.00    +0.149 HD
BRANCH   7   9
ATOM      9  S   UNL     1       8.646  -3.170  24.057  0.00  0.00    +0.065 S 
ATOM     10  O   UNL     1      10.053  -3.470  24.174  0.00  0.00    -0.153 OA
ATOM     11  O   UNL     1       7.936  -3.312  22.803  0.00  0.00    -0.153 OA
BRANCH   9  12
ATOM     12  C   UNL     1       7.802  -4.265  25.169  0.00  0.00    +0.145 A 
ATOM     13  S   UNL     1       6.291  -4.858  24.624  0.00  0.00    -0.067 S 
ATOM     14  C   UNL     1       5.978  -5.643  26.119  0.00  0.00    +0.039 A 
ATOM     15  C   UNL     1       4.844  -6.372  26.503  0.00  0.00    +0.019 A 
ATOM     16  C   UNL     1       4.822  -6.875  27.800  0.00  0.00    +0.021 A 
ATOM     17  C   UNL     1       5.907  -6.643  28.625  0.00  0.00    +0.111 A 
ATOM     18  N   UNL     1       7.017  -5.965  28.278  0.00  0.00    -0.254 NA
ATOM     19  C   UNL     1       7.036  -5.470  27.011  0.00  0.00    +0.080 A 
ATOM     20  C   UNL     1       8.096  -4.712  26.441  0.00  0.00    +0.064 A 
ENDBRANCH   9  12
ENDBRANCH   7   9
ENDBRANCH   1   7
BRANCH   4  21
ATOM     21  C   UNL     1       7.759   2.740  22.354  0.00  0.00    +0.160 C 
BRANCH  21  22
ATOM     22  C   UNL     1       8.817   3.558  23.006  0.00  0.00    +0.035 A 
ATOM     23  N   UNL     1      10.159   3.290  22.844  0.00  0.00    -0.355 N 
ATOM     24  H   UNL     1      10.528   2.499  22.328  0.00  0.00    +0.166 HD
ATOM     25  C   UNL     1      10.919   4.301  23.389  0.00  0.00    +0.065 A 
ATOM     26  C   UNL     1      12.294   4.501  23.398  0.00  0.00    +0.136 A 
ATOM     27  N   UNL     1      12.796   5.616  23.972  0.00  0.00    -0.261 NA
ATOM     28  C   UNL     1      11.943   6.508  24.528  0.00  0.00    +0.111 A 
ATOM     29  C   UNL     1      10.564   6.362  24.571  0.00  0.00    +0.029 A 
ATOM     30  C   UNL     1      10.039   5.212  23.972  0.00  0.00    +0.003 A 
ATOM     31  C   UNL     1       8.723   4.715  23.758  0.00  0.00    +0.032 A 
ENDBRANCH  21  22
ENDBRANCH   4  21
TORSDOF 5
ENDMDL
MODEL 3
REMARK VINA RESULT:      -7.6      2.450      3.148
REMARK  Name = 
REMARK  5 active torsions:
REMARK  status: ('A' for Active; 'I' for Inactive)
REMARK    1  A    between atoms: C_2  and  N_18
REMARK    2  A    between atoms: N_5  and  C_6
REMARK    3  A    between atoms: C_6  and  C_7
REMARK    4  A    between atoms: N_18  and  S_19
REMARK    5  A    between atoms: S_19  and  C_22
REMARK                            x       y       z     vdW  Elec       q    Type
REMARK                         _______ _______ _______ _____ _____    ______ ____
ROOT
ATOM      1  C   UNL     1       9.538  -1.894  23.903  0.00  0.00    +0.164 C 
ATOM      2  C   UNL     1       9.996  -0.444  23.874  0.00  0.00    +0.235 C 
ATOM      3  O   UNL     1      10.565   0.159  24.767  0.00  0.00    -0.274 OA
ATOM      4  N   UNL     1       9.671   0.096  22.644  0.00  0.00    -0.294 N 
ATOM      5  C   UNL     1       9.215  -0.915  21.730  0.00  0.00    +0.110 C 
ATOM      6  C   UNL     1       8.641  -1.971  22.657  0.00  0.00    +0.049 C 
ENDROOT
BRANCH   1   7
ATOM      7  N   UNL     1       8.770  -2.319  25.087  0.00  0.00    -0.178 NA
ATOM      8  H   UNL     1       8.956  -1.794  25.941  0.00  0.00    +0.149 HD
BRANCH   7   9
ATOM      9  S   UNL     1       8.712  -3.979  25.429  0.00  0.00    +0.065 S 
ATOM     10  O   UNL     1       8.831  -4.163  26.855  0.00  0.00    -0.153 OA
ATOM     11  O   UNL     1       9.617  -4.617  24.497  0.00  0.00    -0.153 OA
BRANCH   9  12
ATOM     12  C   UNL     1       7.109  -4.586  24.973  0.00  0.00    +0.145 A 
ATOM     13  S   UNL     1       6.365  -5.640  26.099  0.00  0.00    -0.067 S 
ATOM     14  C   UNL     1       5.045  -5.953  25.046  0.00  0.00    +0.039 A 
ATOM     15  C   UNL     1       3.950  -6.805  25.246  0.00  0.00    +0.019 A 
ATOM     16  C   UNL     1       3.031  -6.911  24.206  0.00  0.00    +0.021 A 
ATOM     17  C   UNL     1       3.237  -6.174  23.054  0.00  0.00    +0.111 A 
ATOM     18  N   UNL     1       4.266  -5.333  22.842  0.00  0.00    -0.254 NA
ATOM     19  C   UNL     1       5.166  -5.233  23.858  0.00  0.00    +0.080 A 
ATOM     20  C   UNL     1       6.333  -4.420  23.843  0.00  0.00    +0.064 A 
ENDBRANCH   9  12
ENDBRANCH   7   9
ENDBRANCH   1   7
BRANCH   4  21
ATOM     21  C   UNL     1      10.142   1.391  22.204  0.00  0.00    +0.160 C 
BRANCH  21  22
ATOM     22  C   UNL     1       9.148   2.439  22.556  0.00  0.00    +0.035 A 
ATOM     23  N   UNL     1       9.499   3.590  23.229  0.00  0.00    -0.355 N 
ATOM     24  H   UNL     1      10.428   3.787  23.582  0.00  0.00    +0.166 HD
ATOM     25  C   UNL     1       8.440   4.470  23.257  0.00  0.00    +0.065 A 
ATOM     26  C   UNL     1       8.348   5.766  23.749  0.00  0.00    +0.136 A 
ATOM     27  N   UNL     1       7.187   6.444  23.613  0.00  0.00    -0.261 NA
ATOM     28  C   UNL     1       6.142   5.839  23.003  0.00  0.00    +0.111 A 
ATOM     29  C   UNL     1       6.158   4.544  22.506  0.00  0.00    +0.029 A 
ATOM     30  C   UNL     1       7.360   3.839  22.639  0.00  0.00    +0.003 A 
ATOM     31  C   UNL     1       7.806   2.550  22.237  0.00  0.00    +0.032 A 
ENDBRANCH  21  22
ENDBRANCH   4  21
TORSDOF 5
ENDMDL
MODEL 4
REMARK VINA RESULT:      -7.6      2.826      3.653
REMARK  Name = 
REMARK  5 active torsions:
REMARK  status: ('A' for Active; 'I' for Inactive)
REMARK    1  A    between atoms: C_2  and  N_18
REMARK    2  A    between atoms: N_5  and  C_6
REMARK    3  A    between atoms: C_6  and  C_7
REMARK    4  A    between atoms: N_18  and  S_19
REMARK    5  A    between atoms: S_19  and  C_22
REMARK                            x       y       z     vdW  Elec       q    Type
REMARK                         _______ _______ _______ _____ _____    ______ ____
ROOT
ATOM      1  C   UNL     1       9.092  -1.966  24.132  0.00  0.00    +0.164 C 
ATOM      2  C   UNL     1       8.835  -1.414  22.738  0.00  0.00    +0.235 C 
ATOM      3  O   UNL     1       8.327  -2.005  21.802  0.00  0.00    -0.274 OA
ATOM      4  N   UNL     1       9.268  -0.102  22.699  0.00  0.00    -0.294 N 
ATOM      5  C   UNL     1       9.611   0.379  24.008  0.00  0.00    +0.110 C 
ATOM      6  C   UNL     1      10.008  -0.891  24.738  0.00  0.00    +0.049 C 
ENDROOT
BRANCH   1   7
ATOM      7  N   UNL     1       9.759  -3.279  24.207  0.00  0.00    -0.178 NA
ATOM      8  H   UNL     1      10.087  -3.656  23.319  0.00  0.00    +0.149 HD
BRANCH   7   9
ATOM      9  S   UNL     1       8.992  -4.496  25.106  0.00  0.00    +0.065 S 
ATOM     10  O   UNL     1       9.089  -4.168  26.508  0.00  0.00    -0.153 OA
ATOM     11  O   UNL     1       9.476  -5.755  24.580  0.00  0.00    -0.153 OA
BRANCH   9  12
ATOM     12  C   UNL     1       7.265  -4.484  24.702  0.00  0.00    +0.145 A 
ATOM     13  S   UNL     1       6.220  -3.894  25.923  0.00  0.00    -0.067 S 
ATOM     14  C   UNL     1       4.817  -4.287  25.015  0.00  0.00    +0.039 A 
ATOM     15  C   UNL     1       3.470  -4.130  25.374  0.00  0.00    +0.019 A 
ATOM     16  C   UNL     1       2.516  -4.572  24.464  0.00  0.00    +0.021 A 
ATOM     17  C   UNL     1       2.938  -5.123  23.267  0.00  0.00    +0.111 A 
ATOM     18  N   UNL     1       4.221  -5.268  22.887  0.00  0.00    -0.254 NA
ATOM     19  C   UNL     1       5.154  -4.838  23.780  0.00  0.00    +0.080 A 
ATOM     20  C   UNL     1       6.562  -4.909  23.593  0.00  0.00    +0.064 A 
ENDBRANCH   9  12
ENDBRANCH   7   9
ENDBRANCH   1   7
BRANCH   4  21
ATOM     21  C   UNL     1       8.990   0.784  21.590  0.00  0.00    +0.160 C 
BRANCH  21  22
ATOM     22  C   UNL     1       8.055   1.858  22.019  0.00  0.00    +0.035 A 
ATOM     23  N   UNL     1       8.423   3.186  22.051  0.00  0.00    -0.355 N 
ATOM     24  H   UNL     1       9.355   3.528  21.846  0.00  0.00    +0.166 HD
ATOM     25  C   UNL     1       7.326   3.982  22.296  0.00  0.00    +0.065 A 
ATOM     26  C   UNL     1       7.198   5.364  22.341  0.00  0.00    +0.136 A 
ATOM     27  N   UNL     1       5.981   5.909  22.561  0.00  0.00    -0.261 NA
ATOM     28  C   UNL     1       4.918   5.089  22.736  0.00  0.00    +0.111 A 
ATOM     29  C   UNL     1       4.977   3.703  22.722  0.00  0.00    +0.029 A 
ATOM     30  C   UNL     1       6.235   3.134  22.488  0.00  0.00    +0.003 A 
ATOM     31  C   UNL     1       6.713   1.802  22.349  0.00  0.00    +0.032 A 
ENDBRANCH  21  22
ENDBRANCH   4  21
TORSDOF 5
ENDMDL
MODEL 5
REMARK VINA RESULT:      -7.6      2.721      3.480
REMARK  Name = 
REMARK  5 active torsions:
REMARK  status: ('A' for Active; 'I' for Inactive)
REMARK    1  A    between atoms: C_2  and  N_18
REMARK    2  A    between atoms: N_5  and  C_6
REMARK    3  A    between atoms: C_6  and  C_7
REMARK    4  A    between atoms: N_18  and  S_19
REMARK    5  A    between atoms: S_19  and  C_22
REMARK                            x       y       z     vdW  Elec       q    Type
REMARK                         _______ _______ _______ _____ _____    ______ ____
ROOT
ATOM      1  C   UNL     1       8.303  -1.958  23.631  0.00  0.00    +0.164 C 
ATOM      2  C   UNL     1       8.760  -0.968  22.572  0.00  0.00    +0.235 C 
ATOM      3  O   UNL     1       9.358  -1.224  21.543  0.00  0.00    -0.274 OA
ATOM      4  N   UNL     1       8.373   0.301  22.961  0.00  0.00    -0.294 N 
ATOM      5  C   UNL     1       7.495   0.258  24.098  0.00  0.00    +0.110 C 
ATOM      6  C   UNL     1       7.905  -1.029  24.789  0.00  0.00    +0.049 C 
ENDROOT
BRANCH   1   7
ATOM      7  N   UNL     1       9.307  -2.928  24.103  0.00  0.00    -0.178 NA
ATOM      8  H   UNL     1       9.988  -3.228  23.407  0.00  0.00    +0.149 HD
BRANCH   7   9
ATOM      9  S   UNL     1       8.750  -4.268  24.983  0.00  0.00    +0.065 S 
ATOM     10  O   UNL     1       8.800  -3.951  26.390  0.00  0.00    -0.153 OA
ATOM     11  O   UNL     1       9.426  -5.424  24.434  0.00  0.00    -0.153 OA
BRANCH   9  12
ATOM     12  C   UNL     1       7.041  -4.525  24.584  0.00  0.00    +0.145 A 
ATOM     13  S   UNL     1       5.929  -4.230  25.853  0.00  0.00    -0.067 S 
ATOM     14  C   UNL     1       4.601  -4.786  24.917  0.00  0.00    +0.039 A 
ATOM     15  C   UNL     1       3.254  -4.898  25.290  0.00  0.00    +0.019 A 
ATOM     16  C   UNL     1       2.377  -5.424  24.347  0.00  0.00    +0.021 A 
ATOM     17  C   UNL     1       2.868  -5.792  23.108  0.00  0.00    +0.111 A 
ATOM     18  N   UNL     1       4.150  -5.678  22.714  0.00  0.00    -0.254 NA
ATOM     19  C   UNL     1       5.009  -5.167  23.639  0.00  0.00    +0.080 A 
ATOM     20  C   UNL     1       6.405  -4.974  23.444  0.00  0.00    +0.064 A 
ENDBRANCH   9  12
ENDBRANCH   7   9
ENDBRANCH   1   7
BRANCH   4  21
ATOM     21  C   UNL     1       8.468   1.453  22.091  0.00  0.00    +0.160 C 
BRANCH  21  22
ATOM     22  C   UNL     1       9.199   2.550  22.778  0.00  0.00    +0.035 A 
ATOM     23  N   UNL     1      10.563   2.715  22.658  0.00  0.00    -0.355 N 
ATOM     24  H   UNL     1      11.174   2.084  22.151  0.00  0.00    +0.166 HD
ATOM     25  C   UNL     1      10.954   3.904  23.231  0.00  0.00    +0.065 A 
ATOM     26  C   UNL     1      12.198   4.522  23.283  0.00  0.00    +0.136 A 
ATOM     27  N   UNL     1      12.311   5.730  23.878  0.00  0.00    -0.261 NA
ATOM     28  C   UNL     1      11.208   6.306  24.409  0.00  0.00    +0.111 A 
ATOM     29  C   UNL     1       9.942   5.738  24.408  0.00  0.00    +0.029 A 
ATOM     30  C   UNL     1       9.818   4.489  23.788  0.00  0.00    +0.003 A 
ATOM     31  C   UNL     1       8.729   3.611  23.531  0.00  0.00    +0.032 A 
ENDBRANCH  21  22
ENDBRANCH   4  21
TORSDOF 5
ENDMDL
MODEL 6
REMARK VINA RESULT:      -7.5      1.738      2.077
REMARK  Name = 
REMARK  5 active torsions:
REMARK  status: ('A' for Active; 'I' for Inactive)
REMARK    1  A    between atoms: C_2  and  N_18
REMARK    2  A    between atoms: N_5  and  C_6
REMARK    3  A    between atoms: C_6  and  C_7
REMARK    4  A    between atoms: N_18  and  S_19
REMARK    5  A    between atoms: S_19  and  C_22
REMARK                            x       y       z     vdW  Elec       q    Type
REMARK                         _______ _______ _______ _____ _____    ______ ____
ROOT
ATOM      1  C   UNL     1       9.362  -2.215  23.559  0.00  0.00    +0.164 C 
ATOM      2  C   UNL     1       9.745  -0.909  24.235  0.00  0.00    +0.235 C 
ATOM      3  O   UNL     1       9.904  -0.724  25.429  0.00  0.00    -0.274 OA
ATOM      4  N   UNL     1       9.900   0.061  23.262  0.00  0.00    -0.294 N 
ATOM      5  C   UNL     1       9.868  -0.507  21.943  0.00  0.00    +0.110 C 
ATOM      6  C   UNL     1       9.018  -1.750  22.134  0.00  0.00    +0.049 C 
ENDROOT
BRANCH   1   7
ATOM      7  N   UNL     1       8.212  -2.940  24.129  0.00  0.00    -0.178 NA
ATOM      8  H   UNL     1       7.834  -2.552  24.992  0.00  0.00    +0.149 HD
BRANCH   7   9
ATOM      9  S   UNL     1       8.334  -4.627  24.256  0.00  0.00    +0.065 S 
ATOM     10  O   UNL     1       9.701  -4.970  24.566  0.00  0.00    -0.153 OA
ATOM     11  O   UNL     1       7.651  -5.172  23.103  0.00  0.00    -0.153 OA
BRANCH   9  12
ATOM     12  C   UNL     1       7.356  -5.155  25.639  0.00  0.00    +0.145 A 
ATOM     13  S   UNL     1       5.763  -5.664  25.272  0.00  0.00    -0.067 S 
ATOM     14  C   UNL     1       5.363  -5.855  26.931  0.00  0.00    +0.039 A 
ATOM     15  C   UNL     1       4.139  -6.240  27.497  0.00  0.00    +0.019 A 
ATOM     16  C   UNL     1       4.066  -6.277  28.885  0.00  0.00    +0.021 A 
ATOM     17  C   UNL     1       5.189  -5.949  29.623  0.00  0.00    +0.111 A 
ATOM     18  N   UNL     1       6.382  -5.596  29.108  0.00  0.00    -0.254 NA
ATOM     19  C   UNL     1       6.451  -5.556  27.750  0.00  0.00    +0.080 A 
ATOM     20  C   UNL     1       7.602  -5.195  26.997  0.00  0.00    +0.064 A 
ENDBRANCH   9  12
ENDBRANCH   7   9
ENDBRANCH   1   7
BRANCH   4  21
ATOM     21  C   UNL     1      10.459   1.367  23.536  0.00  0.00    +0.160 C 
BRANCH  21  22
ATOM     22  C   UNL     1       9.367   2.365  23.688  0.00  0.00    +0.035 A 
ATOM     23  N   UNL     1       8.986   3.201  22.660  0.00  0.00    -0.355 N 
ATOM     24  H   UNL     1       9.443   3.245  21.756  0.00  0.00    +0.166 HD
ATOM     25  C   UNL     1       7.839   3.884  22.999  0.00  0.00    +0.065 A 
ATOM     26  C   UNL     1       7.055   4.764  22.263  0.00  0.00    +0.136 A 
ATOM     27  N   UNL     1       5.934   5.274  22.820  0.00  0.00    -0.261 NA
ATOM     28  C   UNL     1       5.607   4.915  24.083  0.00  0.00    +0.111 A 
ATOM     29  C   UNL     1       6.353   4.057  24.879  0.00  0.00    +0.029 A 
ATOM     30  C   UNL     1       7.511   3.521  24.305  0.00  0.00    +0.003 A 
ATOM     31  C   UNL     1       8.500   2.596  24.740  0.00  0.00    +0.032 A 
ENDBRANCH  21  22
ENDBRANCH   4  21
TORSDOF 5
ENDMDL
MODEL 7
REMARK VINA RESULT:      -7.5      2.959      3.638
REMARK  Name = 
REMARK  5 active torsions:
REMARK  status: ('A' for Active; 'I' for Inactive)
REMARK    1  A    between atoms: C_2  and  N_18
REMARK    2  A    between atoms: N_5  and  C_6
REMARK    3  A    between atoms: C_6  and  C_7
REMARK    4  A    between atoms: N_18  and  S_19
REMARK    5  A    between atoms: S_19  and  C_22
REMARK                            x       y       z     vdW  Elec       q    Type
REMARK                         _______ _______ _______ _____ _____    ______ ____
ROOT
ATOM      1  C   UNL     1       7.991  -3.072  24.058  0.00  0.00    +0.164 C 
ATOM      2  C   UNL     1       8.086  -2.316  22.742  0.00  0.00    +0.235 C 
ATOM      3  O   UNL     1       7.175  -2.079  21.969  0.00  0.00    -0.274 OA
ATOM      4  N   UNL     1       9.397  -1.919  22.557  0.00  0.00    -0.294 N 
ATOM      5  C   UNL     1      10.187  -2.148  23.735  0.00  0.00    +0.110 C 
ATOM      6  C   UNL     1       9.471  -3.309  24.399  0.00  0.00    +0.049 C 
ENDROOT
BRANCH   1   7
ATOM      7  N   UNL     1       7.282  -4.364  24.025  0.00  0.00    -0.178 NA
ATOM      8  H   UNL     1       6.854  -4.607  23.132  0.00  0.00    +0.149 HD
BRANCH   7   9
ATOM      9  S   UNL     1       6.206  -4.699  25.293  0.00  0.00    +0.065 S 
ATOM     10  O   UNL     1       5.624  -3.459  25.747  0.00  0.00    -0.153 OA
ATOM     11  O   UNL     1       6.905  -5.591  26.194  0.00  0.00    -0.153 OA
BRANCH   9  12
ATOM     12  C   UNL     1       4.873  -5.677  24.650  0.00  0.00    +0.145 A 
ATOM     13  S   UNL     1       3.829  -4.880  23.551  0.00  0.00    -0.067 S 
ATOM     14  C   UNL     1       2.769  -6.229  23.467  0.00  0.00    +0.039 A 
ATOM     15  C   UNL     1       1.571  -6.356  22.750  0.00  0.00    +0.019 A 
ATOM     16  C   UNL     1       0.873  -7.551  22.887  0.00  0.00    +0.021 A 
ATOM     17  C   UNL     1       1.394  -8.539  23.702  0.00  0.00    +0.111 A 
ATOM     18  N   UNL     1       2.550  -8.454  24.387  0.00  0.00    -0.254 NA
ATOM     19  C   UNL     1       3.230  -7.283  24.254  0.00  0.00    +0.080 A 
ATOM     20  C   UNL     1       4.460  -6.971  24.897  0.00  0.00    +0.064 A 
ENDBRANCH   9  12
ENDBRANCH   7   9
ENDBRANCH   1   7
BRANCH   4  21
ATOM     21  C   UNL     1       9.802  -1.006  21.510  0.00  0.00    +0.160 C 
BRANCH  21  22
ATOM     22  C   UNL     1       9.530   0.396  21.926  0.00  0.00    +0.035 A 
ATOM     23  N   UNL     1       8.409   1.082  21.511  0.00  0.00    -0.355 N 
ATOM     24  H   UNL     1       7.723   0.720  20.859  0.00  0.00    +0.166 HD
ATOM     25  C   UNL     1       8.302   2.278  22.187  0.00  0.00    +0.065 A 
ATOM     26  C   UNL     1       7.312   3.252  22.159  0.00  0.00    +0.136 A 
ATOM     27  N   UNL     1       7.423   4.331  22.964  0.00  0.00    -0.261 NA
ATOM     28  C   UNL     1       8.501   4.435  23.776  0.00  0.00    +0.111 A 
ATOM     29  C   UNL     1       9.534   3.511  23.841  0.00  0.00    +0.029 A 
ATOM     30  C   UNL     1       9.420   2.388  23.013  0.00  0.00    +0.003 A 
ATOM     31  C   UNL     1      10.203   1.218  22.811  0.00  0.00    +0.032 A 
ENDBRANCH  21  22
ENDBRANCH   4  21
TORSDOF 5
ENDMDL
MODEL 8
REMARK VINA RESULT:      -7.4      1.786      2.099
REMARK  Name = 
REMARK  5 active torsions:
REMARK  status: ('A' for Active; 'I' for Inactive)
REMARK    1  A    between atoms: C_2  and  N_18
REMARK    2  A    between atoms: N_5  and  C_6
REMARK    3  A    between atoms: C_6  and  C_7
REMARK    4  A    between atoms: N_18  and  S_19
REMARK    5  A    between atoms: S_19  and  C_22
REMARK                            x       y       z     vdW  Elec       q    Type
REMARK                         _______ _______ _______ _____ _____    ______ ____
ROOT
ATOM      1  C   UNL     1       9.262  -2.420  23.581  0.00  0.00    +0.164 C 
ATOM      2  C   UNL     1       9.412  -1.270  24.564  0.00  0.00    +0.235 C 
ATOM      3  O   UNL     1       9.195  -1.300  25.762  0.00  0.00    -0.274 OA
ATOM      4  N   UNL     1       9.855  -0.157  23.873  0.00  0.00    -0.294 N 
ATOM      5  C   UNL     1      10.233  -0.489  22.527  0.00  0.00    +0.110 C 
ATOM      6  C   UNL     1       9.371  -1.701  22.227  0.00  0.00    +0.049 C 
ENDROOT
BRANCH   1   7
ATOM      7  N   UNL     1       7.995  -3.172  23.636  0.00  0.00    -0.178 NA
ATOM      8  H   UNL     1       7.256  -2.746  24.193  0.00  0.00    +0.149 HD
BRANCH   7   9
ATOM      9  S   UNL     1       8.085  -4.834  23.967  0.00  0.00    +0.065 S 
ATOM     10  O   UNL     1       9.409  -5.138  24.453  0.00  0.00    -0.153 OA
ATOM     11  O   UNL     1       7.517  -5.508  22.819  0.00  0.00    -0.153 OA
BRANCH   9  12
ATOM     12  C   UNL     1       6.964  -5.200  25.293  0.00  0.00    +0.145 A 
ATOM     13  S   UNL     1       7.589  -4.991  26.873  0.00  0.00    -0.067 S 
ATOM     14  C   UNL     1       6.167  -5.625  27.598  0.00  0.00    +0.039 A 
ATOM     15  C   UNL     1       5.895  -5.830  28.958  0.00  0.00    +0.019 A 
ATOM     16  C   UNL     1       4.670  -6.404  29.281  0.00  0.00    +0.021 A 
ATOM     17  C   UNL     1       3.793  -6.727  28.261  0.00  0.00    +0.111 A 
ATOM     18  N   UNL     1       4.018  -6.524  26.949  0.00  0.00    -0.254 NA
ATOM     19  C   UNL     1       5.218  -5.966  26.634  0.00  0.00    +0.080 A 
ATOM     20  C   UNL     1       5.670  -5.679  25.316  0.00  0.00    +0.064 A 
ENDBRANCH   9  12
ENDBRANCH   7   9
ENDBRANCH   1   7
BRANCH   4  21
ATOM     21  C   UNL     1      10.297   1.053  24.533  0.00  0.00    +0.160 C 
BRANCH  21  22
ATOM     22  C   UNL     1       9.472   2.206  24.084  0.00  0.00    +0.035 A 
ATOM     23  N   UNL     1       9.868   3.513  24.274  0.00  0.00    -0.355 N 
ATOM     24  H   UNL     1      10.704   3.792  24.774  0.00  0.00    +0.166 HD
ATOM     25  C   UNL     1       9.026   4.371  23.602  0.00  0.00    +0.065 A 
ATOM     26  C   UNL     1       9.074   5.750  23.441  0.00  0.00    +0.136 A 
ATOM     27  N   UNL     1       8.136   6.360  22.683  0.00  0.00    -0.261 NA
ATOM     28  C   UNL     1       7.172   5.609  22.103  0.00  0.00    +0.111 A 
ATOM     29  C   UNL     1       7.054   4.233  22.235  0.00  0.00    +0.029 A 
ATOM     30  C   UNL     1       8.027   3.596  23.014  0.00  0.00    +0.003 A 
ATOM     31  C   UNL     1       8.296   2.242  23.356  0.00  0.00    +0.032 A 
ENDBRANCH  21  22
ENDBRANCH   4  21
TORSDOF 5
ENDMDL
MODEL 9
REMARK VINA RESULT:      -7.3      3.046      4.489
REMARK  Name = 
REMARK  5 active torsions:
REMARK  status: ('A' for Active; 'I' for Inactive)
REMARK    1  A    between atoms: C_2  and  N_18
REMARK    2  A    between atoms: N_5  and  C_6
REMARK    3  A    between atoms: C_6  and  C_7
REMARK    4  A    between atoms: N_18  and  S_19
REMARK    5  A    between atoms: S_19  and  C_22
REMARK                            x       y       z     vdW  Elec       q    Type
REMARK                         _______ _______ _______ _____ _____    ______ ____
ROOT
ATOM      1  C   UNL     1       7.429  -4.867  26.323  0.00  0.00    +0.164 C 
ATOM      2  C   UNL     1       8.657  -4.739  25.435  0.00  0.00    +0.235 C 
ATOM      3  O   UNL     1       9.396  -5.639  25.078  0.00  0.00    -0.274 OA
ATOM      4  N   UNL     1       8.804  -3.412  25.076  0.00  0.00    -0.294 N 
ATOM      5  C   UNL     1       7.660  -2.633  25.463  0.00  0.00    +0.110 C 
ATOM      6  C   UNL     1       7.121  -3.399  26.656  0.00  0.00    +0.049 C 
ENDROOT
BRANCH   1   7
ATOM      7  N   UNL     1       7.597  -5.631  27.572  0.00  0.00    -0.178 NA
ATOM      8  H   UNL     1       8.249  -6.412  27.525  0.00  0.00    +0.149 HD
BRANCH   7   9
ATOM      9  S   UNL     1       6.191  -6.098  28.399  0.00  0.00    +0.065 S 
ATOM     10  O   UNL     1       5.777  -5.015  29.258  0.00  0.00    -0.153 OA
ATOM     11  O   UNL     1       6.445  -7.427  28.913  0.00  0.00    -0.153 OA
BRANCH   9  12
ATOM     12  C   UNL     1       4.894  -6.324  27.210  0.00  0.00    +0.145 A 
ATOM     13  S   UNL     1       3.515  -5.331  27.417  0.00  0.00    -0.067 S 
ATOM     14  C   UNL     1       2.666  -6.119  26.149  0.00  0.00    +0.039 A 
ATOM     15  C   UNL     1       1.361  -5.886  25.693  0.00  0.00    +0.019 A 
ATOM     16  C   UNL     1       0.892  -6.701  24.668  0.00  0.00    +0.021 A 
ATOM     17  C   UNL     1       1.728  -7.675  24.153  0.00  0.00    +0.111 A 
ATOM     18  N   UNL     1       2.992  -7.909  24.555  0.00  0.00    -0.254 NA
ATOM     19  C   UNL     1       3.448  -7.113  25.561  0.00  0.00    +0.080 A 
ATOM     20  C   UNL     1       4.740  -7.195  26.151  0.00  0.00    +0.064 A 
ENDBRANCH   9  12
ENDBRANCH   7   9
ENDBRANCH   1   7
BRANCH   4  21
ATOM     21  C   UNL     1       9.748  -2.969  24.074  0.00  0.00    +0.160 C 
BRANCH  21  22
ATOM     22  C   UNL     1       9.615  -1.502  23.864  0.00  0.00    +0.035 A 
ATOM     23  N   UNL     1       8.972  -0.971  22.767  0.00  0.00    -0.355 N 
ATOM     24  H   UNL     1       8.595  -1.520  22.001  0.00  0.00    +0.166 HD
ATOM     25  C   UNL     1       8.821   0.390  22.912  0.00  0.00    +0.065 A 
ATOM     26  C   UNL     1       8.176   1.324  22.110  0.00  0.00    +0.136 A 
ATOM     27  N   UNL     1       8.133   2.616  22.504  0.00  0.00    -0.261 NA
ATOM     28  C   UNL     1       8.724   2.966  23.670  0.00  0.00    +0.111 A 
ATOM     29  C   UNL     1       9.399   2.090  24.508  0.00  0.00    +0.029 A 
ATOM     30  C   UNL     1       9.442   0.750  24.108  0.00  0.00    +0.003 A 
ATOM     31  C   UNL     1       9.970  -0.442  24.678  0.00  0.00    +0.032 A 
ENDBRANCH  21  22
ENDBRANCH   4  21
TORSDOF 5
ENDMDL
