MODEL 1
REMARK VINA RESULT:      -6.9      0.000      0.000
REMARK  Name = 
REMARK  11 active torsions:
REMARK  status: ('A' for Active; 'I' for Inactive)
REMARK    1  A    between atoms: N_1  and  CA_2
REMARK    2  A    between atoms: CA_2  and  C_4
REMARK    3  A    between atoms: CA_2  and  C_6
REMARK    4  A    between atoms: C_4  and  O_5
REMARK    5  A    between atoms: N_8  and  S_9
REMARK    6  A    between atoms: S_9  and  O_12
REMARK    7  A    between atoms: O_12  and  C_13
REMARK    8  A    between atoms: C_13  and  C_14
REMARK    9  A    between atoms: C_17  and  N_25
REMARK   10  A    between atoms: C_19  and  O_21
REMARK   11  A    between atoms: C_22  and  O_24
REMARK                            x       y       z     vdW  Elec       q    Type
REMARK                         _______ _______ _______ _____ _____    ______ ____
ROOT
ATOM      1  C   UNL     1       8.006  -3.763  26.760  0.00  0.00    +0.180 C 
ATOM      2  C   UNL     1       8.895  -4.844  26.146  0.00  0.00    +0.178 C 
ATOM      3  C   UNL     1       9.019  -4.473  24.664  0.00  0.00    +0.195 C 
ATOM      4  C   UNL     1       8.273  -3.139  24.539  0.00  0.00    +0.253 C 
ATOM      5  O   UNL     1       8.139  -2.625  25.884  0.00  0.00    -0.346 OA
ENDROOT
BRANCH   4   6
ATOM      6  N   UNL     1       8.879  -2.118  23.703  0.00  0.00    -0.286 N 
ATOM      7  C   UNL     1       8.309  -0.946  23.276  0.00  0.00    +0.167 A 
ATOM      8  N   UNL     1       7.027  -0.555  23.386  0.00  0.00    -0.216 NA
ATOM      9  C   UNL     1       6.850   0.668  22.833  0.00  0.00    +0.225 A 
ATOM     10  N   UNL     1       7.772   1.480  22.269  0.00  0.00    -0.219 NA
ATOM     11  C   UNL     1       9.054   1.058  22.225  0.00  0.00    +0.147 A 
ATOM     12  N   UNL     1      10.013   1.913  21.697  0.00  0.00    -0.341 N 
ATOM     13  H   UNL     1      10.865   1.450  21.404  0.00  0.00    +0.144 HD
ATOM     14  H   UNL     1       9.623   2.626  21.096  0.00  0.00    +0.144 HD
ATOM     15  C   UNL     1       9.354  -0.224  22.715  0.00  0.00    +0.147 A 
ATOM     16  N   UNL     1      10.530  -0.940  22.766  0.00  0.00    -0.231 NA
ATOM     17  C   UNL     1      10.212  -2.063  23.373  0.00  0.00    +0.203 A 
ENDBRANCH   4   6
BRANCH   2  18
ATOM     18  O   UNL     1      10.202  -4.784  26.748  0.00  0.00    -0.386 OA
ATOM     19  H   UNL     1      10.493  -3.854  26.769  0.00  0.00    +0.210 HD
ENDBRANCH   2  18
BRANCH   3  20
ATOM     20  O   UNL     1       8.410  -5.474  23.844  0.00  0.00    -0.385 OA
ATOM     21  H   UNL     1       8.919  -6.296  23.989  0.00  0.00    +0.210 HD
ENDBRANCH   3  20
BRANCH   1  22
ATOM     22  C   UNL     1       6.525  -4.152  26.882  0.00  0.00    +0.229 C 
BRANCH  22  23
ATOM     23  O   UNL     1       6.304  -5.481  26.434  0.00  0.00    -0.220 OA
BRANCH  23  24
ATOM     24  S   UNL     1       5.059  -5.711  25.411  0.00  0.00    +0.169 S 
ATOM     25  O   UNL     1       4.718  -7.115  25.449  0.00  0.00    -0.126 OA
ATOM     26  O   UNL     1       4.054  -4.706  25.675  0.00  0.00    -0.126 OA
BRANCH  24  28
ATOM     27  C   UNL     1       4.914  -5.337  22.747  0.00  0.00    +0.253 C 
ATOM     28  N   UNL     1       5.681  -5.436  23.913  0.00  0.00    -0.164 N 
ATOM     29  H   UNL     1       6.683  -5.275  23.847  0.00  0.00    +0.179 HD
ATOM     30  O   UNL     1       3.694  -5.457  22.745  0.00  0.00    -0.272 OA
BRANCH  27  31
ATOM     31  CA  UNL     1       5.718  -5.054  21.467  0.00  0.00    +0.165 C 
BRANCH  31  32
ATOM     32  N   UNL     1       6.899  -5.964  21.371  0.00  0.00    -0.318 NA
ATOM     33  H1  UNL     1       7.541  -5.722  22.129  0.00  0.00    +0.119 HD
ATOM     34  H2  UNL     1       6.563  -6.900  21.646  0.00  0.00    +0.119 HD
ENDBRANCH  31  32
BRANCH  31  35
ATOM     35  C   UNL     1       6.149  -3.580  21.472  0.00  0.00    +0.183 C 
BRANCH  35  36
ATOM     36  O   UNL     1       5.338  -2.829  22.378  0.00  0.00    -0.393 OA
ATOM     37  H   UNL     1       5.118  -1.987  21.930  0.00  0.00    +0.209 HD
ENDBRANCH  35  36
ENDBRANCH  31  35
ENDBRANCH  27  31
ENDBRANCH  24  28
ENDBRANCH  23  24
ENDBRANCH  22  23
ENDBRANCH   1  22
TORSDOF 11
ENDMDL
MODEL 2
REMARK VINA RESULT:      -6.8      1.644      2.085
REMARK  Name = 
REMARK  11 active torsions:
REMARK  status: ('A' for Active; 'I' for Inactive)
REMARK    1  A    between atoms: N_1  and  CA_2
REMARK    2  A    between atoms: CA_2  and  C_4
REMARK    3  A    between atoms: CA_2  and  C_6
REMARK    4  A    between atoms: C_4  and  O_5
REMARK    5  A    between atoms: N_8  and  S_9
REMARK    6  A    between atoms: S_9  and  O_12
REMARK    7  A    between atoms: O_12  and  C_13
REMARK    8  A    between atoms: C_13  and  C_14
REMARK    9  A    between atoms: C_17  and  N_25
REMARK   10  A    between atoms: C_19  and  O_21
REMARK   11  A    between atoms: C_22  and  O_24
REMARK                            x       y       z     vdW  Elec       q    Type
REMARK                         _______ _______ _______ _____ _____    ______ ____
ROOT
ATOM      1  C   UNL     1       8.543  -4.257  26.417  0.00  0.00    +0.180 C 
ATOM      2  C   UNL     1       8.701  -5.315  25.326  0.00  0.00    +0.178 C 
ATOM      3  C   UNL     1       8.392  -4.591  24.012  0.00  0.00    +0.195 C 
ATOM      4  C   UNL     1       8.173  -3.129  24.421  0.00  0.00    +0.253 C 
ATOM      5  O   UNL     1       8.735  -2.994  25.746  0.00  0.00    -0.346 OA
ENDROOT
BRANCH   4   6
ATOM      6  N   UNL     1       8.746  -2.109  23.561  0.00  0.00    -0.286 N 
ATOM      7  C   UNL     1       8.178  -0.916  23.194  0.00  0.00    +0.167 A 
ATOM      8  N   UNL     1       6.917  -0.495  23.400  0.00  0.00    -0.216 NA
ATOM      9  C   UNL     1       6.735   0.742  22.880  0.00  0.00    +0.225 A 
ATOM     10  N   UNL     1       7.635   1.540  22.266  0.00  0.00    -0.219 NA
ATOM     11  C   UNL     1       8.900   1.088  22.125  0.00  0.00    +0.147 A 
ATOM     12  N   UNL     1       9.841   1.928  21.544  0.00  0.00    -0.341 N 
ATOM     13  H   UNL     1      10.658   1.449  21.185  0.00  0.00    +0.144 HD
ATOM     14  H   UNL     1       9.429   2.660  20.984  0.00  0.00    +0.144 HD
ATOM     15  C   UNL     1       9.200  -0.210  22.572  0.00  0.00    +0.147 A 
ATOM     16  N   UNL     1      10.357  -0.956  22.528  0.00  0.00    -0.231 NA
ATOM     17  C   UNL     1      10.053  -2.081  23.139  0.00  0.00    +0.203 A 
ENDBRANCH   4   6
BRANCH   2  18
ATOM     18  O   UNL     1      10.069  -5.766  25.295  0.00  0.00    -0.386 OA
ATOM     19  H   UNL     1      10.649  -4.993  25.164  0.00  0.00    +0.210 HD
ENDBRANCH   2  18
BRANCH   3  20
ATOM     20  O   UNL     1       7.214  -5.130  23.407  0.00  0.00    -0.385 OA
ATOM     21  H   UNL     1       6.474  -4.923  24.012  0.00  0.00    +0.210 HD
ENDBRANCH   3  20
BRANCH   1  22
ATOM     22  C   UNL     1       7.177  -4.267  27.119  0.00  0.00    +0.229 C 
BRANCH  22  23
ATOM     23  O   UNL     1       7.027  -5.420  27.934  0.00  0.00    -0.220 OA
BRANCH  23  24
ATOM     24  S   UNL     1       5.554  -6.112  27.960  0.00  0.00    +0.169 S 
ATOM     25  O   UNL     1       5.719  -7.472  28.420  0.00  0.00    -0.126 OA
ATOM     26  O   UNL     1       4.637  -5.218  28.632  0.00  0.00    -0.126 OA
BRANCH  24  28
ATOM     27  C   UNL     1       3.852  -6.665  25.945  0.00  0.00    +0.253 C 
ATOM     28  N   UNL     1       5.104  -6.218  26.381  0.00  0.00    -0.164 N 
ATOM     29  H   UNL     1       5.767  -5.883  25.685  0.00  0.00    +0.179 HD
ATOM     30  O   UNL     1       2.974  -7.029  26.719  0.00  0.00    -0.272 OA
BRANCH  27  31
ATOM     31  CA  UNL     1       3.657  -6.655  24.420  0.00  0.00    +0.165 C 
BRANCH  31  32
ATOM     32  N   UNL     1       4.870  -7.187  23.727  0.00  0.00    -0.318 NA
ATOM     33  H1  UNL     1       5.691  -6.825  24.217  0.00  0.00    +0.119 HD
ATOM     34  H2  UNL     1       4.901  -8.195  23.939  0.00  0.00    +0.119 HD
ENDBRANCH  31  32
BRANCH  31  35
ATOM     35  C   UNL     1       3.344  -5.220  23.973  0.00  0.00    +0.183 C 
BRANCH  35  36
ATOM     36  O   UNL     1       4.516  -4.405  24.063  0.00  0.00    -0.393 OA
ATOM     37  H   UNL     1       5.244  -4.910  23.648  0.00  0.00    +0.209 HD
ENDBRANCH  35  36
ENDBRANCH  31  35
ENDBRANCH  27  31
ENDBRANCH  24  28
ENDBRANCH  23  24
ENDBRANCH  22  23
ENDBRANCH   1  22
TORSDOF 11
ENDMDL
MODEL 3
REMARK VINA RESULT:      -6.5      3.171      7.398
REMARK  Name = 
REMARK  11 active torsions:
REMARK  status: ('A' for Active; 'I' for Inactive)
REMARK    1  A    between atoms: N_1  and  CA_2
REMARK    2  A    between atoms: CA_2  and  C_4
REMARK    3  A    between atoms: CA_2  and  C_6
REMARK    4  A    between atoms: C_4  and  O_5
REMARK    5  A    between atoms: N_8  and  S_9
REMARK    6  A    between atoms: S_9  and  O_12
REMARK    7  A    between atoms: O_12  and  C_13
REMARK    8  A    between atoms: C_13  and  C_14
REMARK    9  A    between atoms: C_17  and  N_25
REMARK   10  A    between atoms: C_19  and  O_21
REMARK   11  A    between atoms: C_22  and  O_24
REMARK                            x       y       z     vdW  Elec       q    Type
REMARK                         _______ _______ _______ _____ _____    ______ ____
ROOT
ATOM      1  C   UNL     1       5.945  -3.371  22.376  0.00  0.00    +0.180 C 
ATOM      2  C   UNL     1       6.676  -4.583  21.802  0.00  0.00    +0.178 C 
ATOM      3  C   UNL     1       6.934  -5.506  22.997  0.00  0.00    +0.195 C 
ATOM      4  C   UNL     1       6.240  -4.810  24.176  0.00  0.00    +0.253 C 
ATOM      5  O   UNL     1       5.335  -3.844  23.595  0.00  0.00    -0.346 OA
ENDROOT
BRANCH   4   6
ATOM      6  N   UNL     1       5.502  -5.652  25.099  0.00  0.00    -0.286 N 
ATOM      7  C   UNL     1       5.848  -5.982  26.385  0.00  0.00    +0.167 A 
ATOM      8  N   UNL     1       7.011  -5.746  27.019  0.00  0.00    -0.216 NA
ATOM      9  C   UNL     1       6.973  -6.232  28.282  0.00  0.00    +0.225 A 
ATOM     10  N   UNL     1       5.949  -6.840  28.923  0.00  0.00    -0.219 NA
ATOM     11  C   UNL     1       4.788  -7.010  28.254  0.00  0.00    +0.147 A 
ATOM     12  N   UNL     1       3.717  -7.583  28.927  0.00  0.00    -0.341 N 
ATOM     13  H   UNL     1       3.003  -7.966  28.319  0.00  0.00    +0.144 HD
ATOM     14  H   UNL     1       3.996  -8.118  29.736  0.00  0.00    +0.144 HD
ATOM     15  C   UNL     1       4.722  -6.600  26.912  0.00  0.00    +0.147 A 
ATOM     16  N   UNL     1       3.719  -6.679  25.971  0.00  0.00    -0.231 NA
ATOM     17  C   UNL     1       4.215  -6.093  24.903  0.00  0.00    +0.203 A 
ENDBRANCH   4   6
BRANCH   2  18
ATOM     18  O   UNL     1       5.813  -5.263  20.870  0.00  0.00    -0.386 OA
ATOM     19  H   UNL     1       5.876  -4.817  20.005  0.00  0.00    +0.210 HD
ENDBRANCH   2  18
BRANCH   3  20
ATOM     20  O   UNL     1       8.337  -5.635  23.239  0.00  0.00    -0.385 OA
ATOM     21  H   UNL     1       8.428  -6.044  24.123  0.00  0.00    +0.210 HD
ENDBRANCH   3  20
BRANCH   1  22
ATOM     22  C   UNL     1       6.850  -2.170  22.685  0.00  0.00    +0.229 C 
BRANCH  22  23
ATOM     23  O   UNL     1       8.204  -2.449  22.358  0.00  0.00    -0.220 OA
BRANCH  23  24
ATOM     24  S   UNL     1       9.333  -1.928  23.408  0.00  0.00    +0.169 S 
ATOM     25  O   UNL     1       8.929  -2.355  24.729  0.00  0.00    -0.126 OA
ATOM     26  O   UNL     1      10.638  -2.278  22.894  0.00  0.00    -0.126 OA
BRANCH  24  28
ATOM     27  C   UNL     1       9.963   0.569  24.201  0.00  0.00    +0.253 C 
ATOM     28  N   UNL     1       9.200  -0.288  23.401  0.00  0.00    -0.164 N 
ATOM     29  H   UNL     1       8.557   0.123  22.728  0.00  0.00    +0.179 HD
ATOM     30  O   UNL     1      10.803   0.160  24.994  0.00  0.00    -0.272 OA
BRANCH  27  31
ATOM     31  CA  UNL     1       9.675   2.066  24.002  0.00  0.00    +0.165 C 
BRANCH  31  32
ATOM     32  N   UNL     1       8.775   2.581  25.078  0.00  0.00    -0.318 NA
ATOM     33  H1  UNL     1       7.813   2.513  24.736  0.00  0.00    +0.119 HD
ATOM     34  H2  UNL     1       8.800   1.878  25.832  0.00  0.00    +0.119 HD
ENDBRANCH  31  32
BRANCH  31  35
ATOM     35  C   UNL     1       9.054   2.267  22.612  0.00  0.00    +0.183 C 
BRANCH  35  36
ATOM     36  O   UNL     1      10.049   2.115  21.597  0.00  0.00    -0.393 OA
ATOM     37  H   UNL     1       9.577   2.079  20.741  0.00  0.00    +0.209 HD
ENDBRANCH  35  36
ENDBRANCH  31  35
ENDBRANCH  27  31
ENDBRANCH  24  28
ENDBRANCH  23  24
ENDBRANCH  22  23
ENDBRANCH   1  22
TORSDOF 11
ENDMDL
MODEL 4
REMARK VINA RESULT:      -6.4      4.675      8.336
REMARK  Name = 
REMARK  11 active torsions:
REMARK  status: ('A' for Active; 'I' for Inactive)
REMARK    1  A    between atoms: N_1  and  CA_2
REMARK    2  A    between atoms: CA_2  and  C_4
REMARK    3  A    between atoms: CA_2  and  C_6
REMARK    4  A    between atoms: C_4  and  O_5
REMARK    5  A    between atoms: N_8  and  S_9
REMARK    6  A    between atoms: S_9  and  O_12
REMARK    7  A    between atoms: O_12  and  C_13
REMARK    8  A    between atoms: C_13  and  C_14
REMARK    9  A    between atoms: C_17  and  N_25
REMARK   10  A    between atoms: C_19  and  O_21
REMARK   11  A    between atoms: C_22  and  O_24
REMARK                            x       y       z     vdW  Elec       q    Type
REMARK                         _______ _______ _______ _____ _____    ______ ____
ROOT
ATOM      1  C   UNL     1       8.296   0.374  21.859  0.00  0.00    +0.180 C 
ATOM      2  C   UNL     1       9.791   0.099  22.012  0.00  0.00    +0.178 C 
ATOM      3  C   UNL     1       9.981  -0.308  23.477  0.00  0.00    +0.195 C 
ATOM      4  C   UNL     1       8.560  -0.342  24.053  0.00  0.00    +0.253 C 
ATOM      5  O   UNL     1       7.666  -0.378  22.917  0.00  0.00    -0.346 OA
ENDROOT
BRANCH   4   6
ATOM      6  N   UNL     1       8.233  -1.440  24.944  0.00  0.00    -0.286 N 
ATOM      7  C   UNL     1       8.103  -2.766  24.617  0.00  0.00    +0.167 A 
ATOM      8  N   UNL     1       8.080  -3.323  23.393  0.00  0.00    -0.216 NA
ATOM      9  C   UNL     1       7.926  -4.665  23.481  0.00  0.00    +0.225 A 
ATOM     10  N   UNL     1       7.846  -5.434  24.590  0.00  0.00    -0.219 NA
ATOM     11  C   UNL     1       7.921  -4.829  25.795  0.00  0.00    +0.147 A 
ATOM     12  N   UNL     1       7.895  -5.622  26.935  0.00  0.00    -0.341 N 
ATOM     13  H   UNL     1       7.642  -5.124  27.780  0.00  0.00    +0.144 HD
ATOM     14  H   UNL     1       7.492  -6.534  26.776  0.00  0.00    +0.144 HD
ATOM     15  C   UNL     1       8.020  -3.428  25.835  0.00  0.00    +0.147 A 
ATOM     16  N   UNL     1       8.067  -2.537  26.884  0.00  0.00    -0.231 NA
ATOM     17  C   UNL     1       8.206  -1.358  26.316  0.00  0.00    +0.203 A 
ENDBRANCH   4   6
BRANCH   2  18
ATOM     18  O   UNL     1      10.160  -1.011  21.171  0.00  0.00    -0.386 OA
ATOM     19  H   UNL     1       9.371  -1.304  20.680  0.00  0.00    +0.210 HD
ENDBRANCH   2  18
BRANCH   3  20
ATOM     20  O   UNL     1      10.785   0.653  24.166  0.00  0.00    -0.385 OA
ATOM     21  H   UNL     1      11.050   1.319  23.500  0.00  0.00    +0.210 HD
ENDBRANCH   3  20
BRANCH   1  22
ATOM     22  C   UNL     1       7.906   1.855  21.975  0.00  0.00    +0.229 C 
BRANCH  22  23
ATOM     23  O   UNL     1       9.021   2.651  22.350  0.00  0.00    -0.220 OA
BRANCH  23  24
ATOM     24  S   UNL     1       8.802   3.677  23.595  0.00  0.00    +0.169 S 
ATOM     25  O   UNL     1       7.599   4.433  23.330  0.00  0.00    -0.126 OA
ATOM     26  O   UNL     1       8.945   2.939  24.830  0.00  0.00    -0.126 OA
BRANCH  24  28
ATOM     27  C   UNL     1      11.398   4.395  23.515  0.00  0.00    +0.253 C 
ATOM     28  N   UNL     1      10.044   4.750  23.489  0.00  0.00    -0.164 N 
ATOM     29  H   UNL     1       9.804   5.727  23.340  0.00  0.00    +0.179 HD
ATOM     30  O   UNL     1      11.775   3.234  23.629  0.00  0.00    -0.272 OA
BRANCH  27  31
ATOM     31  CA  UNL     1      12.377   5.572  23.378  0.00  0.00    +0.165 C 
BRANCH  31  32
ATOM     32  N   UNL     1      13.748   5.085  23.036  0.00  0.00    -0.318 NA
ATOM     33  H1  UNL     1      14.268   4.982  23.911  0.00  0.00    +0.119 HD
ATOM     34  H2  UNL     1      13.634   4.110  22.721  0.00  0.00    +0.119 HD
ENDBRANCH  31  32
BRANCH  31  35
ATOM     35  C   UNL     1      12.379   6.366  24.693  0.00  0.00    +0.183 C 
BRANCH  35  36
ATOM     36  O   UNL     1      11.073   6.880  24.965  0.00  0.00    -0.393 OA
ATOM     37  H   UNL     1      10.571   6.160  25.398  0.00  0.00    +0.209 HD
ENDBRANCH  35  36
ENDBRANCH  31  35
ENDBRANCH  27  31
ENDBRANCH  24  28
ENDBRANCH  23  24
ENDBRANCH  22  23
ENDBRANCH   1  22
TORSDOF 11
ENDMDL
MODEL 5
REMARK VINA RESULT:      -6.4      4.612      8.035
REMARK  Name = 
REMARK  11 active torsions:
REMARK  status: ('A' for Active; 'I' for Inactive)
REMARK    1  A    between atoms: N_1  and  CA_2
REMARK    2  A    between atoms: CA_2  and  C_4
REMARK    3  A    between atoms: CA_2  and  C_6
REMARK    4  A    between atoms: C_4  and  O_5
REMARK    5  A    between atoms: N_8  and  S_9
REMARK    6  A    between atoms: S_9  and  O_12
REMARK    7  A    between atoms: O_12  and  C_13
REMARK    8  A    between atoms: C_13  and  C_14
REMARK    9  A    between atoms: C_17  and  N_25
REMARK   10  A    between atoms: C_19  and  O_21
REMARK   11  A    between atoms: C_22  and  O_24
REMARK                            x       y       z     vdW  Elec       q    Type
REMARK                         _______ _______ _______ _____ _____    ______ ____
ROOT
ATOM      1  C   UNL     1       9.984  -0.159  25.479  0.00  0.00    +0.180 C 
ATOM      2  C   UNL     1       8.598   0.136  26.050  0.00  0.00    +0.178 C 
ATOM      3  C   UNL     1       7.624  -0.674  25.188  0.00  0.00    +0.195 C 
ATOM      4  C   UNL     1       8.525  -1.469  24.234  0.00  0.00    +0.253 C 
ATOM      5  O   UNL     1       9.852  -1.429  24.808  0.00  0.00    -0.346 OA
ENDROOT
BRANCH   4   6
ATOM      6  N   UNL     1       8.163  -2.851  23.980  0.00  0.00    -0.286 N 
ATOM      7  C   UNL     1       7.157  -3.313  23.170  0.00  0.00    +0.167 A 
ATOM      8  N   UNL     1       6.183  -2.606  22.568  0.00  0.00    -0.216 NA
ATOM      9  C   UNL     1       5.370  -3.423  21.857  0.00  0.00    +0.225 A 
ATOM     10  N   UNL     1       5.466  -4.759  21.675  0.00  0.00    -0.219 NA
ATOM     11  C   UNL     1       6.490  -5.413  22.264  0.00  0.00    +0.147 A 
ATOM     12  N   UNL     1       6.622  -6.776  22.034  0.00  0.00    -0.341 N 
ATOM     13  H   UNL     1       7.189  -7.259  22.721  0.00  0.00    +0.144 HD
ATOM     14  H   UNL     1       5.766  -7.212  21.725  0.00  0.00    +0.144 HD
ATOM     15  C   UNL     1       7.369  -4.682  23.081  0.00  0.00    +0.147 A 
ATOM     16  N   UNL     1       8.456  -5.062  23.838  0.00  0.00    -0.231 NA
ATOM     17  C   UNL     1       8.913  -3.941  24.352  0.00  0.00    +0.203 A 
ENDBRANCH   4   6
BRANCH   2  18
ATOM     18  O   UNL     1       8.529  -0.348  27.405  0.00  0.00    -0.386 OA
ATOM     19  H   UNL     1       8.857   0.349  28.002  0.00  0.00    +0.210 HD
ENDBRANCH   2  18
BRANCH   3  20
ATOM     20  O   UNL     1       6.756   0.197  24.459  0.00  0.00    -0.385 OA
ATOM     21  H   UNL     1       5.888   0.162  24.909  0.00  0.00    +0.210 HD
ENDBRANCH   3  20
BRANCH   1  22
ATOM     22  C   UNL     1      10.502   0.896  24.491  0.00  0.00    +0.229 C 
BRANCH  22  23
ATOM     23  O   UNL     1       9.501   1.860  24.196  0.00  0.00    -0.220 OA
BRANCH  23  24
ATOM     24  S   UNL     1       9.621   2.625  22.765  0.00  0.00    +0.169 S 
ATOM     25  O   UNL     1       9.802   1.617  21.745  0.00  0.00    -0.126 OA
ATOM     26  O   UNL     1       8.543   3.584  22.663  0.00  0.00    -0.126 OA
BRANCH  24  28
ATOM     27  C   UNL     1      11.243   4.605  23.609  0.00  0.00    +0.253 C 
ATOM     28  N   UNL     1      11.041   3.453  22.840  0.00  0.00    -0.164 N 
ATOM     29  H   UNL     1      11.834   3.063  22.336  0.00  0.00    +0.179 HD
ATOM     30  O   UNL     1      10.359   5.106  24.294  0.00  0.00    -0.272 OA
BRANCH  27  31
ATOM     31  CA  UNL     1      12.663   5.190  23.535  0.00  0.00    +0.165 C 
BRANCH  31  32
ATOM     32  N   UNL     1      12.772   6.425  24.369  0.00  0.00    -0.318 NA
ATOM     33  H1  UNL     1      12.262   6.258  25.240  0.00  0.00    +0.119 HD
ATOM     34  H2  UNL     1      13.753   6.473  24.683  0.00  0.00    +0.119 HD
ENDBRANCH  31  32
BRANCH  31  35
ATOM     35  C   UNL     1      13.001   5.478  22.065  0.00  0.00    +0.183 C 
BRANCH  35  36
ATOM     36  O   UNL     1      14.183   6.277  21.976  0.00  0.00    -0.393 OA
ATOM     37  H   UNL     1      14.325   6.673  22.859  0.00  0.00    +0.209 HD
ENDBRANCH  35  36
ENDBRANCH  31  35
ENDBRANCH  27  31
ENDBRANCH  24  28
ENDBRANCH  23  24
ENDBRANCH  22  23
ENDBRANCH   1  22
TORSDOF 11
ENDMDL
MODEL 6
REMARK VINA RESULT:      -6.2      1.832      2.602
REMARK  Name = 
REMARK  11 active torsions:
REMARK  status: ('A' for Active; 'I' for Inactive)
REMARK    1  A    between atoms: N_1  and  CA_2
REMARK    2  A    between atoms: CA_2  and  C_4
REMARK    3  A    between atoms: CA_2  and  C_6
REMARK    4  A    between atoms: C_4  and  O_5
REMARK    5  A    between atoms: N_8  and  S_9
REMARK    6  A    between atoms: S_9  and  O_12
REMARK    7  A    between atoms: O_12  and  C_13
REMARK    8  A    between atoms: C_13  and  C_14
REMARK    9  A    between atoms: C_17  and  N_25
REMARK   10  A    between atoms: C_19  and  O_21
REMARK   11  A    between atoms: C_22  and  O_24
REMARK                            x       y       z     vdW  Elec       q    Type
REMARK                         _______ _______ _______ _____ _____    ______ ____
ROOT
ATOM      1  C   UNL     1       8.189  -4.216  26.166  0.00  0.00    +0.180 C 
ATOM      2  C   UNL     1       8.549  -5.251  25.101  0.00  0.00    +0.178 C 
ATOM      3  C   UNL     1       8.427  -4.515  23.763  0.00  0.00    +0.195 C 
ATOM      4  C   UNL     1       8.101  -3.066  24.149  0.00  0.00    +0.253 C 
ATOM      5  O   UNL     1       8.444  -2.937  25.548  0.00  0.00    -0.346 OA
ENDROOT
BRANCH   4   6
ATOM      6  N   UNL     1       8.770  -2.016  23.402  0.00  0.00    -0.286 N 
ATOM      7  C   UNL     1       8.247  -0.809  23.015  0.00  0.00    +0.167 A 
ATOM      8  N   UNL     1       6.970  -0.393  23.086  0.00  0.00    -0.216 NA
ATOM      9  C   UNL     1       6.847   0.862  22.594  0.00  0.00    +0.225 A 
ATOM     10  N   UNL     1       7.812   1.681  22.121  0.00  0.00    -0.219 NA
ATOM     11  C   UNL     1       9.086   1.231  22.114  0.00  0.00    +0.147 A 
ATOM     12  N   UNL     1      10.087   2.090  21.681  0.00  0.00    -0.341 N 
ATOM     13  H   UNL     1      10.942   1.624  21.404  0.00  0.00    +0.144 HD
ATOM     14  H   UNL     1       9.743   2.844  21.104  0.00  0.00    +0.144 HD
ATOM     15  C   UNL     1       9.334  -0.083  22.545  0.00  0.00    +0.147 A 
ATOM     16  N   UNL     1      10.490  -0.829  22.611  0.00  0.00    -0.231 NA
ATOM     17  C   UNL     1      10.118  -1.976  23.139  0.00  0.00    +0.203 A 
ENDBRANCH   4   6
BRANCH   2  18
ATOM     18  O   UNL     1       9.918  -5.662  25.279  0.00  0.00    -0.386 OA
ATOM     19  H   UNL     1      10.285  -5.195  26.053  0.00  0.00    +0.210 HD
ENDBRANCH   2  18
BRANCH   3  20
ATOM     20  O   UNL     1       7.375  -5.077  22.974  0.00  0.00    -0.385 OA
ATOM     21  H   UNL     1       7.029  -4.351  22.417  0.00  0.00    +0.210 HD
ENDBRANCH   3  20
BRANCH   1  22
ATOM     22  C   UNL     1       6.731  -4.277  26.645  0.00  0.00    +0.229 C 
BRANCH  22  23
ATOM     23  O   UNL     1       5.937  -5.070  25.775  0.00  0.00    -0.220 OA
BRANCH  23  24
ATOM     24  S   UNL     1       4.627  -4.356  25.124  0.00  0.00    +0.169 S 
ATOM     25  O   UNL     1       4.219  -3.296  26.019  0.00  0.00    -0.126 OA
ATOM     26  O   UNL     1       4.900  -4.074  23.732  0.00  0.00    -0.126 OA
BRANCH  24  28
ATOM     27  C   UNL     1       3.574  -6.804  24.727  0.00  0.00    +0.253 C 
ATOM     28  N   UNL     1       3.440  -5.493  25.197  0.00  0.00    -0.164 N 
ATOM     29  H   UNL     1       2.575  -5.233  25.665  0.00  0.00    +0.179 HD
ATOM     30  O   UNL     1       4.603  -7.218  24.206  0.00  0.00    -0.272 OA
BRANCH  27  31
ATOM     31  CA  UNL     1       2.333  -7.691  24.925  0.00  0.00    +0.165 C 
BRANCH  31  32
ATOM     32  N   UNL     1       2.730  -9.098  25.234  0.00  0.00    -0.318 NA
ATOM     33  H1  UNL     1       1.930  -9.556  25.675  0.00  0.00    +0.119 HD
ATOM     34  H2  UNL     1       2.799  -9.581  24.325  0.00  0.00    +0.119 HD
ENDBRANCH  31  32
BRANCH  31  35
ATOM     35  C   UNL     1       1.471  -7.621  23.655  0.00  0.00    +0.183 C 
BRANCH  35  36
ATOM     36  O   UNL     1       2.240  -7.115  22.561  0.00  0.00    -0.393 OA
ATOM     37  H   UNL     1       1.603  -6.857  21.864  0.00  0.00    +0.209 HD
ENDBRANCH  35  36
ENDBRANCH  31  35
ENDBRANCH  27  31
ENDBRANCH  24  28
ENDBRANCH  23  24
ENDBRANCH  22  23
ENDBRANCH   1  22
TORSDOF 11
ENDMDL
MODEL 7
REMARK VINA RESULT:      -6.1      2.150      3.377
REMARK  Name = 
REMARK  11 active torsions:
REMARK  status: ('A' for Active; 'I' for Inactive)
REMARK    1  A    between atoms: N_1  and  CA_2
REMARK    2  A    between atoms: CA_2  and  C_4
REMARK    3  A    between atoms: CA_2  and  C_6
REMARK    4  A    between atoms: C_4  and  O_5
REMARK    5  A    between atoms: N_8  and  S_9
REMARK    6  A    between atoms: S_9  and  O_12
REMARK    7  A    between atoms: O_12  and  C_13
REMARK    8  A    between atoms: C_13  and  C_14
REMARK    9  A    between atoms: C_17  and  N_25
REMARK   10  A    between atoms: C_19  and  O_21
REMARK   11  A    between atoms: C_22  and  O_24
REMARK                            x       y       z     vdW  Elec       q    Type
REMARK                         _______ _______ _______ _____ _____    ______ ____
ROOT
ATOM      1  C   UNL     1       8.867  -4.679  24.790  0.00  0.00    +0.180 C 
ATOM      2  C   UNL     1       7.490  -4.899  24.167  0.00  0.00    +0.178 C 
ATOM      3  C   UNL     1       6.846  -3.510  24.104  0.00  0.00    +0.195 C 
ATOM      4  C   UNL     1       7.940  -2.557  24.604  0.00  0.00    +0.253 C 
ATOM      5  O   UNL     1       9.181  -3.295  24.528  0.00  0.00    -0.346 OA
ENDROOT
BRANCH   4   6
ATOM      6  N   UNL     1       8.096  -1.300  23.896  0.00  0.00    -0.286 N 
ATOM      7  C   UNL     1       9.112  -0.389  24.032  0.00  0.00    +0.167 A 
ATOM      8  N   UNL     1      10.091  -0.365  24.954  0.00  0.00    -0.216 NA
ATOM      9  C   UNL     1      10.902   0.702  24.763  0.00  0.00    +0.225 A 
ATOM     10  N   UNL     1      10.850   1.638  23.790  0.00  0.00    -0.219 NA
ATOM     11  C   UNL     1       9.873   1.542  22.861  0.00  0.00    +0.147 A 
ATOM     12  N   UNL     1       9.850   2.470  21.829  0.00  0.00    -0.341 N 
ATOM     13  H   UNL     1       8.955   2.547  21.361  0.00  0.00    +0.144 HD
ATOM     14  H   UNL     1      10.354   3.318  22.044  0.00  0.00    +0.144 HD
ATOM     15  C   UNL     1       8.930   0.508  22.987  0.00  0.00    +0.147 A 
ATOM     16  N   UNL     1       7.817   0.180  22.245  0.00  0.00    -0.231 NA
ATOM     17  C   UNL     1       7.349  -0.912  22.809  0.00  0.00    +0.203 A 
ENDBRANCH   4   6
BRANCH   2  18
ATOM     18  O   UNL     1       7.649  -5.397  22.825  0.00  0.00    -0.386 OA
ATOM     19  H   UNL     1       7.357  -4.707  22.201  0.00  0.00    +0.210 HD
ENDBRANCH   2  18
BRANCH   3  20
ATOM     20  O   UNL     1       5.696  -3.451  24.951  0.00  0.00    -0.385 OA
ATOM     21  H   UNL     1       5.442  -2.508  25.005  0.00  0.00    +0.210 HD
ENDBRANCH   3  20
BRANCH   1  22
ATOM     22  C   UNL     1       8.932  -4.946  26.301  0.00  0.00    +0.229 C 
BRANCH  22  23
ATOM     23  O   UNL     1       8.091  -6.030  26.668  0.00  0.00    -0.220 OA
BRANCH  23  24
ATOM     24  S   UNL     1       6.783  -5.671  27.566  0.00  0.00    +0.169 S 
ATOM     25  O   UNL     1       6.838  -6.481  28.762  0.00  0.00    -0.126 OA
ATOM     26  O   UNL     1       6.670  -4.232  27.661  0.00  0.00    -0.126 OA
BRANCH  24  28
ATOM     27  C   UNL     1       4.169  -6.152  27.118  0.00  0.00    +0.253 C 
ATOM     28  N   UNL     1       5.502  -6.231  26.698  0.00  0.00    -0.164 N 
ATOM     29  H   UNL     1       5.695  -6.607  25.772  0.00  0.00    +0.179 HD
ATOM     30  O   UNL     1       3.842  -5.659  28.191  0.00  0.00    -0.272 OA
BRANCH  27  31
ATOM     31  CA  UNL     1       3.144  -6.724  26.125  0.00  0.00    +0.165 C 
BRANCH  31  32
ATOM     32  N   UNL     1       3.657  -7.978  25.496  0.00  0.00    -0.318 NA
ATOM     33  H1  UNL     1       3.971  -7.746  24.551  0.00  0.00    +0.119 HD
ATOM     34  H2  UNL     1       4.540  -8.201  25.982  0.00  0.00    +0.119 HD
ENDBRANCH  31  32
BRANCH  31  35
ATOM     35  C   UNL     1       2.836  -5.655  25.066  0.00  0.00    +0.183 C 
BRANCH  35  36
ATOM     36  O   UNL     1       3.920  -5.547  24.141  0.00  0.00    -0.393 OA
ATOM     37  H   UNL     1       3.730  -6.166  23.408  0.00  0.00    +0.209 HD
ENDBRANCH  35  36
ENDBRANCH  31  35
ENDBRANCH  27  31
ENDBRANCH  24  28
ENDBRANCH  23  24
ENDBRANCH  22  23
ENDBRANCH   1  22
TORSDOF 11
ENDMDL
MODEL 8
REMARK VINA RESULT:      -6.1      2.859      4.819
REMARK  Name = 
REMARK  11 active torsions:
REMARK  status: ('A' for Active; 'I' for Inactive)
REMARK    1  A    between atoms: N_1  and  CA_2
REMARK    2  A    between atoms: CA_2  and  C_4
REMARK    3  A    between atoms: CA_2  and  C_6
REMARK    4  A    between atoms: C_4  and  O_5
REMARK    5  A    between atoms: N_8  and  S_9
REMARK    6  A    between atoms: S_9  and  O_12
REMARK    7  A    between atoms: O_12  and  C_13
REMARK    8  A    between atoms: C_13  and  C_14
REMARK    9  A    between atoms: C_17  and  N_25
REMARK   10  A    between atoms: C_19  and  O_21
REMARK   11  A    between atoms: C_22  and  O_24
REMARK                            x       y       z     vdW  Elec       q    Type
REMARK                         _______ _______ _______ _____ _____    ______ ____
ROOT
ATOM      1  C   UNL     1       9.751  -1.676  23.571  0.00  0.00    +0.180 C 
ATOM      2  C   UNL     1       8.916  -1.298  22.350  0.00  0.00    +0.178 C 
ATOM      3  C   UNL     1       7.974  -0.189  22.829  0.00  0.00    +0.195 C 
ATOM      4  C   UNL     1       8.399   0.074  24.280  0.00  0.00    +0.253 C 
ATOM      5  O   UNL     1       9.710  -0.516  24.428  0.00  0.00    -0.346 OA
ENDROOT
BRANCH   4   6
ATOM      6  N   UNL     1       8.454   1.459  24.712  0.00  0.00    -0.286 N 
ATOM      7  C   UNL     1       9.301   2.438  24.260  0.00  0.00    +0.167 A 
ATOM      8  N   UNL     1      10.369   2.307  23.452  0.00  0.00    -0.216 NA
ATOM      9  C   UNL     1      10.958   3.508  23.240  0.00  0.00    +0.225 A 
ATOM     10  N   UNL     1      10.580   4.725  23.691  0.00  0.00    -0.219 NA
ATOM     11  C   UNL     1       9.474   4.806  24.462  0.00  0.00    +0.147 A 
ATOM     12  N   UNL     1       9.051   6.061  24.879  0.00  0.00    -0.341 N 
ATOM     13  H   UNL     1       8.432   6.044  25.682  0.00  0.00    +0.144 HD
ATOM     14  H   UNL     1       9.782   6.757  24.852  0.00  0.00    +0.144 HD
ATOM     15  C   UNL     1       8.807   3.617  24.803  0.00  0.00    +0.147 A 
ATOM     16  N   UNL     1       7.704   3.371  25.591  0.00  0.00    -0.231 NA
ATOM     17  C   UNL     1       7.514   2.072  25.506  0.00  0.00    +0.203 A 
ENDBRANCH   4   6
BRANCH   2  18
ATOM     18  O   UNL     1       9.781  -0.761  21.330  0.00  0.00    -0.386 OA
ATOM     19  H   UNL     1       9.282  -0.100  20.815  0.00  0.00    +0.210 HD
ENDBRANCH   2  18
BRANCH   3  20
ATOM     20  O   UNL     1       6.614  -0.625  22.770  0.00  0.00    -0.385 OA
ATOM     21  H   UNL     1       6.064   0.183  22.806  0.00  0.00    +0.210 HD
ENDBRANCH   3  20
BRANCH   1  22
ATOM     22  C   UNL     1       9.237  -2.903  24.338  0.00  0.00    +0.229 C 
BRANCH  22  23
ATOM     23  O   UNL     1       8.872  -3.949  23.449  0.00  0.00    -0.220 OA
BRANCH  23  24
ATOM     24  S   UNL     1       7.355  -4.525  23.581  0.00  0.00    +0.169 S 
ATOM     25  O   UNL     1       6.448  -3.430  23.319  0.00  0.00    -0.126 OA
ATOM     26  O   UNL     1       7.261  -5.752  22.822  0.00  0.00    -0.126 OA
BRANCH  24  28
ATOM     27  C   UNL     1       5.999  -5.400  25.739  0.00  0.00    +0.253 C 
ATOM     28  N   UNL     1       7.175  -4.892  25.175  0.00  0.00    -0.164 N 
ATOM     29  H   UNL     1       7.994  -4.792  25.771  0.00  0.00    +0.179 HD
ATOM     30  O   UNL     1       4.987  -5.609  25.082  0.00  0.00    -0.272 OA
BRANCH  27  31
ATOM     31  CA  UNL     1       6.079  -5.686  27.248  0.00  0.00    +0.165 C 
BRANCH  31  32
ATOM     32  N   UNL     1       7.475  -6.038  27.649  0.00  0.00    -0.318 NA
ATOM     33  H1  UNL     1       7.932  -6.465  26.840  0.00  0.00    +0.119 HD
ATOM     34  H2  UNL     1       7.977  -5.143  27.750  0.00  0.00    +0.119 HD
ENDBRANCH  31  32
BRANCH  31  35
ATOM     35  C   UNL     1       5.099  -6.819  27.587  0.00  0.00    +0.183 C 
BRANCH  35  36
ATOM     36  O   UNL     1       5.615  -7.619  28.654  0.00  0.00    -0.393 OA
ATOM     37  H   UNL     1       6.576  -7.713  28.497  0.00  0.00    +0.209 HD
ENDBRANCH  35  36
ENDBRANCH  31  35
ENDBRANCH  27  31
ENDBRANCH  24  28
ENDBRANCH  23  24
ENDBRANCH  22  23
ENDBRANCH   1  22
TORSDOF 11
ENDMDL
MODEL 9
REMARK VINA RESULT:      -6.1      2.636      4.351
REMARK  Name = 
REMARK  11 active torsions:
REMARK  status: ('A' for Active; 'I' for Inactive)
REMARK    1  A    between atoms: N_1  and  CA_2
REMARK    2  A    between atoms: CA_2  and  C_4
REMARK    3  A    between atoms: CA_2  and  C_6
REMARK    4  A    between atoms: C_4  and  O_5
REMARK    5  A    between atoms: N_8  and  S_9
REMARK    6  A    between atoms: S_9  and  O_12
REMARK    7  A    between atoms: O_12  and  C_13
REMARK    8  A    between atoms: C_13  and  C_14
REMARK    9  A    between atoms: C_17  and  N_25
REMARK   10  A    between atoms: C_19  and  O_21
REMARK   11  A    between atoms: C_22  and  O_24
REMARK                            x       y       z     vdW  Elec       q    Type
REMARK                         _______ _______ _______ _____ _____    ______ ____
ROOT
ATOM      1  C   UNL     1       7.757  -1.478  23.603  0.00  0.00    +0.180 C 
ATOM      2  C   UNL     1       9.051  -1.909  22.915  0.00  0.00    +0.178 C 
ATOM      3  C   UNL     1       9.562  -0.659  22.194  0.00  0.00    +0.195 C 
ATOM      4  C   UNL     1       8.578   0.448  22.597  0.00  0.00    +0.253 C 
ATOM      5  O   UNL     1       7.871  -0.048  23.757  0.00  0.00    -0.346 OA
ENDROOT
BRANCH   4   6
ATOM      6  N   UNL     1       9.139   1.750  22.908  0.00  0.00    -0.286 N 
ATOM      7  C   UNL     1       8.506   2.965  22.845  0.00  0.00    +0.167 A 
ATOM      8  N   UNL     1       7.296   3.247  22.328  0.00  0.00    -0.216 NA
ATOM      9  C   UNL     1       7.023   4.568  22.445  0.00  0.00    +0.225 A 
ATOM     10  N   UNL     1       7.769   5.537  23.022  0.00  0.00    -0.219 NA
ATOM     11  C   UNL     1       8.955   5.191  23.566  0.00  0.00    +0.147 A 
ATOM     12  N   UNL     1       9.698   6.172  24.209  0.00  0.00    -0.341 N 
ATOM     13  H   UNL     1      10.679   5.946  24.316  0.00  0.00    +0.144 HD
ATOM     14  H   UNL     1       9.449   7.109  23.926  0.00  0.00    +0.144 HD
ATOM     15  C   UNL     1       9.379   3.856  23.455  0.00  0.00    +0.147 A 
ATOM     16  N   UNL     1      10.531   3.217  23.858  0.00  0.00    -0.231 NA
ATOM     17  C   UNL     1      10.349   1.957  23.525  0.00  0.00    +0.203 A 
ENDBRANCH   4   6
BRANCH   2  18
ATOM     18  O   UNL     1      10.015  -2.294  23.914  0.00  0.00    -0.386 OA
ATOM     19  H   UNL     1      10.679  -2.874  23.498  0.00  0.00    +0.210 HD
ENDBRANCH   2  18
BRANCH   3  20
ATOM     20  O   UNL     1       9.550  -0.856  20.777  0.00  0.00    -0.385 OA
ATOM     21  H   UNL     1      10.318  -1.427  20.572  0.00  0.00    +0.210 HD
ENDBRANCH   3  20
BRANCH   1  22
ATOM     22  C   UNL     1       6.478  -1.813  22.821  0.00  0.00    +0.229 C 
BRANCH  22  23
ATOM     23  O   UNL     1       5.718  -2.814  23.483  0.00  0.00    -0.220 OA
BRANCH  23  24
ATOM     24  S   UNL     1       5.927  -4.346  22.975  0.00  0.00    +0.169 S 
ATOM     25  O   UNL     1       4.684  -5.051  23.195  0.00  0.00    -0.126 OA
ATOM     26  O   UNL     1       6.531  -4.318  21.662  0.00  0.00    -0.126 OA
BRANCH  24  28
ATOM     27  C   UNL     1       6.939  -4.868  25.418  0.00  0.00    +0.253 C 
ATOM     28  N   UNL     1       7.011  -5.000  24.027  0.00  0.00    -0.164 N 
ATOM     29  H   UNL     1       7.746  -5.584  23.633  0.00  0.00    +0.179 HD
ATOM     30  O   UNL     1       6.052  -4.234  25.977  0.00  0.00    -0.272 OA
BRANCH  27  31
ATOM     31  CA  UNL     1       8.055  -5.587  26.193  0.00  0.00    +0.165 C 
BRANCH  31  32
ATOM     32  N   UNL     1       7.659  -5.800  27.618  0.00  0.00    -0.318 NA
ATOM     33  H1  UNL     1       8.226  -5.174  28.195  0.00  0.00    +0.119 HD
ATOM     34  H2  UNL     1       6.712  -5.403  27.714  0.00  0.00    +0.119 HD
ENDBRANCH  31  32
BRANCH  31  35
ATOM     35  C   UNL     1       9.342  -4.754  26.091  0.00  0.00    +0.183 C 
BRANCH  35  36
ATOM     36  O   UNL     1      10.115  -5.173  24.964  0.00  0.00    -0.393 OA
ATOM     37  H   UNL     1       9.997  -4.492  24.271  0.00  0.00    +0.209 HD
ENDBRANCH  35  36
ENDBRANCH  31  35
ENDBRANCH  27  31
ENDBRANCH  24  28
ENDBRANCH  23  24
ENDBRANCH  22  23
ENDBRANCH   1  22
TORSDOF 11
ENDMDL
