MODEL 1
REMARK VINA RESULT:      -4.0      0.000      0.000
REMARK  Name = 
REMARK  7 active torsions:
REMARK  status: ('A' for Active; 'I' for Inactive)
REMARK    1  A    between atoms: N_1  and  CA_2
REMARK    2  A    between atoms: CA_2  and  C_4
REMARK    3  A    between atoms: CA_2  and  C_8
REMARK    4  A    between atoms: C_4  and  C_5
REMARK    5  A    between atoms: C_5  and  C_6
REMARK    6  A    between atoms: C_6  and  O_7
REMARK    7  A    between atoms: C_8  and  O_9
REMARK                            x       y       z     vdW  Elec       q    Type
REMARK                         _______ _______ _______ _____ _____    ______ ____
ROOT
ATOM      1  CA  UNL     1       9.112  -4.581  25.530  0.00  0.00    +0.161 C 
ENDROOT
BRANCH   1   2
ATOM      2  N   UNL     1      10.203  -5.597  25.340  0.00  0.00    -0.318 NA
ATOM      3  H1  UNL     1      10.309  -5.782  24.336  0.00  0.00    +0.119 HD
ATOM      4  H2  UNL     1      11.084  -5.138  25.598  0.00  0.00    +0.119 HD
ENDBRANCH   1   2
BRANCH   1   5
ATOM      5  C   UNL     1       7.860  -5.317  26.055  0.00  0.00    +0.322 C 
ATOM      6  OXT UNL     1       6.772  -5.356  25.502  0.00  0.00    -0.249 OA
BRANCH   5   7
ATOM      7  O   UNL     1       8.110  -5.913  27.251  0.00  0.00    -0.480 OA
ATOM      8  H   UNL     1       7.849  -5.242  27.933  0.00  0.00    +0.295 HD
ENDBRANCH   5   7
ENDBRANCH   1   5
BRANCH   1   9
ATOM      9  C   UNL     1       8.859  -3.849  24.204  0.00  0.00    +0.032 C 
BRANCH   9  10
ATOM     10  C   UNL     1       9.695  -2.589  23.929  0.00  0.00    +0.030 C 
BRANCH  10  11
ATOM     11  C   UNL     1       9.322  -1.830  22.661  0.00  0.00    +0.156 C 
BRANCH  11  12
ATOM     12  O   UNL     1      10.442  -1.644  21.813  0.00  0.00    -0.395 OA
ATOM     13  H   UNL     1      10.145  -1.782  20.890  0.00  0.00    +0.209 HD
ENDBRANCH  11  12
ENDBRANCH  10  11
ENDBRANCH   9  10
ENDBRANCH   1   9
TORSDOF 7
ENDMDL
MODEL 2
REMARK VINA RESULT:      -4.0      5.024      6.727
REMARK  Name = 
REMARK  7 active torsions:
REMARK  status: ('A' for Active; 'I' for Inactive)
REMARK    1  A    between atoms: N_1  and  CA_2
REMARK    2  A    between atoms: CA_2  and  C_4
REMARK    3  A    between atoms: CA_2  and  C_8
REMARK    4  A    between atoms: C_4  and  C_5
REMARK    5  A    between atoms: C_5  and  C_6
REMARK    6  A    between atoms: C_6  and  O_7
REMARK    7  A    between atoms: C_8  and  O_9
REMARK                            x       y       z     vdW  Elec       q    Type
REMARK                         _______ _______ _______ _____ _____    ______ ____
ROOT
ATOM      1  CA  UNL     1       9.829   1.669  24.038  0.00  0.00    +0.161 C 
ENDROOT
BRANCH   1   2
ATOM      2  N   UNL     1       8.464   1.346  23.498  0.00  0.00    -0.318 NA
ATOM      3  H1  UNL     1       8.252   1.994  22.732  0.00  0.00    +0.119 HD
ATOM      4  H2  UNL     1       8.538   0.434  23.034  0.00  0.00    +0.119 HD
ENDBRANCH   1   2
BRANCH   1   5
ATOM      5  C   UNL     1      10.533   2.603  23.030  0.00  0.00    +0.322 C 
ATOM      6  OXT UNL     1      11.246   3.553  23.317  0.00  0.00    -0.249 OA
BRANCH   5   7
ATOM      7  O   UNL     1      10.241   2.250  21.751  0.00  0.00    -0.480 OA
ATOM      8  H   UNL     1       9.331   1.860  21.793  0.00  0.00    +0.295 HD
ENDBRANCH   5   7
ENDBRANCH   1   5
BRANCH   1   9
ATOM      9  C   UNL     1      10.604   0.366  24.283  0.00  0.00    +0.032 C 
BRANCH   9  10
ATOM     10  C   UNL     1       9.928  -0.943  23.846  0.00  0.00    +0.030 C 
BRANCH  10  11
ATOM     11  C   UNL     1      10.376  -1.481  22.492  0.00  0.00    +0.156 C 
BRANCH  11  12
ATOM     12  O   UNL     1       9.882  -0.690  21.425  0.00  0.00    -0.395 OA
ATOM     13  H   UNL     1      10.267  -1.036  20.593  0.00  0.00    +0.209 HD
ENDBRANCH  11  12
ENDBRANCH  10  11
ENDBRANCH   9  10
ENDBRANCH   1   9
TORSDOF 7
ENDMDL
MODEL 3
REMARK VINA RESULT:      -4.0      3.542      4.769
REMARK  Name = 
REMARK  7 active torsions:
REMARK  status: ('A' for Active; 'I' for Inactive)
REMARK    1  A    between atoms: N_1  and  CA_2
REMARK    2  A    between atoms: CA_2  and  C_4
REMARK    3  A    between atoms: CA_2  and  C_8
REMARK    4  A    between atoms: C_4  and  C_5
REMARK    5  A    between atoms: C_5  and  C_6
REMARK    6  A    between atoms: C_6  and  O_7
REMARK    7  A    between atoms: C_8  and  O_9
REMARK                            x       y       z     vdW  Elec       q    Type
REMARK                         _______ _______ _______ _____ _____    ______ ____
ROOT
ATOM      1  CA  UNL     1       9.520  -0.680  23.983  0.00  0.00    +0.161 C 
ENDROOT
BRANCH   1   2
ATOM      2  N   UNL     1       8.683  -1.145  25.142  0.00  0.00    -0.318 NA
ATOM      3  H1  UNL     1       7.717  -1.270  24.820  0.00  0.00    +0.119 HD
ATOM      4  H2  UNL     1       8.991  -2.098  25.365  0.00  0.00    +0.119 HD
ENDBRANCH   1   2
BRANCH   1   5
ATOM      5  C   UNL     1      10.099  -1.927  23.280  0.00  0.00    +0.322 C 
ATOM      6  OXT UNL     1      10.246  -3.027  23.789  0.00  0.00    -0.249 OA
BRANCH   5   7
ATOM      7  O   UNL     1      10.457  -1.644  22.000  0.00  0.00    -0.480 OA
ATOM      8  H   UNL     1      10.891  -2.471  21.665  0.00  0.00    +0.295 HD
ENDBRANCH   5   7
ENDBRANCH   1   5
BRANCH   1   9
ATOM      9  C   UNL     1      10.609   0.276  24.491  0.00  0.00    +0.032 C 
BRANCH   9  10
ATOM     10  C   UNL     1      10.607   1.705  23.925  0.00  0.00    +0.030 C 
BRANCH  10  11
ATOM     11  C   UNL     1       9.589   1.961  22.821  0.00  0.00    +0.156 C 
BRANCH  11  12
ATOM     12  O   UNL     1      10.217   2.205  21.574  0.00  0.00    -0.395 OA
ATOM     13  H   UNL     1      10.820   2.969  21.687  0.00  0.00    +0.209 HD
ENDBRANCH  11  12
ENDBRANCH  10  11
ENDBRANCH   9  10
ENDBRANCH   1   9
TORSDOF 7
ENDMDL
MODEL 4
REMARK VINA RESULT:      -3.9      3.371      4.365
REMARK  Name = 
REMARK  7 active torsions:
REMARK  status: ('A' for Active; 'I' for Inactive)
REMARK    1  A    between atoms: N_1  and  CA_2
REMARK    2  A    between atoms: CA_2  and  C_4
REMARK    3  A    between atoms: CA_2  and  C_8
REMARK    4  A    between atoms: C_4  and  C_5
REMARK    5  A    between atoms: C_5  and  C_6
REMARK    6  A    between atoms: C_6  and  O_7
REMARK    7  A    between atoms: C_8  and  O_9
REMARK                            x       y       z     vdW  Elec       q    Type
REMARK                         _______ _______ _______ _____ _____    ______ ____
ROOT
ATOM      1  CA  UNL     1      10.195  -1.369  22.984  0.00  0.00    +0.161 C 
ENDROOT
BRANCH   1   2
ATOM      2  N   UNL     1      10.055  -1.334  21.488  0.00  0.00    -0.318 NA
ATOM      3  H1  UNL     1      10.974  -1.139  21.076  0.00  0.00    +0.119 HD
ATOM      4  H2  UNL     1       9.851  -2.294  21.187  0.00  0.00    +0.119 HD
ENDBRANCH   1   2
BRANCH   1   5
ATOM      5  C   UNL     1       9.511  -2.655  23.498  0.00  0.00    +0.322 C 
ATOM      6  OXT UNL     1      10.020  -3.488  24.231  0.00  0.00    -0.249 OA
BRANCH   5   7
ATOM      7  O   UNL     1       8.248  -2.765  23.008  0.00  0.00    -0.480 OA
ATOM      8  H   UNL     1       8.142  -3.726  22.785  0.00  0.00    +0.295 HD
ENDBRANCH   5   7
ENDBRANCH   1   5
BRANCH   1   9
ATOM      9  C   UNL     1       9.589  -0.092  23.585  0.00  0.00    +0.032 C 
BRANCH   9  10
ATOM     10  C   UNL     1      10.523   1.118  23.743  0.00  0.00    +0.030 C 
BRANCH  10  11
ATOM     11  C   UNL     1      10.184   2.316  22.864  0.00  0.00    +0.156 C 
BRANCH  11  12
ATOM     12  O   UNL     1      10.007   1.938  21.510  0.00  0.00    -0.395 OA
ATOM     13  H   UNL     1      10.581   2.512  20.962  0.00  0.00    +0.209 HD
ENDBRANCH  11  12
ENDBRANCH  10  11
ENDBRANCH   9  10
ENDBRANCH   1   9
TORSDOF 7
ENDMDL
MODEL 5
REMARK VINA RESULT:      -3.8      2.589      3.094
REMARK  Name = 
REMARK  7 active torsions:
REMARK  status: ('A' for Active; 'I' for Inactive)
REMARK    1  A    between atoms: N_1  and  CA_2
REMARK    2  A    between atoms: CA_2  and  C_4
REMARK    3  A    between atoms: CA_2  and  C_8
REMARK    4  A    between atoms: C_4  and  C_5
REMARK    5  A    between atoms: C_5  and  C_6
REMARK    6  A    between atoms: C_6  and  O_7
REMARK    7  A    between atoms: C_8  and  O_9
REMARK                            x       y       z     vdW  Elec       q    Type
REMARK                         _______ _______ _______ _____ _____    ______ ____
ROOT
ATOM      1  CA  UNL     1       9.053  -4.524  25.281  0.00  0.00    +0.161 C 
ENDROOT
BRANCH   1   2
ATOM      2  N   UNL     1       9.894  -5.767  25.208  0.00  0.00    -0.318 NA
ATOM      3  H1  UNL     1      10.719  -5.641  25.803  0.00  0.00    +0.119 HD
ATOM      4  H2  UNL     1       9.365  -6.510  25.678  0.00  0.00    +0.119 HD
ENDBRANCH   1   2
BRANCH   1   5
ATOM      5  C   UNL     1       8.102  -4.659  26.490  0.00  0.00    +0.322 C 
ATOM      6  OXT UNL     1       7.370  -3.782  26.923  0.00  0.00    -0.249 OA
BRANCH   5   7
ATOM      7  O   UNL     1       8.194  -5.895  27.048  0.00  0.00    -0.480 OA
ATOM      8  H   UNL     1       8.378  -5.731  28.009  0.00  0.00    +0.295 HD
ENDBRANCH   5   7
ENDBRANCH   1   5
BRANCH   1   9
ATOM      9  C   UNL     1       8.303  -4.335  23.954  0.00  0.00    +0.032 C 
BRANCH   9  10
ATOM     10  C   UNL     1       7.141  -5.299  23.662  0.00  0.00    +0.030 C 
BRANCH  10  11
ATOM     11  C   UNL     1       7.004  -5.723  22.206  0.00  0.00    +0.156 C 
BRANCH  11  12
ATOM     12  O   UNL     1       5.882  -6.567  22.009  0.00  0.00    -0.395 OA
ATOM     13  H   UNL     1       5.165  -6.025  21.620  0.00  0.00    +0.209 HD
ENDBRANCH  11  12
ENDBRANCH  10  11
ENDBRANCH   9  10
ENDBRANCH   1   9
TORSDOF 7
ENDMDL
MODEL 6
REMARK VINA RESULT:      -3.8      2.694      3.068
REMARK  Name = 
REMARK  7 active torsions:
REMARK  status: ('A' for Active; 'I' for Inactive)
REMARK    1  A    between atoms: N_1  and  CA_2
REMARK    2  A    between atoms: CA_2  and  C_4
REMARK    3  A    between atoms: CA_2  and  C_8
REMARK    4  A    between atoms: C_4  and  C_5
REMARK    5  A    between atoms: C_5  and  C_6
REMARK    6  A    between atoms: C_6  and  O_7
REMARK    7  A    between atoms: C_8  and  O_9
REMARK                            x       y       z     vdW  Elec       q    Type
REMARK                         _______ _______ _______ _____ _____    ______ ____
ROOT
ATOM      1  CA  UNL     1       8.115  -5.334  25.645  0.00  0.00    +0.161 C 
ENDROOT
BRANCH   1   2
ATOM      2  N   UNL     1       8.124  -5.572  27.129  0.00  0.00    -0.318 NA
ATOM      3  H1  UNL     1       7.841  -4.707  27.602  0.00  0.00    +0.119 HD
ATOM      4  H2  UNL     1       7.356  -6.223  27.329  0.00  0.00    +0.119 HD
ENDBRANCH   1   2
BRANCH   1   5
ATOM      5  C   UNL     1       9.517  -4.835  25.232  0.00  0.00    +0.322 C 
ATOM      6  OXT UNL     1       9.749  -3.954  24.419  0.00  0.00    -0.249 OA
BRANCH   5   7
ATOM      7  O   UNL     1      10.492  -5.526  25.881  0.00  0.00    -0.480 OA
ATOM      8  H   UNL     1      10.972  -6.023  25.170  0.00  0.00    +0.295 HD
ENDBRANCH   5   7
ENDBRANCH   1   5
BRANCH   1   9
ATOM      9  C   UNL     1       7.002  -4.336  25.293  0.00  0.00    +0.032 C 
BRANCH   9  10
ATOM     10  C   UNL     1       6.038  -4.731  24.164  0.00  0.00    +0.030 C 
BRANCH  10  11
ATOM     11  C   UNL     1       6.667  -4.823  22.779  0.00  0.00    +0.156 C 
BRANCH  11  12
ATOM     12  O   UNL     1       7.517  -3.719  22.516  0.00  0.00    -0.395 OA
ATOM     13  H   UNL     1       7.750  -3.310  23.375  0.00  0.00    +0.209 HD
ENDBRANCH  11  12
ENDBRANCH  10  11
ENDBRANCH   9  10
ENDBRANCH   1   9
TORSDOF 7
ENDMDL
MODEL 7
REMARK VINA RESULT:      -3.7      4.176      6.350
REMARK  Name = 
REMARK  7 active torsions:
REMARK  status: ('A' for Active; 'I' for Inactive)
REMARK    1  A    between atoms: N_1  and  CA_2
REMARK    2  A    between atoms: CA_2  and  C_4
REMARK    3  A    between atoms: CA_2  and  C_8
REMARK    4  A    between atoms: C_4  and  C_5
REMARK    5  A    between atoms: C_5  and  C_6
REMARK    6  A    between atoms: C_6  and  O_7
REMARK    7  A    between atoms: C_8  and  O_9
REMARK                            x       y       z     vdW  Elec       q    Type
REMARK                         _______ _______ _______ _____ _____    ______ ____
ROOT
ATOM      1  CA  UNL     1      10.255   1.594  23.791  0.00  0.00    +0.161 C 
ENDROOT
BRANCH   1   2
ATOM      2  N   UNL     1       8.955   2.159  24.291  0.00  0.00    -0.318 NA
ATOM      3  H1  UNL     1       9.158   2.892  24.979  0.00  0.00    +0.119 HD
ATOM      4  H2  UNL     1       8.532   2.669  23.508  0.00  0.00    +0.119 HD
ENDBRANCH   1   2
BRANCH   1   5
ATOM      5  C   UNL     1      10.073   1.223  22.303  0.00  0.00    +0.322 C 
ATOM      6  OXT UNL     1       9.941   0.091  21.862  0.00  0.00    -0.249 OA
BRANCH   5   7
ATOM      7  O   UNL     1      10.101   2.330  21.515  0.00  0.00    -0.480 OA
ATOM      8  H   UNL     1       9.169   2.441  21.194  0.00  0.00    +0.295 HD
ENDBRANCH   5   7
ENDBRANCH   1   5
BRANCH   1   9
ATOM      9  C   UNL     1      10.659   0.394  24.658  0.00  0.00    +0.032 C 
BRANCH   9  10
ATOM     10  C   UNL     1       9.538  -0.325  25.425  0.00  0.00    +0.030 C 
BRANCH  10  11
ATOM     11  C   UNL     1       9.082  -1.645  24.816  0.00  0.00    +0.156 C 
BRANCH  11  12
ATOM     12  O   UNL     1      10.001  -2.121  23.847  0.00  0.00    -0.395 OA
ATOM     13  H   UNL     1      10.851  -2.295  24.302  0.00  0.00    +0.209 HD
ENDBRANCH  11  12
ENDBRANCH  10  11
ENDBRANCH   9  10
ENDBRANCH   1   9
TORSDOF 7
ENDMDL
MODEL 8
REMARK VINA RESULT:      -3.7      6.023      6.681
REMARK  Name = 
REMARK  7 active torsions:
REMARK  status: ('A' for Active; 'I' for Inactive)
REMARK    1  A    between atoms: N_1  and  CA_2
REMARK    2  A    between atoms: CA_2  and  C_4
REMARK    3  A    between atoms: CA_2  and  C_8
REMARK    4  A    between atoms: C_4  and  C_5
REMARK    5  A    between atoms: C_5  and  C_6
REMARK    6  A    between atoms: C_6  and  O_7
REMARK    7  A    between atoms: C_8  and  O_9
REMARK                            x       y       z     vdW  Elec       q    Type
REMARK                         _______ _______ _______ _____ _____    ______ ____
ROOT
ATOM      1  CA  UNL     1      10.065   2.515  24.041  0.00  0.00    +0.161 C 
ENDROOT
BRANCH   1   2
ATOM      2  N   UNL     1      10.751   3.124  22.850  0.00  0.00    -0.318 NA
ATOM      3  H1  UNL     1      11.039   2.371  22.216  0.00  0.00    +0.119 HD
ATOM      4  H2  UNL     1      10.032   3.629  22.320  0.00  0.00    +0.119 HD
ENDBRANCH   1   2
BRANCH   1   5
ATOM      5  C   UNL     1      10.424   1.013  24.083  0.00  0.00    +0.322 C 
ATOM      6  OXT UNL     1      10.527   0.278  23.113  0.00  0.00    -0.249 OA
BRANCH   5   7
ATOM      7  O   UNL     1      10.593   0.587  25.362  0.00  0.00    -0.480 OA
ATOM      8  H   UNL     1      10.003  -0.206  25.449  0.00  0.00    +0.295 HD
ENDBRANCH   5   7
ENDBRANCH   1   5
BRANCH   1   9
ATOM      9  C   UNL     1       8.552   2.762  23.941  0.00  0.00    +0.032 C 
BRANCH   9  10
ATOM     10  C   UNL     1       7.988   3.100  22.552  0.00  0.00    +0.030 C 
BRANCH  10  11
ATOM     11  C   UNL     1       7.670   1.896  21.674  0.00  0.00    +0.156 C 
BRANCH  11  12
ATOM     12  O   UNL     1       8.810   1.457  20.954  0.00  0.00    -0.395 OA
ATOM     13  H   UNL     1       9.231   0.740  21.470  0.00  0.00    +0.209 HD
ENDBRANCH  11  12
ENDBRANCH  10  11
ENDBRANCH   9  10
ENDBRANCH   1   9
TORSDOF 7
ENDMDL
MODEL 9
REMARK VINA RESULT:      -3.7      5.213      6.261
REMARK  Name = 
REMARK  7 active torsions:
REMARK  status: ('A' for Active; 'I' for Inactive)
REMARK    1  A    between atoms: N_1  and  CA_2
REMARK    2  A    between atoms: CA_2  and  C_4
REMARK    3  A    between atoms: CA_2  and  C_8
REMARK    4  A    between atoms: C_4  and  C_5
REMARK    5  A    between atoms: C_5  and  C_6
REMARK    6  A    between atoms: C_6  and  O_7
REMARK    7  A    between atoms: C_8  and  O_9
REMARK                            x       y       z     vdW  Elec       q    Type
REMARK                         _______ _______ _______ _____ _____    ______ ____
ROOT
ATOM      1  CA  UNL     1       8.671   0.002  21.983  0.00  0.00    +0.161 C 
ENDROOT
BRANCH   1   2
ATOM      2  N   UNL     1       9.984  -0.574  21.531  0.00  0.00    -0.318 NA
ATOM      3  H1  UNL     1      10.624   0.198  21.313  0.00  0.00    +0.119 HD
ATOM      4  H2  UNL     1      10.410  -1.019  22.352  0.00  0.00    +0.119 HD
ENDBRANCH   1   2
BRANCH   1   5
ATOM      5  C   UNL     1       8.696   1.521  21.708  0.00  0.00    +0.322 C 
ATOM      6  OXT UNL     1       7.715   2.241  21.598  0.00  0.00    -0.249 OA
BRANCH   5   7
ATOM      7  O   UNL     1       9.971   1.974  21.576  0.00  0.00    -0.480 OA
ATOM      8  H   UNL     1      10.353   1.937  22.491  0.00  0.00    +0.295 HD
ENDBRANCH   5   7
ENDBRANCH   1   5
BRANCH   1   9
ATOM      9  C   UNL     1       8.451  -0.331  23.466  0.00  0.00    +0.032 C 
BRANCH   9  10
ATOM     10  C   UNL     1       9.675  -0.799  24.269  0.00  0.00    +0.030 C 
BRANCH  10  11
ATOM     11  C   UNL     1      10.419   0.301  25.014  0.00  0.00    +0.156 C 
BRANCH  11  12
ATOM     12  O   UNL     1      11.206   1.089  24.137  0.00  0.00    -0.395 OA
ATOM     13  H   UNL     1      11.165   2.016  24.450  0.00  0.00    +0.209 HD
ENDBRANCH  11  12
ENDBRANCH  10  11
ENDBRANCH   9  10
ENDBRANCH   1   9
TORSDOF 7
ENDMDL
