MODEL 1
REMARK VINA RESULT:      -7.4      0.000      0.000
REMARK  Name = 
REMARK  9 active torsions:
REMARK  status: ('A' for Active; 'I' for Inactive)
REMARK    1  A    between atoms: C_4  and  C_5
REMARK    2  A    between atoms: C_4  and  C_6
REMARK    3  A    between atoms: CA_7  and  C_27
REMARK    4  A    between atoms: CA_12  and  N_14
REMARK    5  A    between atoms: C_15  and  C_17
REMARK    6  A    between atoms: C_17  and  C_18
REMARK    7  A    between atoms: C_17  and  C_21
REMARK    8  A    between atoms: C_18  and  O_19
REMARK    9  A    between atoms: C_27  and  O_28
REMARK                            x       y       z     vdW  Elec       q    Type
REMARK                         _______ _______ _______ _____ _____    ______ ____
ROOT
ATOM      1  N   UNL     1       7.973  -3.341  24.023  0.00  0.00    -0.301 N 
ATOM      2  H   UNL     1       7.740  -2.783  24.840  0.00  0.00    +0.150 HD
ATOM      3  C   UNL     1       7.814  -4.710  24.081  0.00  0.00    +0.232 C 
ATOM      4  O   UNL     1       8.029  -5.417  23.098  0.00  0.00    -0.275 OA
ENDROOT
BRANCH   1   6
ATOM      5  C   UNL     1       7.659  -1.255  22.534  0.00  0.00    +0.165 C 
ATOM      6  CA  UNL     1       8.236  -2.683  22.712  0.00  0.00    +0.190 C 
ATOM      7  C   UNL     1       9.607  -2.000  22.514  0.00  0.00    +0.240 C 
ATOM      8  O   UNL     1      10.766  -2.264  22.732  0.00  0.00    -0.273 OA
ATOM      9  N   UNL     1       9.021  -0.803  22.172  0.00  0.00    -0.271 N 
ATOM     10  CA  UNL     1       9.488   0.444  22.808  0.00  0.00    +0.201 C 
ATOM     11  C   UNL     1       8.868   0.493  24.226  0.00  0.00    +0.042 C 
ATOM     12  C   UNL     1       9.682  -0.333  25.244  0.00  0.00    +0.025 C 
ATOM     13  C   UNL     1       8.697   1.890  24.832  0.00  0.00    +0.025 C 
ATOM     14  S   UNL     1       7.218  -0.323  24.058  0.00  0.00    -0.127 S 
BRANCH  10  15
ATOM     15  C   UNL     1       9.124   1.614  21.875  0.00  0.00    +0.327 C 
ATOM     16  OXT UNL     1       7.997   1.869  21.481  0.00  0.00    -0.249 OA
BRANCH  15  17
ATOM     17  O   UNL     1      10.173   2.428  21.587  0.00  0.00    -0.479 OA
ATOM     18  H   UNL     1      11.019   1.976  21.781  0.00  0.00    +0.295 HD
ENDBRANCH  15  17
ENDBRANCH  10  15
ENDBRANCH   1   6
BRANCH   3  19
ATOM     19  C   UNL     1       7.445  -5.277  25.439  0.00  0.00    +0.213 C 
BRANCH  19  20
ATOM     20  C   UNL     1       5.949  -5.533  25.602  0.00  0.00    -0.025 A 
ATOM     21  C   UNL     1       4.998  -5.024  24.701  0.00  0.00    +0.005 A 
ATOM     22  C   UNL     1       3.634  -5.237  24.908  0.00  0.00    +0.000 A 
ATOM     23  C   UNL     1       3.201  -5.959  26.016  0.00  0.00    +0.000 A 
ATOM     24  C   UNL     1       4.130  -6.475  26.916  0.00  0.00    +0.000 A 
ATOM     25  C   UNL     1       5.495  -6.262  26.714  0.00  0.00    +0.005 A 
ENDBRANCH  19  20
BRANCH  19  26
ATOM     26  C   UNL     1       8.031  -4.415  26.543  0.00  0.00    +0.321 C 
ATOM     27  O   UNL     1       7.517  -3.359  26.896  0.00  0.00    -0.250 OA
BRANCH  26  28
ATOM     28  O   UNL     1       9.146  -4.886  27.143  0.00  0.00    -0.480 OA
ATOM     29  H   UNL     1       9.381  -4.434  27.977  0.00  0.00    +0.295 HD
ENDBRANCH  26  28
ENDBRANCH  19  26
ENDBRANCH   3  19
TORSDOF 7
ENDMDL
MODEL 2
REMARK VINA RESULT:      -7.2      2.353      7.264
REMARK  Name = 
REMARK  9 active torsions:
REMARK  status: ('A' for Active; 'I' for Inactive)
REMARK    1  A    between atoms: C_4  and  C_5
REMARK    2  A    between atoms: C_4  and  C_6
REMARK    3  A    between atoms: CA_7  and  C_27
REMARK    4  A    between atoms: CA_12  and  N_14
REMARK    5  A    between atoms: C_15  and  C_17
REMARK    6  A    between atoms: C_17  and  C_18
REMARK    7  A    between atoms: C_17  and  C_21
REMARK    8  A    between atoms: C_18  and  O_19
REMARK    9  A    between atoms: C_27  and  O_28
REMARK                            x       y       z     vdW  Elec       q    Type
REMARK                         _______ _______ _______ _____ _____    ______ ____
ROOT
ATOM      1  N   UNL     1       7.674  -2.051  24.339  0.00  0.00    -0.301 N 
ATOM      2  H   UNL     1       7.797  -2.010  23.332  0.00  0.00    +0.150 HD
ATOM      3  C   UNL     1       8.554  -1.366  25.150  0.00  0.00    +0.232 C 
ATOM      4  O   UNL     1       8.407  -1.342  26.371  0.00  0.00    -0.275 OA
ENDROOT
BRANCH   1   6
ATOM      5  C   UNL     1       5.353  -3.100  23.910  0.00  0.00    +0.165 C 
ATOM      6  CA  UNL     1       6.427  -2.623  24.922  0.00  0.00    +0.190 C 
ATOM      7  C   UNL     1       6.456  -4.102  25.370  0.00  0.00    +0.240 C 
ATOM      8  O   UNL     1       7.201  -4.822  25.991  0.00  0.00    -0.273 OA
ATOM      9  N   UNL     1       5.368  -4.415  24.589  0.00  0.00    -0.271 N 
ATOM     10  CA  UNL     1       5.417  -5.603  23.716  0.00  0.00    +0.201 C 
ATOM     11  C   UNL     1       6.257  -5.221  22.472  0.00  0.00    +0.042 C 
ATOM     12  C   UNL     1       7.772  -5.349  22.733  0.00  0.00    +0.025 C 
ATOM     13  C   UNL     1       5.963  -6.019  21.197  0.00  0.00    +0.025 C 
ATOM     14  S   UNL     1       5.902  -3.429  22.185  0.00  0.00    -0.127 S 
BRANCH  10  15
ATOM     15  C   UNL     1       3.968  -6.045  23.437  0.00  0.00    +0.327 C 
ATOM     16  OXT UNL     1       3.117  -5.352  22.900  0.00  0.00    -0.249 OA
BRANCH  15  17
ATOM     17  O   UNL     1       3.722  -7.341  23.759  0.00  0.00    -0.479 OA
ATOM     18  H   UNL     1       4.199  -7.586  24.579  0.00  0.00    +0.295 HD
ENDBRANCH  15  17
ENDBRANCH  10  15
ENDBRANCH   1   6
BRANCH   3  19
ATOM     19  C   UNL     1       9.741  -0.730  24.450  0.00  0.00    +0.213 C 
BRANCH  19  20
ATOM     20  C   UNL     1       9.636   0.789  24.343  0.00  0.00    -0.025 A 
ATOM     21  C   UNL     1       8.451   1.484  24.643  0.00  0.00    +0.005 A 
ATOM     22  C   UNL     1       8.379   2.869  24.487  0.00  0.00    +0.000 A 
ATOM     23  C   UNL     1       9.484   3.580  24.030  0.00  0.00    +0.000 A 
ATOM     24  C   UNL     1      10.667   2.908  23.732  0.00  0.00    +0.000 A 
ATOM     25  C   UNL     1      10.745   1.522  23.884  0.00  0.00    +0.005 A 
ENDBRANCH  19  20
BRANCH  19  26
ATOM     26  C   UNL     1       9.988  -1.410  23.115  0.00  0.00    +0.321 C 
ATOM     27  O   UNL     1      10.668  -2.425  23.010  0.00  0.00    -0.250 OA
BRANCH  26  28
ATOM     28  O   UNL     1       9.394  -0.849  22.038  0.00  0.00    -0.480 OA
ATOM     29  H   UNL     1       9.990  -0.696  21.280  0.00  0.00    +0.295 HD
ENDBRANCH  26  28
ENDBRANCH  19  26
ENDBRANCH   3  19
TORSDOF 7
ENDMDL
MODEL 3
REMARK VINA RESULT:      -7.1      2.494      7.834
REMARK  Name = 
REMARK  9 active torsions:
REMARK  status: ('A' for Active; 'I' for Inactive)
REMARK    1  A    between atoms: C_4  and  C_5
REMARK    2  A    between atoms: C_4  and  C_6
REMARK    3  A    between atoms: CA_7  and  C_27
REMARK    4  A    between atoms: CA_12  and  N_14
REMARK    5  A    between atoms: C_15  and  C_17
REMARK    6  A    between atoms: C_17  and  C_18
REMARK    7  A    between atoms: C_17  and  C_21
REMARK    8  A    between atoms: C_18  and  O_19
REMARK    9  A    between atoms: C_27  and  O_28
REMARK                            x       y       z     vdW  Elec       q    Type
REMARK                         _______ _______ _______ _____ _____    ______ ____
ROOT
ATOM      1  N   UNL     1       8.752   0.668  23.635  0.00  0.00    -0.301 N 
ATOM      2  H   UNL     1       7.889   0.714  24.170  0.00  0.00    +0.150 HD
ATOM      3  C   UNL     1       9.036   1.673  22.735  0.00  0.00    +0.232 C 
ATOM      4  O   UNL     1      10.096   1.686  22.110  0.00  0.00    -0.275 OA
ENDROOT
BRANCH   1   6
ATOM      5  C   UNL     1       9.448  -1.330  25.115  0.00  0.00    +0.165 C 
ATOM      6  CA  UNL     1       9.806  -0.323  23.992  0.00  0.00    +0.190 C 
ATOM      7  C   UNL     1       9.943  -1.579  23.104  0.00  0.00    +0.240 C 
ATOM      8  O   UNL     1       9.964  -1.827  21.922  0.00  0.00    -0.273 OA
ATOM      9  N   UNL     1       9.811  -2.422  24.184  0.00  0.00    -0.271 N 
ATOM     10  CA  UNL     1       8.873  -3.558  24.108  0.00  0.00    +0.201 C 
ATOM     11  C   UNL     1       7.448  -2.989  24.321  0.00  0.00    +0.042 C 
ATOM     12  C   UNL     1       6.855  -2.412  23.019  0.00  0.00    +0.025 C 
ATOM     13  C   UNL     1       6.412  -3.972  24.876  0.00  0.00    +0.025 C 
ATOM     14  S   UNL     1       7.664  -1.577  25.494  0.00  0.00    -0.127 S 
BRANCH  10  15
ATOM     15  C   UNL     1       9.331  -4.617  25.129  0.00  0.00    +0.327 C 
ATOM     16  OXT UNL     1       9.325  -4.468  26.341  0.00  0.00    -0.249 OA
BRANCH  15  17
ATOM     17  O   UNL     1       9.668  -5.806  24.567  0.00  0.00    -0.479 OA
ATOM     18  H   UNL     1       8.988  -6.482  24.764  0.00  0.00    +0.295 HD
ENDBRANCH  15  17
ENDBRANCH  10  15
ENDBRANCH   1   6
BRANCH   3  19
ATOM     19  C   UNL     1       7.936   2.695  22.514  0.00  0.00    +0.213 C 
BRANCH  19  20
ATOM     20  C   UNL     1       8.322   4.104  22.952  0.00  0.00    -0.025 A 
ATOM     21  C   UNL     1       9.278   4.344  23.956  0.00  0.00    +0.005 A 
ATOM     22  C   UNL     1       9.570   5.646  24.365  0.00  0.00    +0.000 A 
ATOM     23  C   UNL     1       8.915   6.726  23.782  0.00  0.00    +0.000 A 
ATOM     24  C   UNL     1       7.969   6.507  22.784  0.00  0.00    +0.000 A 
ATOM     25  C   UNL     1       7.671   5.207  22.372  0.00  0.00    +0.005 A 
ENDBRANCH  19  20
BRANCH  19  26
ATOM     26  C   UNL     1       6.638   2.208  23.132  0.00  0.00    +0.321 C 
ATOM     27  O   UNL     1       6.195   2.665  24.180  0.00  0.00    -0.250 OA
BRANCH  26  28
ATOM     28  O   UNL     1       5.971   1.251  22.448  0.00  0.00    -0.480 OA
ATOM     29  H   UNL     1       5.920   0.388  22.904  0.00  0.00    +0.295 HD
ENDBRANCH  26  28
ENDBRANCH  19  26
ENDBRANCH   3  19
TORSDOF 7
ENDMDL
MODEL 4
REMARK VINA RESULT:      -7.0      2.257      7.687
REMARK  Name = 
REMARK  9 active torsions:
REMARK  status: ('A' for Active; 'I' for Inactive)
REMARK    1  A    between atoms: C_4  and  C_5
REMARK    2  A    between atoms: C_4  and  C_6
REMARK    3  A    between atoms: CA_7  and  C_27
REMARK    4  A    between atoms: CA_12  and  N_14
REMARK    5  A    between atoms: C_15  and  C_17
REMARK    6  A    between atoms: C_17  and  C_18
REMARK    7  A    between atoms: C_17  and  C_21
REMARK    8  A    between atoms: C_18  and  O_19
REMARK    9  A    between atoms: C_27  and  O_28
REMARK                            x       y       z     vdW  Elec       q    Type
REMARK                         _______ _______ _______ _____ _____    ______ ____
ROOT
ATOM      1  N   UNL     1       9.213  -0.156  24.175  0.00  0.00    -0.301 N 
ATOM      2  H   UNL     1       8.464   0.091  23.534  0.00  0.00    +0.150 HD
ATOM      3  C   UNL     1      10.333   0.645  24.237  0.00  0.00    +0.232 C 
ATOM      4  O   UNL     1      11.236   0.415  25.040  0.00  0.00    -0.275 OA
ENDROOT
BRANCH   1   6
ATOM      5  C   UNL     1       7.536  -1.661  25.437  0.00  0.00    +0.165 C 
ATOM      6  CA  UNL     1       9.001  -1.210  25.208  0.00  0.00    +0.190 C 
ATOM      7  C   UNL     1       9.239  -2.679  24.795  0.00  0.00    +0.240 C 
ATOM      8  O   UNL     1      10.075  -3.300  24.182  0.00  0.00    -0.273 OA
ATOM      9  N   UNL     1       7.979  -3.053  25.202  0.00  0.00    -0.271 N 
ATOM     10  CA  UNL     1       7.137  -3.867  24.305  0.00  0.00    +0.201 C 
ATOM     11  C   UNL     1       6.556  -2.912  23.233  0.00  0.00    +0.042 C 
ATOM     12  C   UNL     1       7.549  -2.665  22.078  0.00  0.00    +0.025 C 
ATOM     13  C   UNL     1       5.237  -3.354  22.590  0.00  0.00    +0.025 C 
ATOM     14  S   UNL     1       6.320  -1.298  24.104  0.00  0.00    -0.127 S 
BRANCH  10  15
ATOM     15  C   UNL     1       6.103  -4.609  25.173  0.00  0.00    +0.327 C 
ATOM     16  OXT UNL     1       5.499  -4.118  26.114  0.00  0.00    -0.249 OA
BRANCH  15  17
ATOM     17  O   UNL     1       5.833  -5.869  24.742  0.00  0.00    -0.479 OA
ATOM     18  H   UNL     1       5.788  -6.487  25.500  0.00  0.00    +0.295 HD
ENDBRANCH  15  17
ENDBRANCH  10  15
ENDBRANCH   1   6
BRANCH   3  19
ATOM     19  C   UNL     1      10.410   1.757  23.207  0.00  0.00    +0.213 C 
BRANCH  19  20
ATOM     20  C   UNL     1      10.019   3.123  23.762  0.00  0.00    -0.025 A 
ATOM     21  C   UNL     1       8.871   3.313  24.552  0.00  0.00    +0.005 A 
ATOM     22  C   UNL     1       8.518   4.587  25.002  0.00  0.00    +0.000 A 
ATOM     23  C   UNL     1       9.302   5.687  24.669  0.00  0.00    +0.000 A 
ATOM     24  C   UNL     1      10.444   5.517  23.891  0.00  0.00    +0.000 A 
ATOM     25  C   UNL     1      10.801   4.246  23.437  0.00  0.00    +0.005 A 
ENDBRANCH  19  20
BRANCH  19  26
ATOM     26  C   UNL     1       9.635   1.370  21.960  0.00  0.00    +0.321 C 
ATOM     27  O   UNL     1       9.716   0.256  21.454  0.00  0.00    -0.250 OA
BRANCH  26  28
ATOM     28  O   UNL     1       8.821   2.317  21.443  0.00  0.00    -0.480 OA
ATOM     29  H   UNL     1       8.452   2.938  22.101  0.00  0.00    +0.295 HD
ENDBRANCH  26  28
ENDBRANCH  19  26
ENDBRANCH   3  19
TORSDOF 7
ENDMDL
MODEL 5
REMARK VINA RESULT:      -6.9      2.237      7.463
REMARK  Name = 
REMARK  9 active torsions:
REMARK  status: ('A' for Active; 'I' for Inactive)
REMARK    1  A    between atoms: C_4  and  C_5
REMARK    2  A    between atoms: C_4  and  C_6
REMARK    3  A    between atoms: CA_7  and  C_27
REMARK    4  A    between atoms: CA_12  and  N_14
REMARK    5  A    between atoms: C_15  and  C_17
REMARK    6  A    between atoms: C_17  and  C_18
REMARK    7  A    between atoms: C_17  and  C_21
REMARK    8  A    between atoms: C_18  and  O_19
REMARK    9  A    between atoms: C_27  and  O_28
REMARK                            x       y       z     vdW  Elec       q    Type
REMARK                         _______ _______ _______ _____ _____    ______ ____
ROOT
ATOM      1  N   UNL     1       7.917  -2.905  24.968  0.00  0.00    -0.301 N 
ATOM      2  H   UNL     1       7.070  -2.374  24.786  0.00  0.00    +0.150 HD
ATOM      3  C   UNL     1       8.978  -2.793  24.094  0.00  0.00    +0.232 C 
ATOM      4  O   UNL     1      10.042  -3.374  24.308  0.00  0.00    -0.275 OA
ENDROOT
BRANCH   1   6
ATOM      5  C   UNL     1       6.857  -3.693  27.187  0.00  0.00    +0.165 C 
ATOM      6  CA  UNL     1       8.108  -3.591  26.277  0.00  0.00    +0.190 C 
ATOM      7  C   UNL     1       8.069  -5.135  26.293  0.00  0.00    +0.240 C 
ATOM      8  O   UNL     1       8.531  -6.037  25.635  0.00  0.00    -0.273 OA
ATOM      9  N   UNL     1       7.084  -5.153  27.253  0.00  0.00    -0.271 N 
ATOM     10  CA  UNL     1       5.898  -6.010  27.061  0.00  0.00    +0.201 C 
ATOM     11  C   UNL     1       4.969  -5.286  26.056  0.00  0.00    +0.042 C 
ATOM     12  C   UNL     1       5.388  -5.537  24.593  0.00  0.00    +0.025 C 
ATOM     13  C   UNL     1       3.480  -5.636  26.151  0.00  0.00    +0.025 C 
ATOM     14  S   UNL     1       5.211  -3.483  26.390  0.00  0.00    -0.127 S 
BRANCH  10  15
ATOM     15  C   UNL     1       5.293  -6.296  28.448  0.00  0.00    +0.327 C 
ATOM     16  OXT UNL     1       5.025  -5.445  29.283  0.00  0.00    -0.249 OA
BRANCH  15  17
ATOM     17  O   UNL     1       4.980  -7.602  28.648  0.00  0.00    -0.479 OA
ATOM     18  H   UNL     1       4.640  -7.737  29.556  0.00  0.00    +0.295 HD
ENDBRANCH  15  17
ENDBRANCH  10  15
ENDBRANCH   1   6
BRANCH   3  19
ATOM     19  C   UNL     1       8.717  -1.989  22.835  0.00  0.00    +0.213 C 
BRANCH  19  20
ATOM     20  C   UNL     1       9.251  -0.561  22.907  0.00  0.00    -0.025 A 
ATOM     21  C   UNL     1       9.397   0.246  21.766  0.00  0.00    +0.005 A 
ATOM     22  C   UNL     1       9.935   1.531  21.865  0.00  0.00    +0.000 A 
ATOM     23  C   UNL     1      10.335   2.027  23.101  0.00  0.00    +0.000 A 
ATOM     24  C   UNL     1      10.194   1.242  24.243  0.00  0.00    +0.000 A 
ATOM     25  C   UNL     1       9.659  -0.044  24.150  0.00  0.00    +0.005 A 
ENDBRANCH  19  20
BRANCH  19  26
ATOM     26  C   UNL     1       7.247  -2.062  22.462  0.00  0.00    +0.321 C 
ATOM     27  O   UNL     1       6.769  -3.015  21.857  0.00  0.00    -0.250 OA
BRANCH  26  28
ATOM     28  O   UNL     1       6.477  -1.024  22.856  0.00  0.00    -0.480 OA
ATOM     29  H   UNL     1       5.557  -1.264  23.082  0.00  0.00    +0.295 HD
ENDBRANCH  26  28
ENDBRANCH  19  26
ENDBRANCH   3  19
TORSDOF 7
ENDMDL
MODEL 6
REMARK VINA RESULT:      -6.9      2.043      3.414
REMARK  Name = 
REMARK  9 active torsions:
REMARK  status: ('A' for Active; 'I' for Inactive)
REMARK    1  A    between atoms: C_4  and  C_5
REMARK    2  A    between atoms: C_4  and  C_6
REMARK    3  A    between atoms: CA_7  and  C_27
REMARK    4  A    between atoms: CA_12  and  N_14
REMARK    5  A    between atoms: C_15  and  C_17
REMARK    6  A    between atoms: C_17  and  C_18
REMARK    7  A    between atoms: C_17  and  C_21
REMARK    8  A    between atoms: C_18  and  O_19
REMARK    9  A    between atoms: C_27  and  O_28
REMARK                            x       y       z     vdW  Elec       q    Type
REMARK                         _______ _______ _______ _____ _____    ______ ____
ROOT
ATOM      1  N   UNL     1       7.486  -2.693  25.909  0.00  0.00    -0.301 N 
ATOM      2  H   UNL     1       6.737  -2.687  25.223  0.00  0.00    +0.150 HD
ATOM      3  C   UNL     1       8.018  -3.902  26.308  0.00  0.00    +0.232 C 
ATOM      4  O   UNL     1       8.965  -3.952  27.092  0.00  0.00    -0.275 OA
ENDROOT
BRANCH   1   6
ATOM      5  C   UNL     1       9.410  -1.036  25.438  0.00  0.00    +0.165 C 
ATOM      6  CA  UNL     1       8.172  -1.425  26.287  0.00  0.00    +0.190 C 
ATOM      7  C   UNL     1       7.574  -0.101  25.761  0.00  0.00    +0.240 C 
ATOM      8  O   UNL     1       6.477   0.397  25.668  0.00  0.00    -0.273 OA
ATOM      9  N   UNL     1       8.768   0.274  25.192  0.00  0.00    -0.271 N 
ATOM     10  CA  UNL     1       8.789   0.764  23.800  0.00  0.00    +0.201 C 
ATOM     11  C   UNL     1       8.689  -0.477  22.879  0.00  0.00    +0.042 C 
ATOM     12  C   UNL     1       7.230  -0.945  22.694  0.00  0.00    +0.025 C 
ATOM     13  C   UNL     1       9.278  -0.315  21.474  0.00  0.00    +0.025 C 
ATOM     14  S   UNL     1       9.582  -1.820  23.782  0.00  0.00    -0.127 S 
BRANCH  10  15
ATOM     15  C   UNL     1      10.050   1.630  23.623  0.00  0.00    +0.327 C 
ATOM     16  OXT UNL     1      11.138   1.391  24.123  0.00  0.00    -0.249 OA
BRANCH  15  17
ATOM     17  O   UNL     1       9.882   2.668  22.763  0.00  0.00    -0.479 OA
ATOM     18  H   UNL     1       9.941   2.356  21.836  0.00  0.00    +0.295 HD
ENDBRANCH  15  17
ENDBRANCH  10  15
ENDBRANCH   1   6
BRANCH   3  19
ATOM     19  C   UNL     1       7.311  -5.140  25.788  0.00  0.00    +0.213 C 
BRANCH  19  20
ATOM     20  C   UNL     1       6.803  -4.991  24.357  0.00  0.00    -0.025 A 
ATOM     21  C   UNL     1       5.466  -4.670  24.064  0.00  0.00    +0.005 A 
ATOM     22  C   UNL     1       5.026  -4.590  22.741  0.00  0.00    +0.000 A 
ATOM     23  C   UNL     1       5.911  -4.828  21.695  0.00  0.00    +0.000 A 
ATOM     24  C   UNL     1       7.240  -5.142  21.967  0.00  0.00    +0.000 A 
ATOM     25  C   UNL     1       7.685  -5.226  23.288  0.00  0.00    +0.005 A 
ENDBRANCH  19  20
BRANCH  19  26
ATOM     26  C   UNL     1       6.235  -5.578  26.765  0.00  0.00    +0.321 C 
ATOM     27  O   UNL     1       5.718  -6.689  26.721  0.00  0.00    -0.250 OA
BRANCH  26  28
ATOM     28  O   UNL     1       5.887  -4.680  27.714  0.00  0.00    -0.480 OA
ATOM     29  H   UNL     1       5.729  -5.064  28.598  0.00  0.00    +0.295 HD
ENDBRANCH  26  28
ENDBRANCH  19  26
ENDBRANCH   3  19
TORSDOF 7
ENDMDL
MODEL 7
REMARK VINA RESULT:      -6.9      1.308      1.550
REMARK  Name = 
REMARK  9 active torsions:
REMARK  status: ('A' for Active; 'I' for Inactive)
REMARK    1  A    between atoms: C_4  and  C_5
REMARK    2  A    between atoms: C_4  and  C_6
REMARK    3  A    between atoms: CA_7  and  C_27
REMARK    4  A    between atoms: CA_12  and  N_14
REMARK    5  A    between atoms: C_15  and  C_17
REMARK    6  A    between atoms: C_17  and  C_18
REMARK    7  A    between atoms: C_17  and  C_21
REMARK    8  A    between atoms: C_18  and  O_19
REMARK    9  A    between atoms: C_27  and  O_28
REMARK                            x       y       z     vdW  Elec       q    Type
REMARK                         _______ _______ _______ _____ _____    ______ ____
ROOT
ATOM      1  N   UNL     1       7.357  -3.326  24.105  0.00  0.00    -0.301 N 
ATOM      2  H   UNL     1       6.660  -2.779  24.602  0.00  0.00    +0.150 HD
ATOM      3  C   UNL     1       7.558  -4.641  24.467  0.00  0.00    +0.232 C 
ATOM      4  O   UNL     1       8.350  -5.356  23.854  0.00  0.00    -0.275 OA
ENDROOT
BRANCH   1   6
ATOM      5  C   UNL     1       7.524  -1.385  22.410  0.00  0.00    +0.165 C 
ATOM      6  CA  UNL     1       7.967  -2.805  22.849  0.00  0.00    +0.190 C 
ATOM      7  C   UNL     1       9.377  -2.182  22.940  0.00  0.00    +0.240 C 
ATOM      8  O   UNL     1      10.432  -2.456  23.462  0.00  0.00    -0.273 OA
ATOM      9  N   UNL     1       8.954  -1.008  22.361  0.00  0.00    -0.271 N 
ATOM     10  CA  UNL     1       9.313   0.281  22.983  0.00  0.00    +0.201 C 
ATOM     11  C   UNL     1       8.368   0.483  24.192  0.00  0.00    +0.042 C 
ATOM     12  C   UNL     1       8.864  -0.263  25.448  0.00  0.00    +0.025 C 
ATOM     13  C   UNL     1       8.124   1.936  24.613  0.00  0.00    +0.025 C 
ATOM     14  S   UNL     1       6.770  -0.299  23.689  0.00  0.00    -0.127 S 
BRANCH  10  15
ATOM     15  C   UNL     1       9.249   1.366  21.892  0.00  0.00    +0.327 C 
ATOM     16  OXT UNL     1       8.263   1.621  21.217  0.00  0.00    -0.249 OA
BRANCH  15  17
ATOM     17  O   UNL     1      10.382   2.109  21.794  0.00  0.00    -0.479 OA
ATOM     18  H   UNL     1      10.846   2.138  22.655  0.00  0.00    +0.295 HD
ENDBRANCH  15  17
ENDBRANCH  10  15
ENDBRANCH   1   6
BRANCH   3  19
ATOM     19  C   UNL     1       6.813  -5.110  25.703  0.00  0.00    +0.213 C 
BRANCH  19  20
ATOM     20  C   UNL     1       5.562  -4.289  26.002  0.00  0.00    -0.025 A 
ATOM     21  C   UNL     1       5.548  -3.263  26.964  0.00  0.00    +0.005 A 
ATOM     22  C   UNL     1       4.371  -2.566  27.245  0.00  0.00    +0.000 A 
ATOM     23  C   UNL     1       3.195  -2.882  26.572  0.00  0.00    +0.000 A 
ATOM     24  C   UNL     1       3.192  -3.891  25.614  0.00  0.00    +0.000 A 
ATOM     25  C   UNL     1       4.365  -4.594  25.330  0.00  0.00    +0.005 A 
ENDBRANCH  19  20
BRANCH  19  26
ATOM     26  C   UNL     1       7.764  -5.206  26.883  0.00  0.00    +0.321 C 
ATOM     27  O   UNL     1       7.549  -5.937  27.844  0.00  0.00    -0.250 OA
BRANCH  26  28
ATOM     28  O   UNL     1       8.886  -4.456  26.810  0.00  0.00    -0.480 OA
ATOM     29  H   UNL     1       9.657  -4.834  27.277  0.00  0.00    +0.295 HD
ENDBRANCH  26  28
ENDBRANCH  19  26
ENDBRANCH   3  19
TORSDOF 7
ENDMDL
MODEL 8
REMARK VINA RESULT:      -6.7      1.942      2.904
REMARK  Name = 
REMARK  9 active torsions:
REMARK  status: ('A' for Active; 'I' for Inactive)
REMARK    1  A    between atoms: C_4  and  C_5
REMARK    2  A    between atoms: C_4  and  C_6
REMARK    3  A    between atoms: CA_7  and  C_27
REMARK    4  A    between atoms: CA_12  and  N_14
REMARK    5  A    between atoms: C_15  and  C_17
REMARK    6  A    between atoms: C_17  and  C_18
REMARK    7  A    between atoms: C_17  and  C_21
REMARK    8  A    between atoms: C_18  and  O_19
REMARK    9  A    between atoms: C_27  and  O_28
REMARK                            x       y       z     vdW  Elec       q    Type
REMARK                         _______ _______ _______ _____ _____    ______ ____
ROOT
ATOM      1  N   UNL     1       7.081  -2.866  23.064  0.00  0.00    -0.301 N 
ATOM      2  H   UNL     1       7.172  -2.840  24.076  0.00  0.00    +0.150 HD
ATOM      3  C   UNL     1       5.899  -3.309  22.509  0.00  0.00    +0.232 C 
ATOM      4  O   UNL     1       5.726  -3.301  21.291  0.00  0.00    -0.275 OA
ENDROOT
BRANCH   1   6
ATOM      5  C   UNL     1       7.994  -0.662  22.075  0.00  0.00    +0.165 C 
ATOM      6  CA  UNL     1       8.099  -2.204  22.201  0.00  0.00    +0.190 C 
ATOM      7  C   UNL     1       9.486  -1.916  22.817  0.00  0.00    +0.240 C 
ATOM      8  O   UNL     1      10.293  -2.509  23.493  0.00  0.00    -0.273 OA
ATOM      9  N   UNL     1       9.409  -0.579  22.499  0.00  0.00    -0.271 N 
ATOM     10  CA  UNL     1       9.728   0.432  23.524  0.00  0.00    +0.201 C 
ATOM     11  C   UNL     1       8.499   0.538  24.460  0.00  0.00    +0.042 C 
ATOM     12  C   UNL     1       8.498  -0.562  25.543  0.00  0.00    +0.025 C 
ATOM     13  C   UNL     1       8.329   1.873  25.192  0.00  0.00    +0.025 C 
ATOM     14  S   UNL     1       7.037   0.230  23.370  0.00  0.00    -0.127 S 
BRANCH  10  15
ATOM     15  C   UNL     1      10.132   1.729  22.798  0.00  0.00    +0.327 C 
ATOM     16  OXT UNL     1      10.795   2.629  23.291  0.00  0.00    -0.249 OA
BRANCH  15  17
ATOM     17  O   UNL     1       9.762   1.760  21.492  0.00  0.00    -0.479 OA
ATOM     18  H   UNL     1       8.786   1.779  21.413  0.00  0.00    +0.295 HD
ENDBRANCH  15  17
ENDBRANCH  10  15
ENDBRANCH   1   6
BRANCH   3  19
ATOM     19  C   UNL     1       4.881  -3.873  23.483  0.00  0.00    +0.213 C 
BRANCH  19  20
ATOM     20  C   UNL     1       5.459  -4.155  24.866  0.00  0.00    -0.025 A 
ATOM     21  C   UNL     1       6.090  -5.370  25.183  0.00  0.00    +0.005 A 
ATOM     22  C   UNL     1       6.564  -5.612  26.475  0.00  0.00    +0.000 A 
ATOM     23  C   UNL     1       6.414  -4.647  27.465  0.00  0.00    +0.000 A 
ATOM     24  C   UNL     1       5.794  -3.436  27.168  0.00  0.00    +0.000 A 
ATOM     25  C   UNL     1       5.317  -3.190  25.879  0.00  0.00    +0.005 A 
ENDBRANCH  19  20
BRANCH  19  26
ATOM     26  C   UNL     1       4.178  -5.071  22.869  0.00  0.00    +0.321 C 
ATOM     27  O   UNL     1       2.980  -5.282  23.024  0.00  0.00    -0.250 OA
BRANCH  26  28
ATOM     28  O   UNL     1       4.943  -5.892  22.114  0.00  0.00    -0.480 OA
ATOM     29  H   UNL     1       4.444  -6.578  21.629  0.00  0.00    +0.295 HD
ENDBRANCH  26  28
ENDBRANCH  19  26
ENDBRANCH   3  19
TORSDOF 7
ENDMDL
MODEL 9
REMARK VINA RESULT:      -6.7      2.362      6.703
REMARK  Name = 
REMARK  9 active torsions:
REMARK  status: ('A' for Active; 'I' for Inactive)
REMARK    1  A    between atoms: C_4  and  C_5
REMARK    2  A    between atoms: C_4  and  C_6
REMARK    3  A    between atoms: CA_7  and  C_27
REMARK    4  A    between atoms: CA_12  and  N_14
REMARK    5  A    between atoms: C_15  and  C_17
REMARK    6  A    between atoms: C_17  and  C_18
REMARK    7  A    between atoms: C_17  and  C_21
REMARK    8  A    between atoms: C_18  and  O_19
REMARK    9  A    between atoms: C_27  and  O_28
REMARK                            x       y       z     vdW  Elec       q    Type
REMARK                         _______ _______ _______ _____ _____    ______ ____
ROOT
ATOM      1  N   UNL     1       8.100  -3.137  23.779  0.00  0.00    -0.301 N 
ATOM      2  H   UNL     1       7.325  -2.481  23.739  0.00  0.00    +0.150 HD
ATOM      3  C   UNL     1       9.383  -2.650  23.924  0.00  0.00    +0.232 C 
ATOM      4  O   UNL     1      10.343  -3.410  24.035  0.00  0.00    -0.275 OA
ENDROOT
BRANCH   1   6
ATOM      5  C   UNL     1       7.506  -5.082  25.370  0.00  0.00    +0.165 C 
ATOM      6  CA  UNL     1       7.843  -4.596  23.937  0.00  0.00    +0.190 C 
ATOM      7  C   UNL     1       6.434  -5.120  23.582  0.00  0.00    +0.240 C 
ATOM      8  O   UNL     1       5.635  -4.969  22.688  0.00  0.00    -0.273 OA
ATOM      9  N   UNL     1       6.279  -5.699  24.820  0.00  0.00    -0.271 N 
ATOM     10  CA  UNL     1       5.035  -5.473  25.579  0.00  0.00    +0.201 C 
ATOM     11  C   UNL     1       5.131  -4.059  26.203  0.00  0.00    +0.042 C 
ATOM     12  C   UNL     1       4.724  -2.956  25.204  0.00  0.00    +0.025 C 
ATOM     13  C   UNL     1       4.301  -3.830  27.470  0.00  0.00    +0.025 C 
ATOM     14  S   UNL     1       6.926  -3.820  26.578  0.00  0.00    -0.127 S 
BRANCH  10  15
ATOM     15  C   UNL     1       4.871  -6.636  26.575  0.00  0.00    +0.327 C 
ATOM     16  OXT UNL     1       5.696  -6.958  27.416  0.00  0.00    -0.249 OA
BRANCH  15  17
ATOM     17  O   UNL     1       3.657  -7.243  26.511  0.00  0.00    -0.479 OA
ATOM     18  H   UNL     1       3.524  -7.823  27.288  0.00  0.00    +0.295 HD
ENDBRANCH  15  17
ENDBRANCH  10  15
ENDBRANCH   1   6
BRANCH   3  19
ATOM     19  C   UNL     1       9.530  -1.141  23.851  0.00  0.00    +0.213 C 
BRANCH  19  20
ATOM     20  C   UNL     1       8.341  -0.388  24.440  0.00  0.00    -0.025 A 
ATOM     21  C   UNL     1       8.189  -0.188  25.823  0.00  0.00    +0.005 A 
ATOM     22  C   UNL     1       7.062   0.464  26.330  0.00  0.00    +0.000 A 
ATOM     23  C   UNL     1       6.073   0.922  25.465  0.00  0.00    +0.000 A 
ATOM     24  C   UNL     1       6.210   0.736  24.092  0.00  0.00    +0.000 A 
ATOM     25  C   UNL     1       7.334   0.084  23.580  0.00  0.00    +0.005 A 
ENDBRANCH  19  20
BRANCH  19  26
ATOM     26  C   UNL     1       9.868  -0.716  22.433  0.00  0.00    +0.321 C 
ATOM     27  O   UNL     1      10.187   0.434  22.149  0.00  0.00    -0.250 OA
BRANCH  26  28
ATOM     28  O   UNL     1       9.823  -1.684  21.491  0.00  0.00    -0.480 OA
ATOM     29  H   UNL     1       9.133  -2.360  21.637  0.00  0.00    +0.295 HD
ENDBRANCH  26  28
ENDBRANCH  19  26
ENDBRANCH   3  19
TORSDOF 7
ENDMDL
