MODEL 1
REMARK VINA RESULT:      -5.3      0.000      0.000
REMARK  Name = 
REMARK  5 active torsions:
REMARK  status: ('A' for Active; 'I' for Inactive)
REMARK    1  A    between atoms: N_1  and  CA_2
REMARK    2  A    between atoms: CA_2  and  C_4
REMARK    3  A    between atoms: CA_2  and  C_12
REMARK    4  A    between atoms: C_4  and  N_5
REMARK    5  A    between atoms: C_12  and  O_13
REMARK                            x       y       z     vdW  Elec       q    Type
REMARK                         _______ _______ _______ _____ _____    ______ ____
ROOT
ATOM      1  C   UNL     1       7.579  -5.224  23.357  0.00  0.00    +0.196 C 
ENDROOT
BRANCH   1   2
ATOM      2  N   UNL     1       7.868  -4.761  24.710  0.00  0.00    -0.149 N 
ATOM      3  C   UNL     1       9.124  -4.826  25.301  0.00  0.00    +0.361 A 
ATOM      4  O   UNL     1      10.196  -4.781  24.715  0.00  0.00    -0.244 OA
ATOM      5  N   UNL     1       8.972  -5.019  26.628  0.00  0.00    -0.240 N 
ATOM      6  H   UNL     1       9.727  -5.188  27.268  0.00  0.00    +0.177 HD
ATOM      7  C   UNL     1       7.712  -5.426  26.857  0.00  0.00    +0.441 A 
ATOM      8  O   UNL     1       7.293  -5.900  27.899  0.00  0.00    -0.221 OA
ATOM      9  O   UNL     1       6.985  -5.298  25.702  0.00  0.00    -0.316 OA
ENDBRANCH   1   2
BRANCH   1  10
ATOM     10  CA  UNL     1       6.079  -5.214  23.010  0.00  0.00    +0.184 C 
BRANCH  10  11
ATOM     11  N   UNL     1       5.360  -6.512  23.215  0.00  0.00    -0.317 NA
ATOM     12  H1  UNL     1       4.506  -6.517  22.631  0.00  0.00    +0.119 HD
ATOM     13  H2  UNL     1       5.916  -7.253  22.777  0.00  0.00    +0.119 HD
ENDBRANCH  10  11
BRANCH  10  14
ATOM     14  C   UNL     1       5.901  -4.774  21.551  0.00  0.00    +0.324 C 
ATOM     15  OXT UNL     1       6.045  -5.498  20.579  0.00  0.00    -0.249 OA
BRANCH  14  16
ATOM     16  O   UNL     1       5.563  -3.461  21.465  0.00  0.00    -0.479 OA
ATOM     17  H   UNL     1       4.801  -3.421  20.834  0.00  0.00    +0.295 HD
ENDBRANCH  14  16
ENDBRANCH  10  14
ENDBRANCH   1  10
TORSDOF 5
ENDMDL
MODEL 2
REMARK VINA RESULT:      -5.0      5.832      7.189
REMARK  Name = 
REMARK  5 active torsions:
REMARK  status: ('A' for Active; 'I' for Inactive)
REMARK    1  A    between atoms: N_1  and  CA_2
REMARK    2  A    between atoms: CA_2  and  C_4
REMARK    3  A    between atoms: CA_2  and  C_12
REMARK    4  A    between atoms: C_4  and  N_5
REMARK    5  A    between atoms: C_12  and  O_13
REMARK                            x       y       z     vdW  Elec       q    Type
REMARK                         _______ _______ _______ _____ _____    ______ ____
ROOT
ATOM      1  C   UNL     1      10.496  -0.037  23.442  0.00  0.00    +0.196 C 
ENDROOT
BRANCH   1   2
ATOM      2  N   UNL     1       9.968   0.996  22.558  0.00  0.00    -0.149 N 
ATOM      3  C   UNL     1      10.099   2.360  22.792  0.00  0.00    +0.361 A 
ATOM      4  O   UNL     1      11.012   2.898  23.400  0.00  0.00    -0.244 OA
ATOM      5  N   UNL     1       9.014   2.992  22.300  0.00  0.00    -0.240 N 
ATOM      6  H   UNL     1       8.824   3.971  22.419  0.00  0.00    +0.177 HD
ATOM      7  C   UNL     1       8.051   2.080  22.081  0.00  0.00    +0.441 A 
ATOM      8  O   UNL     1       6.879   2.320  21.852  0.00  0.00    -0.221 OA
ATOM      9  O   UNL     1       8.583   0.826  22.237  0.00  0.00    -0.316 OA
ENDBRANCH   1   2
BRANCH   1  10
ATOM     10  CA  UNL     1      10.460  -1.450  22.829  0.00  0.00    +0.184 C 
BRANCH  10  11
ATOM     11  N   UNL     1       9.976  -1.528  21.413  0.00  0.00    -0.317 NA
ATOM     12  H1  UNL     1       8.942  -1.497  21.412  0.00  0.00    +0.119 HD
ATOM     13  H2  UNL     1      10.210  -0.643  20.951  0.00  0.00    +0.119 HD
ENDBRANCH  10  11
BRANCH  10  14
ATOM     14  C   UNL     1       9.583  -2.357  23.703  0.00  0.00    +0.324 C 
ATOM     15  OXT UNL     1       9.919  -3.448  24.135  0.00  0.00    -0.249 OA
BRANCH  14  16
ATOM     16  O   UNL     1       8.369  -1.796  23.940  0.00  0.00    -0.479 OA
ATOM     17  H   UNL     1       8.375  -1.537  24.896  0.00  0.00    +0.295 HD
ENDBRANCH  14  16
ENDBRANCH  10  14
ENDBRANCH   1  10
TORSDOF 5
ENDMDL
MODEL 3
REMARK VINA RESULT:      -5.0      1.693      4.792
REMARK  Name = 
REMARK  5 active torsions:
REMARK  status: ('A' for Active; 'I' for Inactive)
REMARK    1  A    between atoms: N_1  and  CA_2
REMARK    2  A    between atoms: CA_2  and  C_4
REMARK    3  A    between atoms: CA_2  and  C_12
REMARK    4  A    between atoms: C_4  and  N_5
REMARK    5  A    between atoms: C_12  and  O_13
REMARK                            x       y       z     vdW  Elec       q    Type
REMARK                         _______ _______ _______ _____ _____    ______ ____
ROOT
ATOM      1  C   UNL     1       6.977  -4.247  25.234  0.00  0.00    +0.196 C 
ENDROOT
BRANCH   1   2
ATOM      2  N   UNL     1       6.078  -4.690  24.174  0.00  0.00    -0.149 N 
ATOM      3  C   UNL     1       5.400  -5.903  24.186  0.00  0.00    +0.361 A 
ATOM      4  O   UNL     1       5.040  -6.512  25.183  0.00  0.00    -0.244 OA
ATOM      5  N   UNL     1       5.264  -6.339  22.917  0.00  0.00    -0.240 N 
ATOM      6  H   UNL     1       4.887  -7.233  22.661  0.00  0.00    +0.177 HD
ATOM      7  C   UNL     1       6.115  -5.652  22.136  0.00  0.00    +0.441 A 
ATOM      8  O   UNL     1       6.416  -5.932  20.989  0.00  0.00    -0.221 OA
ATOM      9  O   UNL     1       6.657  -4.624  22.865  0.00  0.00    -0.316 OA
ENDBRANCH   1   2
BRANCH   1  10
ATOM     10  CA  UNL     1       8.052  -5.287  25.605  0.00  0.00    +0.184 C 
BRANCH  10  11
ATOM     11  N   UNL     1       8.185  -5.584  27.067  0.00  0.00    -0.317 NA
ATOM     12  H1  UNL     1       7.326  -6.063  27.389  0.00  0.00    +0.119 HD
ATOM     13  H2  UNL     1       8.888  -6.323  27.176  0.00  0.00    +0.119 HD
ENDBRANCH  10  11
BRANCH  10  14
ATOM     14  C   UNL     1       9.412  -4.821  25.067  0.00  0.00    +0.324 C 
ATOM     15  OXT UNL     1       9.583  -3.856  24.340  0.00  0.00    -0.249 OA
BRANCH  14  16
ATOM     16  O   UNL     1      10.418  -5.624  25.500  0.00  0.00    -0.479 OA
ATOM     17  H   UNL     1      10.662  -5.288  26.400  0.00  0.00    +0.295 HD
ENDBRANCH  14  16
ENDBRANCH  10  14
ENDBRANCH   1  10
TORSDOF 5
ENDMDL
MODEL 4
REMARK VINA RESULT:      -4.9      2.224      4.756
REMARK  Name = 
REMARK  5 active torsions:
REMARK  status: ('A' for Active; 'I' for Inactive)
REMARK    1  A    between atoms: N_1  and  CA_2
REMARK    2  A    between atoms: CA_2  and  C_4
REMARK    3  A    between atoms: CA_2  and  C_12
REMARK    4  A    between atoms: C_4  and  N_5
REMARK    5  A    between atoms: C_12  and  O_13
REMARK                            x       y       z     vdW  Elec       q    Type
REMARK                         _______ _______ _______ _____ _____    ______ ____
ROOT
ATOM      1  C   UNL     1       8.845  -3.416  25.653  0.00  0.00    +0.196 C 
ENDROOT
BRANCH   1   2
ATOM      2  N   UNL     1       8.901  -3.345  24.197  0.00  0.00    -0.149 N 
ATOM      3  C   UNL     1       9.174  -2.183  23.486  0.00  0.00    +0.361 A 
ATOM      4  O   UNL     1       9.858  -1.248  23.876  0.00  0.00    -0.244 OA
ATOM      5  N   UNL     1       8.502  -2.219  22.317  0.00  0.00    -0.240 N 
ATOM      6  H   UNL     1       8.460  -1.460  21.662  0.00  0.00    +0.177 HD
ATOM      7  C   UNL     1       7.554  -3.168  22.400  0.00  0.00    +0.441 A 
ATOM      8  O   UNL     1       6.629  -3.323  21.622  0.00  0.00    -0.221 OA
ATOM      9  O   UNL     1       7.746  -3.890  23.550  0.00  0.00    -0.316 OA
ENDBRANCH   1   2
BRANCH   1  10
ATOM     10  CA  UNL     1       9.082  -4.832  26.211  0.00  0.00    +0.184 C 
BRANCH  10  11
ATOM     11  N   UNL     1       9.724  -5.800  25.264  0.00  0.00    -0.317 NA
ATOM     12  H1  UNL     1       9.714  -5.392  24.313  0.00  0.00    +0.119 HD
ATOM     13  H2  UNL     1      10.727  -5.825  25.470  0.00  0.00    +0.119 HD
ENDBRANCH  10  11
BRANCH  10  14
ATOM     14  C   UNL     1       7.747  -5.417  26.689  0.00  0.00    +0.324 C 
ATOM     15  OXT UNL     1       7.509  -5.775  27.831  0.00  0.00    -0.249 OA
BRANCH  14  16
ATOM     16  O   UNL     1       6.847  -5.495  25.675  0.00  0.00    -0.479 OA
ATOM     17  H   UNL     1       6.951  -4.656  25.159  0.00  0.00    +0.295 HD
ENDBRANCH  14  16
ENDBRANCH  10  14
ENDBRANCH   1  10
TORSDOF 5
ENDMDL
MODEL 5
REMARK VINA RESULT:      -4.9      3.421      4.983
REMARK  Name = 
REMARK  5 active torsions:
REMARK  status: ('A' for Active; 'I' for Inactive)
REMARK    1  A    between atoms: N_1  and  CA_2
REMARK    2  A    between atoms: CA_2  and  C_4
REMARK    3  A    between atoms: CA_2  and  C_12
REMARK    4  A    between atoms: C_4  and  N_5
REMARK    5  A    between atoms: C_12  and  O_13
REMARK                            x       y       z     vdW  Elec       q    Type
REMARK                         _______ _______ _______ _____ _____    ______ ____
ROOT
ATOM      1  C   UNL     1       9.599  -2.560  23.603  0.00  0.00    +0.196 C 
ENDROOT
BRANCH   1   2
ATOM      2  N   UNL     1       8.286  -3.194  23.592  0.00  0.00    -0.149 N 
ATOM      3  C   UNL     1       8.086  -4.568  23.664  0.00  0.00    +0.361 A 
ATOM      4  O   UNL     1       8.822  -5.371  24.218  0.00  0.00    -0.244 OA
ATOM      5  N   UNL     1       6.980  -4.884  22.960  0.00  0.00    -0.240 N 
ATOM      6  H   UNL     1       6.668  -5.822  22.782  0.00  0.00    +0.177 HD
ATOM      7  C   UNL     1       6.669  -3.847  22.164  0.00  0.00    +0.441 A 
ATOM      8  O   UNL     1       5.872  -3.867  21.242  0.00  0.00    -0.221 OA
ATOM      9  O   UNL     1       7.454  -2.775  22.504  0.00  0.00    -0.316 OA
ENDBRANCH   1   2
BRANCH   1  10
ATOM     10  CA  UNL     1       9.540  -1.021  23.616  0.00  0.00    +0.184 C 
BRANCH  10  11
ATOM     11  N   UNL     1       8.227  -0.428  24.026  0.00  0.00    -0.317 NA
ATOM     12  H1  UNL     1       7.826   0.083  23.221  0.00  0.00    +0.119 HD
ATOM     13  H2  UNL     1       7.557  -1.195  24.140  0.00  0.00    +0.119 HD
ENDBRANCH  10  11
BRANCH  10  14
ATOM     14  C   UNL     1       9.912  -0.490  22.225  0.00  0.00    +0.324 C 
ATOM     15  OXT UNL     1      10.058   0.689  21.943  0.00  0.00    -0.249 OA
BRANCH  14  16
ATOM     16  O   UNL     1      10.057  -1.500  21.329  0.00  0.00    -0.479 OA
ATOM     17  H   UNL     1      10.991  -1.440  21.006  0.00  0.00    +0.295 HD
ENDBRANCH  14  16
ENDBRANCH  10  14
ENDBRANCH   1  10
TORSDOF 5
ENDMDL
MODEL 6
REMARK VINA RESULT:      -4.9      3.242      5.311
REMARK  Name = 
REMARK  5 active torsions:
REMARK  status: ('A' for Active; 'I' for Inactive)
REMARK    1  A    between atoms: N_1  and  CA_2
REMARK    2  A    between atoms: CA_2  and  C_4
REMARK    3  A    between atoms: CA_2  and  C_12
REMARK    4  A    between atoms: C_4  and  N_5
REMARK    5  A    between atoms: C_12  and  O_13
REMARK                            x       y       z     vdW  Elec       q    Type
REMARK                         _______ _______ _______ _____ _____    ______ ____
ROOT
ATOM      1  C   UNL     1       8.800  -3.653  24.346  0.00  0.00    +0.196 C 
ENDROOT
BRANCH   1   2
ATOM      2  N   UNL     1       9.645  -2.482  24.143  0.00  0.00    -0.149 N 
ATOM      3  C   UNL     1       9.457  -1.266  24.788  0.00  0.00    +0.361 A 
ATOM      4  O   UNL     1       8.961  -1.112  25.895  0.00  0.00    -0.244 OA
ATOM      5  N   UNL     1       9.845  -0.271  23.965  0.00  0.00    -0.240 N 
ATOM      6  H   UNL     1       9.728   0.707  24.160  0.00  0.00    +0.177 HD
ATOM      7  C   UNL     1       9.940  -0.762  22.717  0.00  0.00    +0.441 A 
ATOM      8  O   UNL     1      10.048  -0.104  21.697  0.00  0.00    -0.221 OA
ATOM      9  O   UNL     1       9.813  -2.127  22.765  0.00  0.00    -0.316 OA
ENDBRANCH   1   2
BRANCH   1  10
ATOM     10  CA  UNL     1       9.192  -4.491  25.578  0.00  0.00    +0.184 C 
BRANCH  10  11
ATOM     11  N   UNL     1      10.320  -5.455  25.370  0.00  0.00    -0.317 NA
ATOM     12  H1  UNL     1      10.556  -5.480  24.363  0.00  0.00    +0.119 HD
ATOM     13  H2  UNL     1      11.167  -5.041  25.772  0.00  0.00    +0.119 HD
ENDBRANCH  10  11
BRANCH  10  14
ATOM     14  C   UNL     1       7.964  -5.264  26.075  0.00  0.00    +0.324 C 
ATOM     15  OXT UNL     1       6.922  -5.398  25.453  0.00  0.00    -0.249 OA
BRANCH  14  16
ATOM     16  O   UNL     1       8.173  -5.787  27.311  0.00  0.00    -0.479 OA
ATOM     17  H   UNL     1       7.292  -6.130  27.610  0.00  0.00    +0.295 HD
ENDBRANCH  14  16
ENDBRANCH  10  14
ENDBRANCH   1  10
TORSDOF 5
ENDMDL
MODEL 7
REMARK VINA RESULT:      -4.9      4.281      5.661
REMARK  Name = 
REMARK  5 active torsions:
REMARK  status: ('A' for Active; 'I' for Inactive)
REMARK    1  A    between atoms: N_1  and  CA_2
REMARK    2  A    between atoms: CA_2  and  C_4
REMARK    3  A    between atoms: CA_2  and  C_12
REMARK    4  A    between atoms: C_4  and  N_5
REMARK    5  A    between atoms: C_12  and  O_13
REMARK                            x       y       z     vdW  Elec       q    Type
REMARK                         _______ _______ _______ _____ _____    ______ ____
ROOT
ATOM      1  C   UNL     1       8.908  -0.866  23.617  0.00  0.00    +0.196 C 
ENDROOT
BRANCH   1   2
ATOM      2  N   UNL     1       7.937  -1.953  23.640  0.00  0.00    -0.149 N 
ATOM      3  C   UNL     1       8.278  -3.300  23.590  0.00  0.00    +0.361 A 
ATOM      4  O   UNL     1       9.316  -3.792  24.007  0.00  0.00    -0.244 OA
ATOM      5  N   UNL     1       7.304  -3.972  22.941  0.00  0.00    -0.240 N 
ATOM      6  H   UNL     1       7.352  -4.944  22.695  0.00  0.00    +0.177 HD
ATOM      7  C   UNL     1       6.544  -3.084  22.277  0.00  0.00    +0.441 A 
ATOM      8  O   UNL     1       5.721  -3.351  21.419  0.00  0.00    -0.221 OA
ATOM      9  O   UNL     1       6.899  -1.817  22.663  0.00  0.00    -0.316 OA
ENDBRANCH   1   2
BRANCH   1  10
ATOM     10  CA  UNL     1       8.984  -0.135  22.263  0.00  0.00    +0.184 C 
BRANCH  10  11
ATOM     11  N   UNL     1       9.544  -0.936  21.128  0.00  0.00    -0.317 NA
ATOM     12  H1  UNL     1      10.022  -1.769  21.512  0.00  0.00    +0.119 HD
ATOM     13  H2  UNL     1       8.760  -1.360  20.623  0.00  0.00    +0.119 HD
ENDBRANCH  10  11
BRANCH  10  14
ATOM     14  C   UNL     1       9.815   1.145  22.425  0.00  0.00    +0.324 C 
ATOM     15  OXT UNL     1      10.513   1.408  23.391  0.00  0.00    -0.249 OA
BRANCH  14  16
ATOM     16  O   UNL     1       9.677   1.966  21.352  0.00  0.00    -0.479 OA
ATOM     17  H   UNL     1       8.718   2.211  21.323  0.00  0.00    +0.295 HD
ENDBRANCH  14  16
ENDBRANCH  10  14
ENDBRANCH   1  10
TORSDOF 5
ENDMDL
MODEL 8
REMARK VINA RESULT:      -4.9      2.454      5.214
REMARK  Name = 
REMARK  5 active torsions:
REMARK  status: ('A' for Active; 'I' for Inactive)
REMARK    1  A    between atoms: N_1  and  CA_2
REMARK    2  A    between atoms: CA_2  and  C_4
REMARK    3  A    between atoms: CA_2  and  C_12
REMARK    4  A    between atoms: C_4  and  N_5
REMARK    5  A    between atoms: C_12  and  O_13
REMARK                            x       y       z     vdW  Elec       q    Type
REMARK                         _______ _______ _______ _____ _____    ______ ____
ROOT
ATOM      1  C   UNL     1       8.193  -4.566  24.245  0.00  0.00    +0.196 C 
ENDROOT
BRANCH   1   2
ATOM      2  N   UNL     1       8.270  -3.206  23.724  0.00  0.00    -0.149 N 
ATOM      3  C   UNL     1       7.772  -2.820  22.486  0.00  0.00    +0.361 A 
ATOM      4  O   UNL     1       6.827  -3.330  21.902  0.00  0.00    -0.244 OA
ATOM      5  N   UNL     1       8.547  -1.830  21.995  0.00  0.00    -0.240 N 
ATOM      6  H   UNL     1       8.452  -1.438  21.076  0.00  0.00    +0.177 HD
ATOM      7  C   UNL     1       9.700  -1.809  22.685  0.00  0.00    +0.441 A 
ATOM      8  O   UNL     1      10.708  -1.200  22.372  0.00  0.00    -0.221 OA
ATOM      9  O   UNL     1       9.590  -2.651  23.762  0.00  0.00    -0.316 OA
ENDBRANCH   1   2
BRANCH   1  10
ATOM     10  CA  UNL     1       8.948  -4.762  25.574  0.00  0.00    +0.184 C 
BRANCH  10  11
ATOM     11  N   UNL     1       9.862  -5.948  25.628  0.00  0.00    -0.317 NA
ATOM     12  H1  UNL     1       9.796  -6.376  26.568  0.00  0.00    +0.119 HD
ATOM     13  H2  UNL     1       9.460  -6.683  25.037  0.00  0.00    +0.119 HD
ENDBRANCH  10  11
BRANCH  10  14
ATOM     14  C   UNL     1       7.935  -4.863  26.721  0.00  0.00    +0.324 C 
ATOM     15  OXT UNL     1       7.180  -3.969  27.069  0.00  0.00    -0.249 OA
BRANCH  14  16
ATOM     16  O   UNL     1       7.980  -6.082  27.318  0.00  0.00    -0.479 OA
ATOM     17  H   UNL     1       7.848  -6.742  26.590  0.00  0.00    +0.295 HD
ENDBRANCH  14  16
ENDBRANCH  10  14
ENDBRANCH   1  10
TORSDOF 5
ENDMDL
MODEL 9
REMARK VINA RESULT:      -4.8      4.211      5.054
REMARK  Name = 
REMARK  5 active torsions:
REMARK  status: ('A' for Active; 'I' for Inactive)
REMARK    1  A    between atoms: N_1  and  CA_2
REMARK    2  A    between atoms: CA_2  and  C_4
REMARK    3  A    between atoms: CA_2  and  C_12
REMARK    4  A    between atoms: C_4  and  N_5
REMARK    5  A    between atoms: C_12  and  O_13
REMARK                            x       y       z     vdW  Elec       q    Type
REMARK                         _______ _______ _______ _____ _____    ______ ____
ROOT
ATOM      1  C   UNL     1       9.586  -0.875  23.894  0.00  0.00    +0.196 C 
ENDROOT
BRANCH   1   2
ATOM      2  N   UNL     1       8.938  -2.080  24.398  0.00  0.00    -0.149 N 
ATOM      3  C   UNL     1       8.664  -2.310  25.741  0.00  0.00    +0.361 A 
ATOM      4  O   UNL     1       8.443  -1.453  26.585  0.00  0.00    -0.244 OA
ATOM      5  N   UNL     1       8.751  -3.634  25.983  0.00  0.00    -0.240 N 
ATOM      6  H   UNL     1       8.685  -4.051  26.894  0.00  0.00    +0.177 HD
ATOM      7  C   UNL     1       9.402  -4.213  24.959  0.00  0.00    +0.441 A 
ATOM      8  O   UNL     1       9.849  -5.346  24.946  0.00  0.00    -0.221 OA
ATOM      9  O   UNL     1       9.554  -3.294  23.952  0.00  0.00    -0.316 OA
ENDBRANCH   1   2
BRANCH   1  10
ATOM     10  CA  UNL     1       9.300  -0.598  22.405  0.00  0.00    +0.184 C 
BRANCH  10  11
ATOM     11  N   UNL     1      10.031  -1.475  21.434  0.00  0.00    -0.317 NA
ATOM     12  H1  UNL     1       9.837  -2.464  21.667  0.00  0.00    +0.119 HD
ATOM     13  H2  UNL     1       9.575  -1.383  20.521  0.00  0.00    +0.119 HD
ENDBRANCH  10  11
BRANCH  10  14
ATOM     14  C   UNL     1       9.626   0.868  22.092  0.00  0.00    +0.324 C 
ATOM     15  OXT UNL     1      10.360   1.579  22.759  0.00  0.00    -0.249 OA
BRANCH  14  16
ATOM     16  O   UNL     1       8.989   1.290  20.969  0.00  0.00    -0.479 OA
ATOM     17  H   UNL     1       9.696   1.395  20.283  0.00  0.00    +0.295 HD
ENDBRANCH  14  16
ENDBRANCH  10  14
ENDBRANCH   1  10
TORSDOF 5
ENDMDL
