MODEL 1
REMARK VINA RESULT:      -6.3      0.000      0.000
REMARK  Name = 
REMARK  14 active torsions:
REMARK  status: ('A' for Active; 'I' for Inactive)
REMARK    1  A    between atoms: C_1  and  C_2
REMARK    2  A    between atoms: C_2  and  O_3
REMARK    3  A    between atoms: O_3  and  C_4
REMARK    4  A    between atoms: C_7  and  O_8
REMARK    5  A    between atoms: O_8  and  C_9
REMARK    6  A    between atoms: C_9  and  C_10
REMARK    7  A    between atoms: C_11  and  N_12
REMARK    8  A    between atoms: C_13  and  C_15
REMARK    9  A    between atoms: C_17  and  C_18
REMARK   10  A    between atoms: C_19  and  O_20
REMARK   11  A    between atoms: O_20  and  C_21
REMARK   12  A    between atoms: C_21  and  C_22
REMARK   13  A    between atoms: C_22  and  N_23
REMARK   14  A    between atoms: C_24  and  C_25
REMARK                            x       y       z     vdW  Elec       q    Type
REMARK                         _______ _______ _______ _____ _____    ______ ____
ROOT
ATOM      1  N   UNL     1       8.764   0.904  24.131  0.00  0.00    -0.278 N 
ATOM      2  H   UNL     1       8.393   0.667  25.039  0.00  0.00    +0.155 HD
ATOM      3  C   UNL     1       8.486   0.099  23.043  0.00  0.00    +0.248 C 
ATOM      4  O   UNL     1       8.530   0.469  21.873  0.00  0.00    -0.270 OA
ENDROOT
BRANCH   3   5
ATOM      5  C   UNL     1       8.075  -1.310  23.332  0.00  0.00    +0.038 A 
ATOM      6  C   UNL     1       9.000  -2.158  23.935  0.00  0.00    +0.020 A 
ATOM      7  C   UNL     1       8.662  -3.482  24.292  0.00  0.00    -0.008 A 
ATOM      8  C   UNL     1       9.763  -4.255  24.974  0.00  0.00    +0.047 C 
ATOM      9  C   UNL     1       7.361  -3.992  24.023  0.00  0.00    +0.126 A 
ATOM     10  C   UNL     1       6.426  -3.139  23.374  0.00  0.00    -0.008 A 
ATOM     11  C   UNL     1       4.996  -3.459  22.987  0.00  0.00    +0.047 C 
ATOM     12  C   UNL     1       6.811  -1.815  23.042  0.00  0.00    +0.020 A 
BRANCH   9  13
ATOM     13  O   UNL     1       7.159  -5.298  24.444  0.00  0.00    -0.490 OA
BRANCH  13  14
ATOM     14  C   UNL     1       6.257  -5.506  25.531  0.00  0.00    +0.244 C 
BRANCH  14  15
ATOM     15  C   UNL     1       6.733  -5.019  26.905  0.00  0.00    +0.119 C 
BRANCH  15  16
ATOM     16  N   UNL     1       7.745  -5.884  27.507  0.00  0.00    -0.327 NA
ATOM     17  H   UNL     1       7.952  -5.557  28.450  0.00  0.00    +0.118 HD
ATOM     18  H   UNL     1       7.359  -6.825  27.594  0.00  0.00    +0.118 HD
ENDBRANCH  15  16
ENDBRANCH  14  15
ENDBRANCH  13  14
ENDBRANCH   9  13
ENDBRANCH   3   5
BRANCH   1  21
ATOM     19  C   UNL     1      10.895   3.923  23.612  0.00  0.00    +0.122 A 
ATOM     20  C   UNL     1      10.489   2.585  23.659  0.00  0.00    +0.072 A 
ATOM     21  C   UNL     1       9.180   2.248  24.025  0.00  0.00    +0.079 A 
ATOM     22  C   UNL     1       8.255   3.255  24.340  0.00  0.00    +0.142 A 
ATOM     23  C   UNL     1       8.647   4.590  24.230  0.00  0.00    +0.051 A 
ATOM     24  C   UNL     1       9.957   4.923  23.876  0.00  0.00    +0.049 A 
BRANCH  19  25
ATOM     25  O   UNL     1      12.219   4.130  23.335  0.00  0.00    -0.492 OA
BRANCH  25  27
ATOM     26  C   UNL     1      13.417   5.714  21.995  0.00  0.00    +0.048 C 
ATOM     27  C   UNL     1      12.650   5.491  23.284  0.00  0.00    +0.225 C 
ENDBRANCH  25  27
ENDBRANCH  19  25
BRANCH  22  28
ATOM     28  O   UNL     1       6.984   2.843  24.689  0.00  0.00    -0.490 OA
BRANCH  28  29
ATOM     29  C   UNL     1       5.916   3.415  23.930  0.00  0.00    +0.226 C 
ATOM     30  C   UNL     1       5.769   2.661  22.620  0.00  0.00    +0.048 C 
ENDBRANCH  28  29
ENDBRANCH  22  28
ENDBRANCH   1  21
TORSDOF 10
ENDMDL
MODEL 2
REMARK VINA RESULT:      -6.2      1.743      1.991
REMARK  Name = 
REMARK  14 active torsions:
REMARK  status: ('A' for Active; 'I' for Inactive)
REMARK    1  A    between atoms: C_1  and  C_2
REMARK    2  A    between atoms: C_2  and  O_3
REMARK    3  A    between atoms: O_3  and  C_4
REMARK    4  A    between atoms: C_7  and  O_8
REMARK    5  A    between atoms: O_8  and  C_9
REMARK    6  A    between atoms: C_9  and  C_10
REMARK    7  A    between atoms: C_11  and  N_12
REMARK    8  A    between atoms: C_13  and  C_15
REMARK    9  A    between atoms: C_17  and  C_18
REMARK   10  A    between atoms: C_19  and  O_20
REMARK   11  A    between atoms: O_20  and  C_21
REMARK   12  A    between atoms: C_21  and  C_22
REMARK   13  A    between atoms: C_22  and  N_23
REMARK   14  A    between atoms: C_24  and  C_25
REMARK                            x       y       z     vdW  Elec       q    Type
REMARK                         _______ _______ _______ _____ _____    ______ ____
ROOT
ATOM      1  N   UNL     1       8.861   1.075  23.541  0.00  0.00    -0.278 N 
ATOM      2  H   UNL     1       8.420   0.893  22.652  0.00  0.00    +0.155 HD
ATOM      3  C   UNL     1       9.315   0.023  24.313  0.00  0.00    +0.248 C 
ATOM      4  O   UNL     1      10.185   0.115  25.175  0.00  0.00    -0.270 OA
ENDROOT
BRANCH   3   5
ATOM      5  C   UNL     1       8.713  -1.321  24.045  0.00  0.00    +0.038 A 
ATOM      6  C   UNL     1       9.337  -2.443  24.582  0.00  0.00    +0.020 A 
ATOM      7  C   UNL     1       8.792  -3.736  24.421  0.00  0.00    -0.008 A 
ATOM      8  C   UNL     1       9.566  -4.839  25.099  0.00  0.00    +0.047 C 
ATOM      9  C   UNL     1       7.591  -3.926  23.682  0.00  0.00    +0.126 A 
ATOM     10  C   UNL     1       6.971  -2.785  23.102  0.00  0.00    -0.008 A 
ATOM     11  C   UNL     1       5.700  -2.741  22.279  0.00  0.00    +0.047 C 
ATOM     12  C   UNL     1       7.553  -1.507  23.298  0.00  0.00    +0.020 A 
BRANCH   9  13
ATOM     13  O   UNL     1       7.157  -5.242  23.620  0.00  0.00    -0.490 OA
BRANCH  13  14
ATOM     14  C   UNL     1       7.479  -5.986  22.444  0.00  0.00    +0.244 C 
BRANCH  14  15
ATOM     15  C   UNL     1       6.451  -5.928  21.307  0.00  0.00    +0.119 C 
BRANCH  15  16
ATOM     16  N   UNL     1       5.091  -6.239  21.740  0.00  0.00    -0.327 NA
ATOM     17  H   UNL     1       4.584  -5.371  21.912  0.00  0.00    +0.118 HD
ATOM     18  H   UNL     1       4.609  -6.722  20.981  0.00  0.00    +0.118 HD
ENDBRANCH  15  16
ENDBRANCH  14  15
ENDBRANCH  13  14
ENDBRANCH   9  13
ENDBRANCH   3   5
BRANCH   1  21
ATOM     19  C   UNL     1      11.075   4.078  23.564  0.00  0.00    +0.122 A 
ATOM     20  C   UNL     1      10.630   2.768  23.365  0.00  0.00    +0.072 A 
ATOM     21  C   UNL     1       9.316   2.403  23.683  0.00  0.00    +0.079 A 
ATOM     22  C   UNL     1       8.425   3.358  24.199  0.00  0.00    +0.142 A 
ATOM     23  C   UNL     1       8.856   4.678  24.336  0.00  0.00    +0.051 A 
ATOM     24  C   UNL     1      10.170   5.036  24.028  0.00  0.00    +0.049 A 
BRANCH  19  25
ATOM     25  O   UNL     1      12.401   4.298  23.308  0.00  0.00    -0.492 OA
BRANCH  25  27
ATOM     26  C   UNL     1      13.520   5.863  21.881  0.00  0.00    +0.048 C 
ATOM     27  C   UNL     1      12.808   5.663  23.205  0.00  0.00    +0.225 C 
ENDBRANCH  25  27
ENDBRANCH  19  25
BRANCH  22  28
ATOM     28  O   UNL     1       7.146   2.922  24.485  0.00  0.00    -0.490 OA
BRANCH  28  29
ATOM     29  C   UNL     1       6.088   3.637  23.842  0.00  0.00    +0.226 C 
ATOM     30  C   UNL     1       5.881   3.080  22.445  0.00  0.00    +0.048 C 
ENDBRANCH  28  29
ENDBRANCH  22  28
ENDBRANCH   1  21
TORSDOF 10
ENDMDL
MODEL 3
REMARK VINA RESULT:      -6.1      1.212      2.006
REMARK  Name = 
REMARK  14 active torsions:
REMARK  status: ('A' for Active; 'I' for Inactive)
REMARK    1  A    between atoms: C_1  and  C_2
REMARK    2  A    between atoms: C_2  and  O_3
REMARK    3  A    between atoms: O_3  and  C_4
REMARK    4  A    between atoms: C_7  and  O_8
REMARK    5  A    between atoms: O_8  and  C_9
REMARK    6  A    between atoms: C_9  and  C_10
REMARK    7  A    between atoms: C_11  and  N_12
REMARK    8  A    between atoms: C_13  and  C_15
REMARK    9  A    between atoms: C_17  and  C_18
REMARK   10  A    between atoms: C_19  and  O_20
REMARK   11  A    between atoms: O_20  and  C_21
REMARK   12  A    between atoms: C_21  and  C_22
REMARK   13  A    between atoms: C_22  and  N_23
REMARK   14  A    between atoms: C_24  and  C_25
REMARK                            x       y       z     vdW  Elec       q    Type
REMARK                         _______ _______ _______ _____ _____    ______ ____
ROOT
ATOM      1  N   UNL     1       8.809   0.942  24.226  0.00  0.00    -0.278 N 
ATOM      2  H   UNL     1       8.431   0.729  25.137  0.00  0.00    +0.155 HD
ATOM      3  C   UNL     1       8.535   0.111  23.156  0.00  0.00    +0.248 C 
ATOM      4  O   UNL     1       8.589   0.452  21.977  0.00  0.00    -0.270 OA
ENDROOT
BRANCH   3   5
ATOM      5  C   UNL     1       8.115  -1.289  23.477  0.00  0.00    +0.038 A 
ATOM      6  C   UNL     1       7.298  -1.958  22.570  0.00  0.00    +0.020 A 
ATOM      7  C   UNL     1       6.912  -3.300  22.778  0.00  0.00    -0.008 A 
ATOM      8  C   UNL     1       6.061  -3.892  21.682  0.00  0.00    +0.047 C 
ATOM      9  C   UNL     1       7.337  -4.001  23.942  0.00  0.00    +0.126 A 
ATOM     10  C   UNL     1       8.142  -3.308  24.887  0.00  0.00    -0.008 A 
ATOM     11  C   UNL     1       8.707  -3.841  26.188  0.00  0.00    +0.047 C 
ATOM     12  C   UNL     1       8.509  -1.963  24.629  0.00  0.00    +0.020 A 
BRANCH   9  13
ATOM     13  O   UNL     1       6.903  -5.317  24.009  0.00  0.00    -0.490 OA
BRANCH  13  14
ATOM     14  C   UNL     1       5.864  -5.619  24.940  0.00  0.00    +0.244 C 
BRANCH  14  15
ATOM     15  C   UNL     1       4.513  -6.024  24.337  0.00  0.00    +0.119 C 
BRANCH  15  16
ATOM     16  N   UNL     1       4.408  -7.455  24.062  0.00  0.00    -0.327 NA
ATOM     17  H   UNL     1       3.936  -7.594  23.170  0.00  0.00    +0.118 HD
ATOM     18  H   UNL     1       5.349  -7.838  23.965  0.00  0.00    +0.118 HD
ENDBRANCH  15  16
ENDBRANCH  14  15
ENDBRANCH  13  14
ENDBRANCH   9  13
ENDBRANCH   3   5
BRANCH   1  21
ATOM     19  C   UNL     1      10.956   3.936  23.636  0.00  0.00    +0.122 A 
ATOM     20  C   UNL     1      10.543   2.602  23.713  0.00  0.00    +0.072 A 
ATOM     21  C   UNL     1       9.233   2.280  24.089  0.00  0.00    +0.079 A 
ATOM     22  C   UNL     1       8.314   3.300  24.384  0.00  0.00    +0.142 A 
ATOM     23  C   UNL     1       8.714   4.630  24.244  0.00  0.00    +0.051 A 
ATOM     24  C   UNL     1      10.024   4.947  23.879  0.00  0.00    +0.049 A 
BRANCH  19  25
ATOM     25  O   UNL     1      12.281   4.129  23.351  0.00  0.00    -0.492 OA
BRANCH  25  27
ATOM     26  C   UNL     1      13.382   5.675  21.889  0.00  0.00    +0.048 C 
ATOM     27  C   UNL     1      12.713   5.486  23.237  0.00  0.00    +0.225 C 
ENDBRANCH  25  27
ENDBRANCH  19  25
BRANCH  22  28
ATOM     28  O   UNL     1       7.042   2.903  24.744  0.00  0.00    -0.490 OA
BRANCH  28  29
ATOM     29  C   UNL     1       5.975   3.468  23.977  0.00  0.00    +0.226 C 
ATOM     30  C   UNL     1       5.821   2.691  22.681  0.00  0.00    +0.048 C 
ENDBRANCH  28  29
ENDBRANCH  22  28
ENDBRANCH   1  21
TORSDOF 10
ENDMDL
MODEL 4
REMARK VINA RESULT:      -6.0      2.390      8.982
REMARK  Name = 
REMARK  14 active torsions:
REMARK  status: ('A' for Active; 'I' for Inactive)
REMARK    1  A    between atoms: C_1  and  C_2
REMARK    2  A    between atoms: C_2  and  O_3
REMARK    3  A    between atoms: O_3  and  C_4
REMARK    4  A    between atoms: C_7  and  O_8
REMARK    5  A    between atoms: O_8  and  C_9
REMARK    6  A    between atoms: C_9  and  C_10
REMARK    7  A    between atoms: C_11  and  N_12
REMARK    8  A    between atoms: C_13  and  C_15
REMARK    9  A    between atoms: C_17  and  C_18
REMARK   10  A    between atoms: C_19  and  O_20
REMARK   11  A    between atoms: O_20  and  C_21
REMARK   12  A    between atoms: C_21  and  C_22
REMARK   13  A    between atoms: C_22  and  N_23
REMARK   14  A    between atoms: C_24  and  C_25
REMARK                            x       y       z     vdW  Elec       q    Type
REMARK                         _______ _______ _______ _____ _____    ______ ____
ROOT
ATOM      1  N   UNL     1       6.442  -2.616  24.239  0.00  0.00    -0.278 N 
ATOM      2  H   UNL     1       6.276  -2.042  25.052  0.00  0.00    +0.155 HD
ATOM      3  C   UNL     1       7.459  -2.290  23.362  0.00  0.00    +0.248 C 
ATOM      4  O   UNL     1       8.004  -3.083  22.600  0.00  0.00    -0.270 OA
ENDROOT
BRANCH   3   5
ATOM      5  C   UNL     1       7.938  -0.872  23.380  0.00  0.00    +0.038 A 
ATOM      6  C   UNL     1       9.181  -0.602  23.947  0.00  0.00    +0.020 A 
ATOM      7  C   UNL     1       9.723   0.702  23.945  0.00  0.00    -0.008 A 
ATOM      8  C   UNL     1      11.096   0.819  24.559  0.00  0.00    +0.047 C 
ATOM      9  C   UNL     1       8.996   1.785  23.375  0.00  0.00    +0.126 A 
ATOM     10  C   UNL     1       7.711   1.517  22.828  0.00  0.00    -0.008 A 
ATOM     11  C   UNL     1       6.760   2.500  22.175  0.00  0.00    +0.047 C 
ATOM     12  C   UNL     1       7.213   0.190  22.847  0.00  0.00    +0.020 A 
BRANCH   9  13
ATOM     13  O   UNL     1       9.654   3.005  23.422  0.00  0.00    -0.490 OA
BRANCH  13  14
ATOM     14  C   UNL     1       9.161   3.983  24.338  0.00  0.00    +0.244 C 
BRANCH  14  15
ATOM     15  C   UNL     1       8.872   5.371  23.753  0.00  0.00    +0.119 C 
BRANCH  15  16
ATOM     16  N   UNL     1      10.010   5.946  23.040  0.00  0.00    -0.327 NA
ATOM     17  H   UNL     1       9.761   6.871  22.695  0.00  0.00    +0.118 HD
ATOM     18  H   UNL     1      10.780   6.070  23.699  0.00  0.00    +0.118 HD
ENDBRANCH  15  16
ENDBRANCH  14  15
ENDBRANCH  13  14
ENDBRANCH   9  13
ENDBRANCH   3   5
BRANCH   1  21
ATOM     19  C   UNL     1       4.365  -5.630  23.515  0.00  0.00    +0.122 A 
ATOM     20  C   UNL     1       4.961  -4.372  23.376  0.00  0.00    +0.072 A 
ATOM     21  C   UNL     1       5.871  -3.902  24.331  0.00  0.00    +0.079 A 
ATOM     22  C   UNL     1       6.203  -4.699  25.438  0.00  0.00    +0.142 A 
ATOM     23  C   UNL     1       5.654  -5.978  25.539  0.00  0.00    +0.051 A 
ATOM     24  C   UNL     1       4.739  -6.439  24.590  0.00  0.00    +0.049 A 
BRANCH  19  25
ATOM     25  O   UNL     1       3.422  -5.946  22.574  0.00  0.00    -0.492 OA
BRANCH  25  27
ATOM     26  C   UNL     1       1.224  -5.270  23.244  0.00  0.00    +0.048 C 
ATOM     27  C   UNL     1       2.176  -6.437  23.068  0.00  0.00    +0.225 C 
ENDBRANCH  25  27
ENDBRANCH  19  25
BRANCH  22  28
ATOM     28  O   UNL     1       7.109  -4.167  26.334  0.00  0.00    -0.490 OA
BRANCH  28  29
ATOM     29  C   UNL     1       8.246  -4.985  26.627  0.00  0.00    +0.226 C 
ATOM     30  C   UNL     1       9.275  -4.829  25.522  0.00  0.00    +0.048 C 
ENDBRANCH  28  29
ENDBRANCH  22  28
ENDBRANCH   1  21
TORSDOF 10
ENDMDL
MODEL 5
REMARK VINA RESULT:      -6.0      1.536      2.356
REMARK  Name = 
REMARK  14 active torsions:
REMARK  status: ('A' for Active; 'I' for Inactive)
REMARK    1  A    between atoms: C_1  and  C_2
REMARK    2  A    between atoms: C_2  and  O_3
REMARK    3  A    between atoms: O_3  and  C_4
REMARK    4  A    between atoms: C_7  and  O_8
REMARK    5  A    between atoms: O_8  and  C_9
REMARK    6  A    between atoms: C_9  and  C_10
REMARK    7  A    between atoms: C_11  and  N_12
REMARK    8  A    between atoms: C_13  and  C_15
REMARK    9  A    between atoms: C_17  and  C_18
REMARK   10  A    between atoms: C_19  and  O_20
REMARK   11  A    between atoms: O_20  and  C_21
REMARK   12  A    between atoms: C_21  and  C_22
REMARK   13  A    between atoms: C_22  and  N_23
REMARK   14  A    between atoms: C_24  and  C_25
REMARK                            x       y       z     vdW  Elec       q    Type
REMARK                         _______ _______ _______ _____ _____    ______ ____
ROOT
ATOM      1  N   UNL     1       8.505   2.570  24.299  0.00  0.00    -0.278 N 
ATOM      2  H   UNL     1       8.114   2.415  25.217  0.00  0.00    +0.155 HD
ATOM      3  C   UNL     1       8.321   1.627  23.305  0.00  0.00    +0.248 C 
ATOM      4  O   UNL     1       8.387   1.861  22.102  0.00  0.00    -0.270 OA
ENDROOT
BRANCH   3   5
ATOM      5  C   UNL     1       7.989   0.236  23.746  0.00  0.00    +0.038 A 
ATOM      6  C   UNL     1       7.231  -0.563  22.895  0.00  0.00    +0.020 A 
ATOM      7  C   UNL     1       6.931  -1.905  23.218  0.00  0.00    -0.008 A 
ATOM      8  C   UNL     1       6.137  -2.646  22.171  0.00  0.00    +0.047 C 
ATOM      9  C   UNL     1       7.385  -2.471  24.443  0.00  0.00    +0.126 A 
ATOM     10  C   UNL     1       8.130  -1.645  25.329  0.00  0.00    -0.008 A 
ATOM     11  C   UNL     1       8.710  -2.023  26.677  0.00  0.00    +0.047 C 
ATOM     12  C   UNL     1       8.411  -0.306  24.957  0.00  0.00    +0.020 A 
BRANCH   9  13
ATOM     13  O   UNL     1       7.038  -3.802  24.622  0.00  0.00    -0.490 OA
BRANCH  13  14
ATOM     14  C   UNL     1       8.017  -4.787  24.294  0.00  0.00    +0.244 C 
BRANCH  14  15
ATOM     15  C   UNL     1       8.747  -5.434  25.478  0.00  0.00    +0.119 C 
BRANCH  15  16
ATOM     16  N   UNL     1      10.202  -5.392  25.353  0.00  0.00    -0.327 NA
ATOM     17  H   UNL     1      10.514  -4.421  25.352  0.00  0.00    +0.118 HD
ATOM     18  H   UNL     1      10.614  -5.838  26.174  0.00  0.00    +0.118 HD
ENDBRANCH  15  16
ENDBRANCH  14  15
ENDBRANCH  13  14
ENDBRANCH   9  13
ENDBRANCH   3   5
BRANCH   1  21
ATOM     19  C   UNL     1      10.479   5.690  23.762  0.00  0.00    +0.122 A 
ATOM     20  C   UNL     1      10.170   4.340  23.958  0.00  0.00    +0.072 A 
ATOM     21  C   UNL     1       8.838   3.917  24.048  0.00  0.00    +0.079 A 
ATOM     22  C   UNL     1       7.794   4.848  23.932  0.00  0.00    +0.142 A 
ATOM     23  C   UNL     1       8.107   6.184  23.674  0.00  0.00    +0.051 A 
ATOM     24  C   UNL     1       9.436   6.604  23.595  0.00  0.00    +0.049 A 
BRANCH  19  25
ATOM     25  O   UNL     1      11.811   6.001  23.783  0.00  0.00    -0.492 OA
BRANCH  25  27
ATOM     26  C   UNL     1      13.313   5.615  21.957  0.00  0.00    +0.048 C 
ATOM     27  C   UNL     1      12.697   5.036  23.216  0.00  0.00    +0.225 C 
ENDBRANCH  25  27
ENDBRANCH  19  25
BRANCH  22  28
ATOM     28  O   UNL     1       6.508   4.354  24.030  0.00  0.00    -0.490 OA
BRANCH  28  29
ATOM     29  C   UNL     1       5.688   4.523  22.871  0.00  0.00    +0.226 C 
ATOM     30  C   UNL     1       5.033   3.199  22.521  0.00  0.00    +0.048 C 
ENDBRANCH  28  29
ENDBRANCH  22  28
ENDBRANCH   1  21
TORSDOF 10
ENDMDL
MODEL 6
REMARK VINA RESULT:      -6.0      1.576      1.853
REMARK  Name = 
REMARK  14 active torsions:
REMARK  status: ('A' for Active; 'I' for Inactive)
REMARK    1  A    between atoms: C_1  and  C_2
REMARK    2  A    between atoms: C_2  and  O_3
REMARK    3  A    between atoms: O_3  and  C_4
REMARK    4  A    between atoms: C_7  and  O_8
REMARK    5  A    between atoms: O_8  and  C_9
REMARK    6  A    between atoms: C_9  and  C_10
REMARK    7  A    between atoms: C_11  and  N_12
REMARK    8  A    between atoms: C_13  and  C_15
REMARK    9  A    between atoms: C_17  and  C_18
REMARK   10  A    between atoms: C_19  and  O_20
REMARK   11  A    between atoms: O_20  and  C_21
REMARK   12  A    between atoms: C_21  and  C_22
REMARK   13  A    between atoms: C_22  and  N_23
REMARK   14  A    between atoms: C_24  and  C_25
REMARK                            x       y       z     vdW  Elec       q    Type
REMARK                         _______ _______ _______ _____ _____    ______ ____
ROOT
ATOM      1  N   UNL     1       8.372   2.558  24.223  0.00  0.00    -0.278 N 
ATOM      2  H   UNL     1       8.047   2.369  25.159  0.00  0.00    +0.155 HD
ATOM      3  C   UNL     1       8.113   1.655  23.209  0.00  0.00    +0.248 C 
ATOM      4  O   UNL     1       8.094   1.935  22.014  0.00  0.00    -0.270 OA
ENDROOT
BRANCH   3   5
ATOM      5  C   UNL     1       7.807   0.249  23.619  0.00  0.00    +0.038 A 
ATOM      6  C   UNL     1       8.259  -0.191  24.860  0.00  0.00    +0.020 A 
ATOM      7  C   UNL     1       7.956  -1.485  25.338  0.00  0.00    -0.008 A 
ATOM      8  C   UNL     1       8.483  -1.790  26.717  0.00  0.00    +0.047 C 
ATOM      9  C   UNL     1       7.189  -2.386  24.545  0.00  0.00    +0.126 A 
ATOM     10  C   UNL     1       6.757  -1.950  23.262  0.00  0.00    -0.008 A 
ATOM     11  C   UNL     1       5.940  -2.726  22.250  0.00  0.00    +0.047 C 
ATOM     12  C   UNL     1       7.081  -0.639  22.830  0.00  0.00    +0.020 A 
BRANCH   9  13
ATOM     13  O   UNL     1       6.948  -3.613  25.144  0.00  0.00    -0.490 OA
BRANCH  13  14
ATOM     14  C   UNL     1       7.762  -4.713  24.738  0.00  0.00    +0.244 C 
BRANCH  14  15
ATOM     15  C   UNL     1       8.705  -5.285  25.803  0.00  0.00    +0.119 C 
BRANCH  15  16
ATOM     16  N   UNL     1      10.033  -5.607  25.286  0.00  0.00    -0.327 NA
ATOM     17  H   UNL     1      10.550  -4.745  25.121  0.00  0.00    +0.118 HD
ATOM     18  H   UNL     1      10.543  -6.130  26.000  0.00  0.00    +0.118 HD
ENDBRANCH  15  16
ENDBRANCH  14  15
ENDBRANCH  13  14
ENDBRANCH   9  13
ENDBRANCH   3   5
BRANCH   1  21
ATOM     19  C   UNL     1      10.318   5.699  23.701  0.00  0.00    +0.122 A 
ATOM     20  C   UNL     1      10.019   4.343  23.869  0.00  0.00    +0.072 A 
ATOM     21  C   UNL     1       8.693   3.914  24.000  0.00  0.00    +0.079 A 
ATOM     22  C   UNL     1       7.644   4.846  23.956  0.00  0.00    +0.142 A 
ATOM     23  C   UNL     1       7.944   6.189  23.726  0.00  0.00    +0.051 A 
ATOM     24  C   UNL     1       9.268   6.615  23.606  0.00  0.00    +0.049 A 
BRANCH  19  25
ATOM     25  O   UNL     1      11.650   6.013  23.678  0.00  0.00    -0.492 OA
BRANCH  25  27
ATOM     26  C   UNL     1      13.389   5.678  22.065  0.00  0.00    +0.048 C 
ATOM     27  C   UNL     1      12.524   5.027  23.127  0.00  0.00    +0.225 C 
ENDBRANCH  25  27
ENDBRANCH  19  25
BRANCH  22  28
ATOM     28  O   UNL     1       6.364   4.345  24.090  0.00  0.00    -0.490 OA
BRANCH  28  29
ATOM     29  C   UNL     1       5.498   4.546  22.971  0.00  0.00    +0.226 C 
ATOM     30  C   UNL     1       4.841   3.227  22.600  0.00  0.00    +0.048 C 
ENDBRANCH  28  29
ENDBRANCH  22  28
ENDBRANCH   1  21
TORSDOF 10
ENDMDL
MODEL 7
REMARK VINA RESULT:      -5.7      2.993      9.642
REMARK  Name = 
REMARK  14 active torsions:
REMARK  status: ('A' for Active; 'I' for Inactive)
REMARK    1  A    between atoms: C_1  and  C_2
REMARK    2  A    between atoms: C_2  and  O_3
REMARK    3  A    between atoms: O_3  and  C_4
REMARK    4  A    between atoms: C_7  and  O_8
REMARK    5  A    between atoms: O_8  and  C_9
REMARK    6  A    between atoms: C_9  and  C_10
REMARK    7  A    between atoms: C_11  and  N_12
REMARK    8  A    between atoms: C_13  and  C_15
REMARK    9  A    between atoms: C_17  and  C_18
REMARK   10  A    between atoms: C_19  and  O_20
REMARK   11  A    between atoms: O_20  and  C_21
REMARK   12  A    between atoms: C_21  and  C_22
REMARK   13  A    between atoms: C_22  and  N_23
REMARK   14  A    between atoms: C_24  and  C_25
REMARK                            x       y       z     vdW  Elec       q    Type
REMARK                         _______ _______ _______ _____ _____    ______ ____
ROOT
ATOM      1  N   UNL     1       5.754  -4.374  24.738  0.00  0.00    -0.278 N 
ATOM      2  H   UNL     1       5.597  -3.797  25.551  0.00  0.00    +0.155 HD
ATOM      3  C   UNL     1       6.998  -4.388  24.135  0.00  0.00    +0.248 C 
ATOM      4  O   UNL     1       7.419  -5.300  23.429  0.00  0.00    -0.270 OA
ENDROOT
BRANCH   3   5
ATOM      5  C   UNL     1       7.890  -3.216  24.398  0.00  0.00    +0.038 A 
ATOM      6  C   UNL     1       8.792  -2.837  23.408  0.00  0.00    +0.020 A 
ATOM      7  C   UNL     1       9.622  -1.705  23.562  0.00  0.00    -0.008 A 
ATOM      8  C   UNL     1      10.511  -1.406  22.381  0.00  0.00    +0.047 C 
ATOM      9  C   UNL     1       9.569  -0.928  24.754  0.00  0.00    +0.126 A 
ATOM     10  C   UNL     1       8.674  -1.335  25.781  0.00  0.00    -0.008 A 
ATOM     11  C   UNL     1       8.447  -0.674  27.125  0.00  0.00    +0.047 C 
ATOM     12  C   UNL     1       7.856  -2.475  25.576  0.00  0.00    +0.020 A 
BRANCH   9  13
ATOM     13  O   UNL     1      10.422   0.165  24.764  0.00  0.00    -0.490 OA
BRANCH  13  14
ATOM     14  C   UNL     1       9.845   1.450  24.533  0.00  0.00    +0.244 C 
BRANCH  14  15
ATOM     15  C   UNL     1      10.279   2.164  23.247  0.00  0.00    +0.119 C 
BRANCH  15  16
ATOM     16  N   UNL     1       9.849   3.559  23.187  0.00  0.00    -0.327 NA
ATOM     17  H   UNL     1      10.527   4.143  23.676  0.00  0.00    +0.118 HD
ATOM     18  H   UNL     1       9.845   3.858  22.211  0.00  0.00    +0.118 HD
ENDBRANCH  15  16
ENDBRANCH  14  15
ENDBRANCH  13  14
ENDBRANCH   9  13
ENDBRANCH   3   5
BRANCH   1  21
ATOM     19  C   UNL     1       2.903  -6.375  23.402  0.00  0.00    +0.122 A 
ATOM     20  C   UNL     1       3.881  -5.382  23.514  0.00  0.00    +0.072 A 
ATOM     21  C   UNL     1       4.794  -5.394  24.576  0.00  0.00    +0.079 A 
ATOM     22  C   UNL     1       4.740  -6.414  25.538  0.00  0.00    +0.142 A 
ATOM     23  C   UNL     1       3.803  -7.437  25.387  0.00  0.00    +0.051 A 
ATOM     24  C   UNL     1       2.887  -7.416  24.333  0.00  0.00    +0.049 A 
BRANCH  19  25
ATOM     25  O   UNL     1       2.007  -6.211  22.380  0.00  0.00    -0.492 OA
BRANCH  25  27
ATOM     26  C   UNL     1       0.526  -7.793  21.359  0.00  0.00    +0.048 C 
ATOM     27  C   UNL     1       0.744  -6.860  22.534  0.00  0.00    +0.225 C 
ENDBRANCH  25  27
ENDBRANCH  19  25
BRANCH  22  28
ATOM     28  O   UNL     1       5.675  -6.359  26.554  0.00  0.00    -0.490 OA
BRANCH  28  29
ATOM     29  C   UNL     1       5.217  -6.774  27.843  0.00  0.00    +0.226 C 
ATOM     30  C   UNL     1       6.218  -6.336  28.898  0.00  0.00    +0.048 C 
ENDBRANCH  28  29
ENDBRANCH  22  28
ENDBRANCH   1  21
TORSDOF 10
ENDMDL
MODEL 8
REMARK VINA RESULT:      -5.7      2.442      8.898
REMARK  Name = 
REMARK  14 active torsions:
REMARK  status: ('A' for Active; 'I' for Inactive)
REMARK    1  A    between atoms: C_1  and  C_2
REMARK    2  A    between atoms: C_2  and  O_3
REMARK    3  A    between atoms: O_3  and  C_4
REMARK    4  A    between atoms: C_7  and  O_8
REMARK    5  A    between atoms: O_8  and  C_9
REMARK    6  A    between atoms: C_9  and  C_10
REMARK    7  A    between atoms: C_11  and  N_12
REMARK    8  A    between atoms: C_13  and  C_15
REMARK    9  A    between atoms: C_17  and  C_18
REMARK   10  A    between atoms: C_19  and  O_20
REMARK   11  A    between atoms: O_20  and  C_21
REMARK   12  A    between atoms: C_21  and  C_22
REMARK   13  A    between atoms: C_22  and  N_23
REMARK   14  A    between atoms: C_24  and  C_25
REMARK                            x       y       z     vdW  Elec       q    Type
REMARK                         _______ _______ _______ _____ _____    ______ ____
ROOT
ATOM      1  N   UNL     1       6.187  -3.106  24.283  0.00  0.00    -0.278 N 
ATOM      2  H   UNL     1       5.549  -2.344  24.462  0.00  0.00    +0.155 HD
ATOM      3  C   UNL     1       7.548  -2.870  24.248  0.00  0.00    +0.248 C 
ATOM      4  O   UNL     1       8.409  -3.725  24.436  0.00  0.00    -0.270 OA
ENDROOT
BRANCH   3   5
ATOM      5  C   UNL     1       7.984  -1.461  23.992  0.00  0.00    +0.038 A 
ATOM      6  C   UNL     1       9.237  -1.064  24.449  0.00  0.00    +0.020 A 
ATOM      7  C   UNL     1       9.738   0.231  24.191  0.00  0.00    -0.008 A 
ATOM      8  C   UNL     1      11.128   0.489  24.717  0.00  0.00    +0.047 C 
ATOM      9  C   UNL     1       8.958   1.176  23.467  0.00  0.00    +0.126 A 
ATOM     10  C   UNL     1       7.662   0.783  23.030  0.00  0.00    -0.008 A 
ATOM     11  C   UNL     1       6.659   1.610  22.252  0.00  0.00    +0.047 C 
ATOM     12  C   UNL     1       7.207  -0.530  23.308  0.00  0.00    +0.020 A 
BRANCH   9  13
ATOM     13  O   UNL     1       9.579   2.400  23.267  0.00  0.00    -0.490 OA
BRANCH  13  14
ATOM     14  C   UNL     1       9.192   3.479  24.117  0.00  0.00    +0.244 C 
BRANCH  14  15
ATOM     15  C   UNL     1       8.528   4.677  23.428  0.00  0.00    +0.119 C 
BRANCH  15  16
ATOM     16  N   UNL     1       9.424   5.819  23.262  0.00  0.00    -0.327 NA
ATOM     17  H   UNL     1       8.900   6.683  23.397  0.00  0.00    +0.118 HD
ATOM     18  H   UNL     1      10.136   5.784  23.992  0.00  0.00    +0.118 HD
ENDBRANCH  15  16
ENDBRANCH  14  15
ENDBRANCH  13  14
ENDBRANCH   9  13
ENDBRANCH   3   5
BRANCH   1  21
ATOM     19  C   UNL     1       4.981  -6.211  25.962  0.00  0.00    +0.122 A 
ATOM     20  C   UNL     1       5.498  -4.925  25.779  0.00  0.00    +0.072 A 
ATOM     21  C   UNL     1       5.619  -4.379  24.495  0.00  0.00    +0.079 A 
ATOM     22  C   UNL     1       5.210  -5.119  23.375  0.00  0.00    +0.142 A 
ATOM     23  C   UNL     1       4.637  -6.377  23.568  0.00  0.00    +0.051 A 
ATOM     24  C   UNL     1       4.528  -6.922  24.849  0.00  0.00    +0.049 A 
BRANCH  19  25
ATOM     25  O   UNL     1       4.997  -6.678  27.249  0.00  0.00    -0.492 OA
BRANCH  25  27
ATOM     26  C   UNL     1       6.260  -6.508  29.277  0.00  0.00    +0.048 C 
ATOM     27  C   UNL     1       5.433  -5.759  28.251  0.00  0.00    +0.225 C 
ENDBRANCH  25  27
ENDBRANCH  19  25
BRANCH  22  28
ATOM     28  O   UNL     1       5.359  -4.512  22.143  0.00  0.00    -0.490 OA
BRANCH  28  29
ATOM     29  C   UNL     1       6.001  -5.298  21.136  0.00  0.00    +0.226 C 
ATOM     30  C   UNL     1       7.369  -5.732  21.634  0.00  0.00    +0.048 C 
ENDBRANCH  28  29
ENDBRANCH  22  28
ENDBRANCH   1  21
TORSDOF 10
ENDMDL
MODEL 9
REMARK VINA RESULT:      -5.6      2.880      9.315
REMARK  Name = 
REMARK  14 active torsions:
REMARK  status: ('A' for Active; 'I' for Inactive)
REMARK    1  A    between atoms: C_1  and  C_2
REMARK    2  A    between atoms: C_2  and  O_3
REMARK    3  A    between atoms: O_3  and  C_4
REMARK    4  A    between atoms: C_7  and  O_8
REMARK    5  A    between atoms: O_8  and  C_9
REMARK    6  A    between atoms: C_9  and  C_10
REMARK    7  A    between atoms: C_11  and  N_12
REMARK    8  A    between atoms: C_13  and  C_15
REMARK    9  A    between atoms: C_17  and  C_18
REMARK   10  A    between atoms: C_19  and  O_20
REMARK   11  A    between atoms: O_20  and  C_21
REMARK   12  A    between atoms: C_21  and  C_22
REMARK   13  A    between atoms: C_22  and  N_23
REMARK   14  A    between atoms: C_24  and  C_25
REMARK                            x       y       z     vdW  Elec       q    Type
REMARK                         _______ _______ _______ _____ _____    ______ ____
ROOT
ATOM      1  N   UNL     1       5.577  -4.015  24.612  0.00  0.00    -0.278 N 
ATOM      2  H   UNL     1       5.176  -3.093  24.703  0.00  0.00    +0.155 HD
ATOM      3  C   UNL     1       6.922  -4.209  24.865  0.00  0.00    +0.248 C 
ATOM      4  O   UNL     1       7.425  -5.285  25.172  0.00  0.00    -0.270 OA
ENDROOT
BRANCH   3   5
ATOM      5  C   UNL     1       7.805  -3.004  24.782  0.00  0.00    +0.038 A 
ATOM      6  C   UNL     1       7.888  -2.168  25.892  0.00  0.00    +0.020 A 
ATOM      7  C   UNL     1       8.748  -1.047  25.908  0.00  0.00    -0.008 A 
ATOM      8  C   UNL     1       8.752  -0.271  27.201  0.00  0.00    +0.047 C 
ATOM      9  C   UNL     1       9.543  -0.732  24.770  0.00  0.00    +0.126 A 
ATOM     10  C   UNL     1       9.432  -1.564  23.622  0.00  0.00    -0.008 A 
ATOM     11  C   UNL     1      10.170  -1.426  22.306  0.00  0.00    +0.047 C 
ATOM     12  C   UNL     1       8.560  -2.681  23.658  0.00  0.00    +0.020 A 
BRANCH   9  13
ATOM     13  O   UNL     1      10.355   0.381  24.929  0.00  0.00    -0.490 OA
BRANCH  13  14
ATOM     14  C   UNL     1       9.895   1.614  24.377  0.00  0.00    +0.244 C 
BRANCH  14  15
ATOM     15  C   UNL     1      10.756   2.217  23.260  0.00  0.00    +0.119 C 
BRANCH  15  16
ATOM     16  N   UNL     1      10.113   2.178  21.950  0.00  0.00    -0.327 NA
ATOM     17  H   UNL     1      10.333   1.295  21.491  0.00  0.00    +0.118 HD
ATOM     18  H   UNL     1       9.100   2.202  22.082  0.00  0.00    +0.118 HD
ENDBRANCH  15  16
ENDBRANCH  14  15
ENDBRANCH  13  14
ENDBRANCH   9  13
ENDBRANCH   3   5
BRANCH   1  21
ATOM     19  C   UNL     1       3.143  -6.565  25.834  0.00  0.00    +0.122 A 
ATOM     20  C   UNL     1       4.050  -5.501  25.830  0.00  0.00    +0.072 A 
ATOM     21  C   UNL     1       4.619  -5.050  24.633  0.00  0.00    +0.079 A 
ATOM     22  C   UNL     1       4.275  -5.661  23.417  0.00  0.00    +0.142 A 
ATOM     23  C   UNL     1       3.322  -6.680  23.419  0.00  0.00    +0.051 A 
ATOM     24  C   UNL     1       2.764  -7.134  24.616  0.00  0.00    +0.049 A 
BRANCH  19  25
ATOM     25  O   UNL     1       2.723  -6.981  27.068  0.00  0.00    -0.492 OA
BRANCH  25  27
ATOM     26  C   UNL     1       2.687  -6.175  29.324  0.00  0.00    +0.048 C 
ATOM     27  C   UNL     1       3.560  -6.634  28.172  0.00  0.00    +0.225 C 
ENDBRANCH  25  27
ENDBRANCH  19  25
BRANCH  22  28
ATOM     28  O   UNL     1       4.877  -5.159  22.279  0.00  0.00    -0.490 OA
BRANCH  28  29
ATOM     29  C   UNL     1       5.696  -6.079  21.553  0.00  0.00    +0.226 C 
ATOM     30  C   UNL     1       7.146  -5.635  21.634  0.00  0.00    +0.048 C 
ENDBRANCH  28  29
ENDBRANCH  22  28
ENDBRANCH   1  21
TORSDOF 10
ENDMDL
