MODEL 1
REMARK VINA RESULT:      -6.0      0.000      0.000
REMARK  Name = 
REMARK  9 active torsions:
REMARK  status: ('A' for Active; 'I' for Inactive)
REMARK    1  A    between atoms: C_2  and  C_3
REMARK    2  A    between atoms: C_2  and  C_4
REMARK    3  A    between atoms: C_2  and  N_15
REMARK    4  A    between atoms: C_4  and  C_5
REMARK    5  A    between atoms: C_5  and  C_6
REMARK    6  A    between atoms: C_9  and  C_12
REMARK    7  A    between atoms: N_15  and  C_16
REMARK    8  A    between atoms: C_16  and  C_17
REMARK    9  A    between atoms: C_17  and  C_19
REMARK                            x       y       z     vdW  Elec       q    Type
REMARK                         _______ _______ _______ _____ _____    ______ ____
ROOT
ATOM      1  C   UNL     1       6.262  -3.371  27.004  0.00  0.00    +0.051 C 
ATOM      2  C   UNL     1       5.307  -3.840  25.904  0.00  0.00    +0.024 C 
ENDROOT
BRANCH   1   3
ATOM      3  N   UNL     1       7.355  -4.355  27.095  0.00  0.00    -0.307 NA
ATOM      4  H   UNL     1       7.172  -5.061  27.810  0.00  0.00    +0.123 HD
BRANCH   3   5
ATOM      5  C   UNL     1       7.651  -5.012  25.816  0.00  0.00    +0.161 C 
BRANCH   5   6
ATOM      6  C   UNL     1       9.003  -4.590  25.244  0.00  0.00    +0.177 C 
ATOM      7  O   UNL     1      10.073  -5.110  25.542  0.00  0.00    -0.291 OA
BRANCH   6   8
ATOM      8  C   UNL     1       8.961  -3.557  24.161  0.00  0.00    +0.019 A 
ATOM      9  C   UNL     1      10.077  -2.725  23.986  0.00  0.00    +0.014 A 
ATOM     10  C   UNL     1      10.108  -1.813  22.928  0.00  0.00    +0.039 A 
ATOM     11  C   UNL     1       9.026  -1.727  22.060  0.00  0.00    +0.123 A 
ATOM     12  F   UNL     1       9.063  -0.863  21.038  0.00  0.00    -0.205 F 
ATOM     13  C   UNL     1       7.905  -2.529  22.233  0.00  0.00    +0.039 A 
ATOM     14  C   UNL     1       7.869  -3.446  23.285  0.00  0.00    +0.014 A 
ENDBRANCH   6   8
ENDBRANCH   5   6
ENDBRANCH   3   5
ENDBRANCH   1   3
BRANCH   1  15
ATOM     15  C   UNL     1       6.775  -1.942  26.735  0.00  0.00    +0.023 C 
BRANCH  15  16
ATOM     16  C   UNL     1       6.005  -1.178  25.653  0.00  0.00    +0.036 C 
BRANCH  16  17
ATOM     17  C   UNL     1       6.922  -0.155  25.022  0.00  0.00    -0.047 A 
ATOM     18  C   UNL     1       8.198   0.080  25.547  0.00  0.00    +0.004 A 
ATOM     19  C   UNL     1       9.085   0.936  24.888  0.00  0.00    +0.013 A 
ATOM     20  C   UNL     1       8.712   1.569  23.693  0.00  0.00    +0.037 A 
ATOM     21  C   UNL     1       7.428   1.350  23.180  0.00  0.00    +0.013 A 
ATOM     22  C   UNL     1       6.544   0.489  23.838  0.00  0.00    +0.004 A 
BRANCH  20  23
ATOM     23  C   UNL     1       9.724   2.434  23.020  0.00  0.00    +0.242 C 
ATOM     24  O   UNL     1      10.229   3.392  23.593  0.00  0.00    -0.270 OA
ATOM     25  N   UNL     1      10.101   2.133  21.741  0.00  0.00    -0.325 N 
ATOM     26  H   UNL     1      10.811   2.725  21.329  0.00  0.00    +0.145 HD
ATOM     27  H   UNL     1       9.784   1.339  21.209  0.00  0.00    +0.145 HD
ENDBRANCH  20  23
ENDBRANCH  16  17
ENDBRANCH  15  16
ENDBRANCH   1  15
TORSDOF 8
ENDMDL
MODEL 2
REMARK VINA RESULT:      -5.9      2.650      3.634
REMARK  Name = 
REMARK  9 active torsions:
REMARK  status: ('A' for Active; 'I' for Inactive)
REMARK    1  A    between atoms: C_2  and  C_3
REMARK    2  A    between atoms: C_2  and  C_4
REMARK    3  A    between atoms: C_2  and  N_15
REMARK    4  A    between atoms: C_4  and  C_5
REMARK    5  A    between atoms: C_5  and  C_6
REMARK    6  A    between atoms: C_9  and  C_12
REMARK    7  A    between atoms: N_15  and  C_16
REMARK    8  A    between atoms: C_16  and  C_17
REMARK    9  A    between atoms: C_17  and  C_19
REMARK                            x       y       z     vdW  Elec       q    Type
REMARK                         _______ _______ _______ _____ _____    ______ ____
ROOT
ATOM      1  C   UNL     1       6.646  -2.061  23.899  0.00  0.00    +0.051 C 
ATOM      2  C   UNL     1       5.346  -2.743  24.332  0.00  0.00    +0.024 C 
ENDROOT
BRANCH   1   3
ATOM      3  N   UNL     1       7.243  -2.880  22.830  0.00  0.00    -0.307 NA
ATOM      4  H   UNL     1       6.538  -3.230  22.180  0.00  0.00    +0.123 HD
BRANCH   3   5
ATOM      5  C   UNL     1       8.298  -2.182  22.086  0.00  0.00    +0.161 C 
BRANCH   5   6
ATOM      6  C   UNL     1       9.496  -1.827  22.965  0.00  0.00    +0.177 C 
ATOM      7  O   UNL     1      10.251  -2.651  23.471  0.00  0.00    -0.291 OA
BRANCH   6   8
ATOM      8  C   UNL     1       9.804  -0.368  23.092  0.00  0.00    +0.019 A 
ATOM      9  C   UNL     1      10.121   0.143  24.359  0.00  0.00    +0.014 A 
ATOM     10  C   UNL     1      10.504   1.479  24.498  0.00  0.00    +0.039 A 
ATOM     11  C   UNL     1      10.557   2.301  23.378  0.00  0.00    +0.123 A 
ATOM     12  F   UNL     1      10.938   3.577  23.510  0.00  0.00    -0.205 F 
ATOM     13  C   UNL     1      10.226   1.815  22.119  0.00  0.00    +0.039 A 
ATOM     14  C   UNL     1       9.847   0.480  21.973  0.00  0.00    +0.014 A 
ENDBRANCH   6   8
ENDBRANCH   5   6
ENDBRANCH   3   5
ENDBRANCH   1   3
BRANCH   1  15
ATOM     15  C   UNL     1       6.400  -0.604  23.460  0.00  0.00    +0.023 C 
BRANCH  15  16
ATOM     16  C   UNL     1       6.325   0.408  24.608  0.00  0.00    +0.036 C 
BRANCH  16  17
ATOM     17  C   UNL     1       6.645   1.786  24.075  0.00  0.00    -0.047 A 
ATOM     18  C   UNL     1       7.096   2.795  24.934  0.00  0.00    +0.004 A 
ATOM     19  C   UNL     1       7.505   4.029  24.418  0.00  0.00    +0.013 A 
ATOM     20  C   UNL     1       7.473   4.272  23.038  0.00  0.00    +0.037 A 
ATOM     21  C   UNL     1       7.000   3.270  22.182  0.00  0.00    +0.013 A 
ATOM     22  C   UNL     1       6.596   2.035  22.699  0.00  0.00    +0.004 A 
BRANCH  20  23
ATOM     23  C   UNL     1       7.965   5.594  22.554  0.00  0.00    +0.242 C 
ATOM     24  O   UNL     1       8.864   6.194  23.133  0.00  0.00    -0.270 OA
ATOM     25  N   UNL     1       7.406   6.134  21.429  0.00  0.00    -0.325 N 
ATOM     26  H   UNL     1       7.787   7.017  21.115  0.00  0.00    +0.145 HD
ATOM     27  H   UNL     1       6.704   5.694  20.857  0.00  0.00    +0.145 HD
ENDBRANCH  20  23
ENDBRANCH  16  17
ENDBRANCH  15  16
ENDBRANCH   1  15
TORSDOF 8
ENDMDL
MODEL 3
REMARK VINA RESULT:      -5.8      2.860      7.460
REMARK  Name = 
REMARK  9 active torsions:
REMARK  status: ('A' for Active; 'I' for Inactive)
REMARK    1  A    between atoms: C_2  and  C_3
REMARK    2  A    between atoms: C_2  and  C_4
REMARK    3  A    between atoms: C_2  and  N_15
REMARK    4  A    between atoms: C_4  and  C_5
REMARK    5  A    between atoms: C_5  and  C_6
REMARK    6  A    between atoms: C_9  and  C_12
REMARK    7  A    between atoms: N_15  and  C_16
REMARK    8  A    between atoms: C_16  and  C_17
REMARK    9  A    between atoms: C_17  and  C_19
REMARK                            x       y       z     vdW  Elec       q    Type
REMARK                         _______ _______ _______ _____ _____    ______ ____
ROOT
ATOM      1  C   UNL     1      11.139   5.192  23.765  0.00  0.00    +0.051 C 
ATOM      2  C   UNL     1      12.529   5.323  23.138  0.00  0.00    +0.024 C 
ENDROOT
BRANCH   1   3
ATOM      3  N   UNL     1      10.200   5.958  22.928  0.00  0.00    -0.307 NA
ATOM      4  H   UNL     1      10.054   5.517  22.018  0.00  0.00    +0.123 HD
BRANCH   3   5
ATOM      5  C   UNL     1       8.905   6.194  23.576  0.00  0.00    +0.161 C 
BRANCH   5   6
ATOM      6  C   UNL     1       7.733   5.669  22.748  0.00  0.00    +0.177 C 
ATOM      7  O   UNL     1       7.234   6.266  21.799  0.00  0.00    -0.291 OA
BRANCH   6   8
ATOM      8  C   UNL     1       7.275   4.281  23.069  0.00  0.00    +0.019 A 
ATOM      9  C   UNL     1       6.980   3.411  22.009  0.00  0.00    +0.014 A 
ATOM     10  C   UNL     1       6.640   2.081  22.271  0.00  0.00    +0.039 A 
ATOM     11  C   UNL     1       6.583   1.630  23.585  0.00  0.00    +0.123 A 
ATOM     12  F   UNL     1       6.271   0.353  23.834  0.00  0.00    -0.205 F 
ATOM     13  C   UNL     1       6.852   2.486  24.646  0.00  0.00    +0.039 A 
ATOM     14  C   UNL     1       7.197   3.813  24.391  0.00  0.00    +0.014 A 
ENDBRANCH   6   8
ENDBRANCH   5   6
ENDBRANCH   3   5
ENDBRANCH   1   3
BRANCH   1  15
ATOM     15  C   UNL     1      10.726   3.714  23.916  0.00  0.00    +0.023 C 
BRANCH  15  16
ATOM     16  C   UNL     1      10.681   2.923  22.605  0.00  0.00    +0.036 C 
BRANCH  16  17
ATOM     17  C   UNL     1      10.212   1.515  22.892  0.00  0.00    -0.047 A 
ATOM     18  C   UNL     1       9.855   0.655  21.846  0.00  0.00    +0.004 A 
ATOM     19  C   UNL     1       9.540  -0.681  22.108  0.00  0.00    +0.013 A 
ATOM     20  C   UNL     1       9.580  -1.180  23.418  0.00  0.00    +0.037 A 
ATOM     21  C   UNL     1       9.915  -0.315  24.465  0.00  0.00    +0.013 A 
ATOM     22  C   UNL     1      10.234   1.021  24.201  0.00  0.00    +0.004 A 
BRANCH  20  23
ATOM     23  C   UNL     1       9.275  -2.627  23.619  0.00  0.00    +0.242 C 
ATOM     24  O   UNL     1      10.086  -3.386  24.137  0.00  0.00    -0.270 OA
ATOM     25  N   UNL     1       8.055  -3.103  23.227  0.00  0.00    -0.325 N 
ATOM     26  H   UNL     1       7.874  -4.083  23.407  0.00  0.00    +0.145 HD
ATOM     27  H   UNL     1       7.307  -2.549  22.843  0.00  0.00    +0.145 HD
ENDBRANCH  20  23
ENDBRANCH  16  17
ENDBRANCH  15  16
ENDBRANCH   1  15
TORSDOF 8
ENDMDL
MODEL 4
REMARK VINA RESULT:      -5.8      2.060      3.375
REMARK  Name = 
REMARK  9 active torsions:
REMARK  status: ('A' for Active; 'I' for Inactive)
REMARK    1  A    between atoms: C_2  and  C_3
REMARK    2  A    between atoms: C_2  and  C_4
REMARK    3  A    between atoms: C_2  and  N_15
REMARK    4  A    between atoms: C_4  and  C_5
REMARK    5  A    between atoms: C_5  and  C_6
REMARK    6  A    between atoms: C_9  and  C_12
REMARK    7  A    between atoms: N_15  and  C_16
REMARK    8  A    between atoms: C_16  and  C_17
REMARK    9  A    between atoms: C_17  and  C_19
REMARK                            x       y       z     vdW  Elec       q    Type
REMARK                         _______ _______ _______ _____ _____    ______ ____
ROOT
ATOM      1  C   UNL     1       7.785  -4.789  26.013  0.00  0.00    +0.051 C 
ATOM      2  C   UNL     1       6.736  -4.533  27.099  0.00  0.00    +0.024 C 
ENDROOT
BRANCH   1   3
ATOM      3  N   UNL     1       7.071  -5.206  24.794  0.00  0.00    -0.307 NA
ATOM      4  H   UNL     1       7.249  -6.185  24.565  0.00  0.00    +0.123 HD
BRANCH   3   5
ATOM      5  C   UNL     1       5.624  -4.969  24.861  0.00  0.00    +0.161 C 
BRANCH   5   6
ATOM      6  C   UNL     1       5.142  -3.998  23.784  0.00  0.00    +0.177 C 
ATOM      7  O   UNL     1       4.326  -4.281  22.913  0.00  0.00    -0.291 OA
BRANCH   6   8
ATOM      8  C   UNL     1       5.626  -2.588  23.912  0.00  0.00    +0.019 A 
ATOM      9  C   UNL     1       6.287  -2.005  22.821  0.00  0.00    +0.014 A 
ATOM     10  C   UNL     1       6.669  -0.662  22.873  0.00  0.00    +0.039 A 
ATOM     11  C   UNL     1       6.403   0.087  24.013  0.00  0.00    +0.123 A 
ATOM     12  F   UNL     1       6.757   1.378  24.056  0.00  0.00    -0.205 F 
ATOM     13  C   UNL     1       5.768  -0.482  25.110  0.00  0.00    +0.039 A 
ATOM     14  C   UNL     1       5.379  -1.821  25.063  0.00  0.00    +0.014 A 
ENDBRANCH   6   8
ENDBRANCH   5   6
ENDBRANCH   3   5
ENDBRANCH   1   3
BRANCH   1  15
ATOM     15  C   UNL     1       8.673  -3.550  25.784  0.00  0.00    +0.023 C 
BRANCH  15  16
ATOM     16  C   UNL     1       9.435  -3.544  24.456  0.00  0.00    +0.036 C 
BRANCH  16  17
ATOM     17  C   UNL     1       9.777  -2.119  24.086  0.00  0.00    -0.047 A 
ATOM     18  C   UNL     1      10.099  -1.782  22.766  0.00  0.00    +0.004 A 
ATOM     19  C   UNL     1      10.294  -0.445  22.407  0.00  0.00    +0.013 A 
ATOM     20  C   UNL     1      10.168   0.576  23.359  0.00  0.00    +0.037 A 
ATOM     21  C   UNL     1       9.867   0.236  24.684  0.00  0.00    +0.013 A 
ATOM     22  C   UNL     1       9.668  -1.101  25.040  0.00  0.00    +0.004 A 
BRANCH  20  23
ATOM     23  C   UNL     1      10.345   1.983  22.897  0.00  0.00    +0.242 C 
ATOM     24  O   UNL     1      10.882   2.827  23.606  0.00  0.00    -0.270 OA
ATOM     25  N   UNL     1       9.911   2.325  21.646  0.00  0.00    -0.325 N 
ATOM     26  H   UNL     1      10.077   3.281  21.357  0.00  0.00    +0.145 HD
ATOM     27  H   UNL     1       9.510   1.692  20.974  0.00  0.00    +0.145 HD
ENDBRANCH  20  23
ENDBRANCH  16  17
ENDBRANCH  15  16
ENDBRANCH   1  15
TORSDOF 8
ENDMDL
MODEL 5
REMARK VINA RESULT:      -5.8      2.418      3.621
REMARK  Name = 
REMARK  9 active torsions:
REMARK  status: ('A' for Active; 'I' for Inactive)
REMARK    1  A    between atoms: C_2  and  C_3
REMARK    2  A    between atoms: C_2  and  C_4
REMARK    3  A    between atoms: C_2  and  N_15
REMARK    4  A    between atoms: C_4  and  C_5
REMARK    5  A    between atoms: C_5  and  C_6
REMARK    6  A    between atoms: C_9  and  C_12
REMARK    7  A    between atoms: N_15  and  C_16
REMARK    8  A    between atoms: C_16  and  C_17
REMARK    9  A    between atoms: C_17  and  C_19
REMARK                            x       y       z     vdW  Elec       q    Type
REMARK                         _______ _______ _______ _____ _____    ______ ____
ROOT
ATOM      1  C   UNL     1       6.273  -5.290  27.851  0.00  0.00    +0.051 C 
ATOM      2  C   UNL     1       5.010  -4.816  28.574  0.00  0.00    +0.024 C 
ENDROOT
BRANCH   1   3
ATOM      3  N   UNL     1       5.898  -6.435  27.004  0.00  0.00    -0.307 NA
ATOM      4  H   UNL     1       5.888  -7.310  27.531  0.00  0.00    +0.123 HD
BRANCH   3   5
ATOM      5  C   UNL     1       4.612  -6.255  26.321  0.00  0.00    +0.161 C 
BRANCH   5   6
ATOM      6  C   UNL     1       4.689  -6.595  24.834  0.00  0.00    +0.177 C 
ATOM      7  O   UNL     1       4.196  -7.597  24.327  0.00  0.00    -0.291 OA
BRANCH   6   8
ATOM      8  C   UNL     1       5.305  -5.551  23.955  0.00  0.00    +0.019 A 
ATOM      9  C   UNL     1       4.826  -4.236  24.040  0.00  0.00    +0.014 A 
ATOM     10  C   UNL     1       5.440  -3.220  23.303  0.00  0.00    +0.039 A 
ATOM     11  C   UNL     1       6.517  -3.522  22.478  0.00  0.00    +0.123 A 
ATOM     12  F   UNL     1       7.114  -2.546  21.783  0.00  0.00    -0.205 F 
ATOM     13  C   UNL     1       6.990  -4.824  22.367  0.00  0.00    +0.039 A 
ATOM     14  C   UNL     1       6.384  -5.842  23.105  0.00  0.00    +0.014 A 
ENDBRANCH   6   8
ENDBRANCH   5   6
ENDBRANCH   3   5
ENDBRANCH   1   3
BRANCH   1  15
ATOM     15  C   UNL     1       6.924  -4.147  27.046  0.00  0.00    +0.023 C 
BRANCH  15  16
ATOM     16  C   UNL     1       8.260  -4.505  26.389  0.00  0.00    +0.036 C 
BRANCH  16  17
ATOM     17  C   UNL     1       8.705  -3.358  25.511  0.00  0.00    -0.047 A 
ATOM     18  C   UNL     1       9.667  -3.554  24.513  0.00  0.00    +0.004 A 
ATOM     19  C   UNL     1       9.984  -2.521  23.626  0.00  0.00    +0.013 A 
ATOM     20  C   UNL     1       9.342  -1.278  23.720  0.00  0.00    +0.037 A 
ATOM     21  C   UNL     1       8.396  -1.075  24.731  0.00  0.00    +0.013 A 
ATOM     22  C   UNL     1       8.077  -2.111  25.615  0.00  0.00    +0.004 A 
BRANCH  20  23
ATOM     23  C   UNL     1       9.698  -0.236  22.713  0.00  0.00    +0.242 C 
ATOM     24  O   UNL     1       9.916   0.925  23.042  0.00  0.00    -0.270 OA
ATOM     25  N   UNL     1       9.794  -0.597  21.398  0.00  0.00    -0.325 N 
ATOM     26  H   UNL     1      10.067   0.130  20.749  0.00  0.00    +0.145 HD
ATOM     27  H   UNL     1       9.687  -1.532  21.039  0.00  0.00    +0.145 HD
ENDBRANCH  20  23
ENDBRANCH  16  17
ENDBRANCH  15  16
ENDBRANCH   1  15
TORSDOF 8
ENDMDL
MODEL 6
REMARK VINA RESULT:      -5.8      2.247      3.462
REMARK  Name = 
REMARK  9 active torsions:
REMARK  status: ('A' for Active; 'I' for Inactive)
REMARK    1  A    between atoms: C_2  and  C_3
REMARK    2  A    between atoms: C_2  and  C_4
REMARK    3  A    between atoms: C_2  and  N_15
REMARK    4  A    between atoms: C_4  and  C_5
REMARK    5  A    between atoms: C_5  and  C_6
REMARK    6  A    between atoms: C_9  and  C_12
REMARK    7  A    between atoms: N_15  and  C_16
REMARK    8  A    between atoms: C_16  and  C_17
REMARK    9  A    between atoms: C_17  and  C_19
REMARK                            x       y       z     vdW  Elec       q    Type
REMARK                         _______ _______ _______ _____ _____    ______ ____
ROOT
ATOM      1  C   UNL     1       4.808  -4.713  22.975  0.00  0.00    +0.051 C 
ATOM      2  C   UNL     1       5.688  -5.851  22.452  0.00  0.00    +0.024 C 
ENDROOT
BRANCH   1   3
ATOM      3  N   UNL     1       4.358  -5.085  24.327  0.00  0.00    -0.307 NA
ATOM      4  H   UNL     1       3.346  -5.223  24.366  0.00  0.00    +0.123 HD
BRANCH   3   5
ATOM      5  C   UNL     1       5.040  -6.270  24.860  0.00  0.00    +0.161 C 
BRANCH   5   6
ATOM      6  C   UNL     1       5.792  -5.976  26.157  0.00  0.00    +0.177 C 
ATOM      7  O   UNL     1       5.745  -6.682  27.159  0.00  0.00    -0.291 OA
BRANCH   6   8
ATOM      8  C   UNL     1       6.731  -4.811  26.118  0.00  0.00    +0.019 A 
ATOM      9  C   UNL     1       7.958  -4.961  25.456  0.00  0.00    +0.014 A 
ATOM     10  C   UNL     1       8.817  -3.867  25.322  0.00  0.00    +0.039 A 
ATOM     11  C   UNL     1       8.455  -2.636  25.858  0.00  0.00    +0.123 A 
ATOM     12  F   UNL     1       9.272  -1.586  25.716  0.00  0.00    -0.205 F 
ATOM     13  C   UNL     1       7.252  -2.477  26.535  0.00  0.00    +0.039 A 
ATOM     14  C   UNL     1       6.387  -3.565  26.668  0.00  0.00    +0.014 A 
ENDBRANCH   6   8
ENDBRANCH   5   6
ENDBRANCH   3   5
ENDBRANCH   1   3
BRANCH   1  15
ATOM     15  C   UNL     1       5.555  -3.365  22.950  0.00  0.00    +0.023 C 
BRANCH  15  16
ATOM     16  C   UNL     1       6.839  -3.358  22.115  0.00  0.00    +0.036 C 
BRANCH  16  17
ATOM     17  C   UNL     1       7.628  -2.107  22.428  0.00  0.00    -0.047 A 
ATOM     18  C   UNL     1       8.990  -2.026  22.117  0.00  0.00    +0.004 A 
ATOM     19  C   UNL     1       9.684  -0.826  22.296  0.00  0.00    +0.013 A 
ATOM     20  C   UNL     1       9.028   0.313  22.784  0.00  0.00    +0.037 A 
ATOM     21  C   UNL     1       7.671   0.225  23.115  0.00  0.00    +0.013 A 
ATOM     22  C   UNL     1       6.977  -0.975  22.932  0.00  0.00    +0.004 A 
BRANCH  20  23
ATOM     23  C   UNL     1       9.820   1.571  22.908  0.00  0.00    +0.242 C 
ATOM     24  O   UNL     1      10.204   1.981  23.998  0.00  0.00    -0.270 OA
ATOM     25  N   UNL     1      10.131   2.267  21.773  0.00  0.00    -0.325 N 
ATOM     26  H   UNL     1      10.695   3.099  21.894  0.00  0.00    +0.145 HD
ATOM     27  H   UNL     1       9.908   1.983  20.834  0.00  0.00    +0.145 HD
ENDBRANCH  20  23
ENDBRANCH  16  17
ENDBRANCH  15  16
ENDBRANCH   1  15
TORSDOF 8
ENDMDL
MODEL 7
REMARK VINA RESULT:      -5.7      1.766      5.990
REMARK  Name = 
REMARK  9 active torsions:
REMARK  status: ('A' for Active; 'I' for Inactive)
REMARK    1  A    between atoms: C_2  and  C_3
REMARK    2  A    between atoms: C_2  and  C_4
REMARK    3  A    between atoms: C_2  and  N_15
REMARK    4  A    between atoms: C_4  and  C_5
REMARK    5  A    between atoms: C_5  and  C_6
REMARK    6  A    between atoms: C_9  and  C_12
REMARK    7  A    between atoms: N_15  and  C_16
REMARK    8  A    between atoms: C_16  and  C_17
REMARK    9  A    between atoms: C_17  and  C_19
REMARK                            x       y       z     vdW  Elec       q    Type
REMARK                         _______ _______ _______ _____ _____    ______ ____
ROOT
ATOM      1  C   UNL     1       7.011   2.681  24.513  0.00  0.00    +0.051 C 
ATOM      2  C   UNL     1       5.811   3.394  25.143  0.00  0.00    +0.024 C 
ENDROOT
BRANCH   1   3
ATOM      3  N   UNL     1       8.217   3.454  24.856  0.00  0.00    -0.307 NA
ATOM      4  H   UNL     1       8.887   2.897  25.389  0.00  0.00    +0.123 HD
BRANCH   3   5
ATOM      5  C   UNL     1       8.882   4.041  23.687  0.00  0.00    +0.161 C 
BRANCH   5   6
ATOM      6  C   UNL     1      10.264   3.438  23.438  0.00  0.00    +0.177 C 
ATOM      7  O   UNL     1      11.317   4.058  23.536  0.00  0.00    -0.291 OA
BRANCH   6   8
ATOM      8  C   UNL     1      10.297   1.963  23.182  0.00  0.00    +0.019 A 
ATOM      9  C   UNL     1      10.764   1.117  24.198  0.00  0.00    +0.014 A 
ATOM     10  C   UNL     1      10.722  -0.269  24.027  0.00  0.00    +0.039 A 
ATOM     11  C   UNL     1      10.228  -0.803  22.842  0.00  0.00    +0.123 A 
ATOM     12  F   UNL     1      10.175  -2.131  22.685  0.00  0.00    -0.205 F 
ATOM     13  C   UNL     1       9.782   0.023  21.818  0.00  0.00    +0.039 A 
ATOM     14  C   UNL     1       9.816   1.408  21.985  0.00  0.00    +0.014 A 
ENDBRANCH   6   8
ENDBRANCH   5   6
ENDBRANCH   3   5
ENDBRANCH   1   3
BRANCH   1  15
ATOM     15  C   UNL     1       7.099   1.212  24.972  0.00  0.00    +0.023 C 
BRANCH  15  16
ATOM     16  C   UNL     1       6.611   0.189  23.943  0.00  0.00    +0.036 C 
BRANCH  16  17
ATOM     17  C   UNL     1       7.046  -1.194  24.373  0.00  0.00    -0.047 A 
ATOM     18  C   UNL     1       6.905  -2.287  23.511  0.00  0.00    +0.004 A 
ATOM     19  C   UNL     1       7.419  -3.537  23.867  0.00  0.00    +0.013 A 
ATOM     20  C   UNL     1       8.085  -3.714  25.088  0.00  0.00    +0.037 A 
ATOM     21  C   UNL     1       8.206  -2.625  25.960  0.00  0.00    +0.013 A 
ATOM     22  C   UNL     1       7.695  -1.374  25.600  0.00  0.00    +0.004 A 
BRANCH  20  23
ATOM     23  C   UNL     1       8.647  -5.064  25.383  0.00  0.00    +0.242 C 
ATOM     24  O   UNL     1       9.421  -5.618  24.611  0.00  0.00    -0.270 OA
ATOM     25  N   UNL     1       8.297  -5.681  26.552  0.00  0.00    -0.325 N 
ATOM     26  H   UNL     1       8.722  -6.582  26.731  0.00  0.00    +0.145 HD
ATOM     27  H   UNL     1       7.714  -5.285  27.271  0.00  0.00    +0.145 HD
ENDBRANCH  20  23
ENDBRANCH  16  17
ENDBRANCH  15  16
ENDBRANCH   1  15
TORSDOF 8
ENDMDL
MODEL 8
REMARK VINA RESULT:      -5.7      2.656      6.065
REMARK  Name = 
REMARK  9 active torsions:
REMARK  status: ('A' for Active; 'I' for Inactive)
REMARK    1  A    between atoms: C_2  and  C_3
REMARK    2  A    between atoms: C_2  and  C_4
REMARK    3  A    between atoms: C_2  and  N_15
REMARK    4  A    between atoms: C_4  and  C_5
REMARK    5  A    between atoms: C_5  and  C_6
REMARK    6  A    between atoms: C_9  and  C_12
REMARK    7  A    between atoms: N_15  and  C_16
REMARK    8  A    between atoms: C_16  and  C_17
REMARK    9  A    between atoms: C_17  and  C_19
REMARK                            x       y       z     vdW  Elec       q    Type
REMARK                         _______ _______ _______ _____ _____    ______ ____
ROOT
ATOM      1  C   UNL     1       9.183   0.582  23.755  0.00  0.00    +0.051 C 
ATOM      2  C   UNL     1       9.442   0.203  22.295  0.00  0.00    +0.024 C 
ENDROOT
BRANCH   1   3
ATOM      3  N   UNL     1       7.743   0.862  23.893  0.00  0.00    -0.307 NA
ATOM      4  H   UNL     1       7.523   1.836  23.680  0.00  0.00    +0.123 HD
BRANCH   3   5
ATOM      5  C   UNL     1       6.900  -0.025  23.083  0.00  0.00    +0.161 C 
BRANCH   5   6
ATOM      6  C   UNL     1       6.042  -0.955  23.938  0.00  0.00    +0.177 C 
ATOM      7  O   UNL     1       5.406  -0.599  24.924  0.00  0.00    -0.291 OA
BRANCH   6   8
ATOM      8  C   UNL     1       5.895  -2.357  23.433  0.00  0.00    +0.019 A 
ATOM      9  C   UNL     1       6.659  -2.754  22.326  0.00  0.00    +0.014 A 
ATOM     10  C   UNL     1       6.616  -4.079  21.886  0.00  0.00    +0.039 A 
ATOM     11  C   UNL     1       5.804  -4.997  22.543  0.00  0.00    +0.123 A 
ATOM     12  F   UNL     1       5.774  -6.270  22.130  0.00  0.00    -0.205 F 
ATOM     13  C   UNL     1       5.025  -4.614  23.628  0.00  0.00    +0.039 A 
ATOM     14  C   UNL     1       5.068  -3.293  24.075  0.00  0.00    +0.014 A 
ENDBRANCH   6   8
ENDBRANCH   5   6
ENDBRANCH   3   5
ENDBRANCH   1   3
BRANCH   1  15
ATOM     15  C   UNL     1       9.667  -0.520  24.718  0.00  0.00    +0.023 C 
BRANCH  15  16
ATOM     16  C   UNL     1       9.839  -1.900  24.078  0.00  0.00    +0.036 C 
BRANCH  16  17
ATOM     17  C   UNL     1       9.147  -2.935  24.937  0.00  0.00    -0.047 A 
ATOM     18  C   UNL     1       8.397  -2.549  26.054  0.00  0.00    +0.004 A 
ATOM     19  C   UNL     1       7.661  -3.497  26.771  0.00  0.00    +0.013 A 
ATOM     20  C   UNL     1       7.661  -4.844  26.382  0.00  0.00    +0.037 A 
ATOM     21  C   UNL     1       8.430  -5.233  25.279  0.00  0.00    +0.013 A 
ATOM     22  C   UNL     1       9.161  -4.282  24.560  0.00  0.00    +0.004 A 
BRANCH  20  23
ATOM     23  C   UNL     1       6.819  -5.793  27.166  0.00  0.00    +0.242 C 
ATOM     24  O   UNL     1       7.046  -6.025  28.348  0.00  0.00    -0.270 OA
ATOM     25  N   UNL     1       5.762  -6.401  26.547  0.00  0.00    -0.325 N 
ATOM     26  H   UNL     1       5.196  -7.015  27.120  0.00  0.00    +0.145 HD
ATOM     27  H   UNL     1       5.465  -6.234  25.600  0.00  0.00    +0.145 HD
ENDBRANCH  20  23
ENDBRANCH  16  17
ENDBRANCH  15  16
ENDBRANCH   1  15
TORSDOF 8
ENDMDL
MODEL 9
REMARK VINA RESULT:      -5.6      3.288      6.464
REMARK  Name = 
REMARK  9 active torsions:
REMARK  status: ('A' for Active; 'I' for Inactive)
REMARK    1  A    between atoms: C_2  and  C_3
REMARK    2  A    between atoms: C_2  and  C_4
REMARK    3  A    between atoms: C_2  and  N_15
REMARK    4  A    between atoms: C_4  and  C_5
REMARK    5  A    between atoms: C_5  and  C_6
REMARK    6  A    between atoms: C_9  and  C_12
REMARK    7  A    between atoms: N_15  and  C_16
REMARK    8  A    between atoms: C_16  and  C_17
REMARK    9  A    between atoms: C_17  and  C_19
REMARK                            x       y       z     vdW  Elec       q    Type
REMARK                         _______ _______ _______ _____ _____    ______ ____
ROOT
ATOM      1  C   UNL     1       9.336  -0.376  22.881  0.00  0.00    +0.051 C 
ATOM      2  C   UNL     1       9.469   0.826  21.943  0.00  0.00    +0.024 C 
ENDROOT
BRANCH   1   3
ATOM      3  N   UNL     1       9.204   0.142  24.253  0.00  0.00    -0.307 NA
ATOM      4  H   UNL     1       9.181   1.163  24.273  0.00  0.00    +0.123 HD
BRANCH   3   5
ATOM      5  C   UNL     1       8.037  -0.392  24.964  0.00  0.00    +0.161 C 
BRANCH   5   6
ATOM      6  C   UNL     1       8.428  -1.230  26.180  0.00  0.00    +0.177 C 
ATOM      7  O   UNL     1       9.091  -0.812  27.124  0.00  0.00    -0.291 OA
BRANCH   6   8
ATOM      8  C   UNL     1       7.841  -2.605  26.243  0.00  0.00    +0.019 A 
ATOM      9  C   UNL     1       6.482  -2.740  26.562  0.00  0.00    +0.014 A 
ATOM     10  C   UNL     1       5.881  -4.001  26.538  0.00  0.00    +0.039 A 
ATOM     11  C   UNL     1       6.639  -5.120  26.210  0.00  0.00    +0.123 A 
ATOM     12  F   UNL     1       6.059  -6.326  26.173  0.00  0.00    -0.205 F 
ATOM     13  C   UNL     1       7.991  -5.005  25.912  0.00  0.00    +0.039 A 
ATOM     14  C   UNL     1       8.596  -3.747  25.929  0.00  0.00    +0.014 A 
ENDBRANCH   6   8
ENDBRANCH   5   6
ENDBRANCH   3   5
ENDBRANCH   1   3
BRANCH   1  15
ATOM     15  C   UNL     1       8.155  -1.280  22.474  0.00  0.00    +0.023 C 
BRANCH  15  16
ATOM     16  C   UNL     1       8.488  -2.773  22.394  0.00  0.00    +0.036 C 
BRANCH  16  17
ATOM     17  C   UNL     1       7.210  -3.573  22.499  0.00  0.00    -0.047 A 
ATOM     18  C   UNL     1       7.217  -4.958  22.300  0.00  0.00    +0.004 A 
ATOM     19  C   UNL     1       6.057  -5.708  22.518  0.00  0.00    +0.013 A 
ATOM     20  C   UNL     1       4.874  -5.086  22.940  0.00  0.00    +0.037 A 
ATOM     21  C   UNL     1       4.862  -3.697  23.118  0.00  0.00    +0.013 A 
ATOM     22  C   UNL     1       6.024  -2.950  22.904  0.00  0.00    +0.004 A 
BRANCH  20  23
ATOM     23  C   UNL     1       3.687  -5.952  23.196  0.00  0.00    +0.242 C 
ATOM     24  O   UNL     1       2.577  -5.662  22.763  0.00  0.00    -0.270 OA
ATOM     25  N   UNL     1       3.854  -7.102  23.917  0.00  0.00    -0.325 N 
ATOM     26  H   UNL     1       3.032  -7.679  24.044  0.00  0.00    +0.145 HD
ATOM     27  H   UNL     1       4.732  -7.450  24.266  0.00  0.00    +0.145 HD
ENDBRANCH  20  23
ENDBRANCH  16  17
ENDBRANCH  15  16
ENDBRANCH   1  15
TORSDOF 8
ENDMDL
