MODEL 1
REMARK VINA RESULT:      -6.6      0.000      0.000
REMARK  Name = 
REMARK  2 active torsions:
REMARK  status: ('A' for Active; 'I' for Inactive)
REMARK    1  A    between atoms: N_4  and  C_5
REMARK    2  A    between atoms: C_5  and  C_6
REMARK                            x       y       z     vdW  Elec       q    Type
REMARK                         _______ _______ _______ _____ _____    ______ ____
ROOT
ATOM      1  C   UNL     1       8.785  -2.447  24.267  0.00  0.00    +0.184 C 
ATOM      2  O   UNL     1       9.872  -1.894  23.509  0.00  0.00    -0.340 OA
ATOM      3  C   UNL     1       9.568  -0.496  23.393  0.00  0.00    +0.171 C 
ATOM      4  C   UNL     1       9.740  -0.081  21.928  0.00  0.00    +0.065 C 
ATOM      5  C   UNL     1       9.536   1.420  21.733  0.00  0.00    +0.005 C 
ATOM      6  C   UNL     1      10.454   2.231  22.645  0.00  0.00    +0.000 C 
ATOM      7  C   UNL     1      10.310   1.824  24.109  0.00  0.00    +0.005 C 
ATOM      8  C   UNL     1      10.495   0.319  24.301  0.00  0.00    +0.065 C 
ATOM      9  O   UNL     1       8.203  -0.270  23.795  0.00  0.00    -0.346 OA
ATOM     10  C   UNL     1       7.628  -1.575  23.839  0.00  0.00    +0.198 C 
ENDROOT
BRANCH   1  11
ATOM     11  C   UNL     1       8.535  -3.923  23.956  0.00  0.00    +0.277 C 
BRANCH  11  16
ATOM     12  N   UNL     1       8.125  -5.843  26.979  0.00  0.00    -0.289 N 
ATOM     13  H   UNL     1       7.121  -5.708  27.001  0.00  0.00    +0.255 HD
ATOM     14  H   UNL     1       8.385  -6.797  27.183  0.00  0.00    +0.255 HD
ATOM     15  C   UNL     1       8.657  -5.297  25.865  0.00  0.00    +0.377 C 
ATOM     16  N   UNL     1       7.911  -4.581  25.109  0.00  0.00    -0.111 NA
ATOM     17  N   UNL     1       9.968  -5.586  25.745  0.00  0.00    -0.289 N 
ATOM     18  H   UNL     1      10.411  -5.396  24.858  0.00  0.00    +0.255 HD
ATOM     19  H   UNL     1      10.319  -6.401  26.223  0.00  0.00    +0.255 HD
ENDBRANCH  11  16
ENDBRANCH   1  11
TORSDOF 2
ENDMDL
MODEL 2
REMARK VINA RESULT:      -6.3      0.736      1.059
REMARK  Name = 
REMARK  2 active torsions:
REMARK  status: ('A' for Active; 'I' for Inactive)
REMARK    1  A    between atoms: N_4  and  C_5
REMARK    2  A    between atoms: C_5  and  C_6
REMARK                            x       y       z     vdW  Elec       q    Type
REMARK                         _______ _______ _______ _____ _____    ______ ____
ROOT
ATOM      1  C   UNL     1       9.192  -2.641  24.585  0.00  0.00    +0.184 C 
ATOM      2  O   UNL     1      10.099  -2.111  23.607  0.00  0.00    -0.340 OA
ATOM      3  C   UNL     1       9.644  -0.771  23.367  0.00  0.00    +0.171 C 
ATOM      4  C   UNL     1       9.564  -0.548  21.853  0.00  0.00    +0.065 C 
ATOM      5  C   UNL     1       9.186   0.891  21.509  0.00  0.00    +0.005 C 
ATOM      6  C   UNL     1      10.138   1.890  22.161  0.00  0.00    +0.000 C 
ATOM      7  C   UNL     1      10.245   1.677  23.669  0.00  0.00    +0.005 C 
ATOM      8  C   UNL     1      10.604   0.233  24.015  0.00  0.00    +0.065 C 
ATOM      9  O   UNL     1       8.335  -0.603  23.943  0.00  0.00    -0.346 OA
ATOM     10  C   UNL     1       7.905  -1.931  24.236  0.00  0.00    +0.198 C 
ENDROOT
BRANCH   1  11
ATOM     11  C   UNL     1       9.049  -4.161  24.501  0.00  0.00    +0.277 C 
BRANCH  11  16
ATOM     12  N   UNL     1       7.706  -5.875  27.373  0.00  0.00    -0.289 N 
ATOM     13  H   UNL     1       8.529  -5.701  27.938  0.00  0.00    +0.255 HD
ATOM     14  H   UNL     1       6.852  -5.714  27.886  0.00  0.00    +0.255 HD
ATOM     15  C   UNL     1       7.814  -5.271  26.172  0.00  0.00    +0.377 C 
ATOM     16  N   UNL     1       8.929  -4.730  25.847  0.00  0.00    -0.111 NA
ATOM     17  N   UNL     1       6.674  -5.371  25.459  0.00  0.00    -0.289 N 
ATOM     18  H   UNL     1       6.581  -4.790  24.639  0.00  0.00    +0.255 HD
ATOM     19  H   UNL     1       5.814  -5.529  25.961  0.00  0.00    +0.255 HD
ENDBRANCH  11  16
ENDBRANCH   1  11
TORSDOF 2
ENDMDL
MODEL 3
REMARK VINA RESULT:      -6.1      1.010      1.982
REMARK  Name = 
REMARK  2 active torsions:
REMARK  status: ('A' for Active; 'I' for Inactive)
REMARK    1  A    between atoms: N_4  and  C_5
REMARK    2  A    between atoms: C_5  and  C_6
REMARK                            x       y       z     vdW  Elec       q    Type
REMARK                         _______ _______ _______ _____ _____    ______ ____
ROOT
ATOM      1  C   UNL     1       8.555  -2.332  23.184  0.00  0.00    +0.184 C 
ATOM      2  O   UNL     1       8.214  -1.052  23.735  0.00  0.00    -0.340 OA
ATOM      3  C   UNL     1       9.278  -0.178  23.327  0.00  0.00    +0.171 C 
ATOM      4  C   UNL     1       9.754   0.613  24.551  0.00  0.00    +0.065 C 
ATOM      5  C   UNL     1      10.818   1.644  24.183  0.00  0.00    +0.005 C 
ATOM      6  C   UNL     1      10.331   2.580  23.080  0.00  0.00    +0.000 C 
ATOM      7  C   UNL     1       9.839   1.813  21.855  0.00  0.00    +0.005 C 
ATOM      8  C   UNL     1       8.788   0.766  22.225  0.00  0.00    +0.065 C 
ATOM      9  O   UNL     1      10.371  -0.966  22.815  0.00  0.00    -0.346 OA
ATOM     10  C   UNL     1      10.065  -2.299  23.220  0.00  0.00    +0.198 C 
ENDROOT
BRANCH   1  11
ATOM     11  C   UNL     1       7.989  -3.499  23.994  0.00  0.00    +0.277 C 
BRANCH  11  16
ATOM     12  N   UNL     1      10.176  -5.789  25.716  0.00  0.00    -0.289 N 
ATOM     13  H   UNL     1      10.661  -6.059  24.868  0.00  0.00    +0.255 HD
ATOM     14  H   UNL     1      10.812  -5.628  26.483  0.00  0.00    +0.255 HD
ATOM     15  C   UNL     1       9.275  -4.816  25.463  0.00  0.00    +0.377 C 
ATOM     16  N   UNL     1       9.038  -4.492  24.247  0.00  0.00    -0.111 NA
ATOM     17  N   UNL     1       8.719  -4.345  26.597  0.00  0.00    -0.289 N 
ATOM     18  H   UNL     1       8.186  -3.489  26.537  0.00  0.00    +0.255 HD
ATOM     19  H   UNL     1       9.229  -4.462  27.459  0.00  0.00    +0.255 HD
ENDBRANCH  11  16
ENDBRANCH   1  11
TORSDOF 2
ENDMDL
MODEL 4
REMARK VINA RESULT:      -6.0      3.848      6.242
REMARK  Name = 
REMARK  2 active torsions:
REMARK  status: ('A' for Active; 'I' for Inactive)
REMARK    1  A    between atoms: N_4  and  C_5
REMARK    2  A    between atoms: C_5  and  C_6
REMARK                            x       y       z     vdW  Elec       q    Type
REMARK                         _______ _______ _______ _____ _____    ______ ____
ROOT
ATOM      1  C   UNL     1       8.634  -2.051  22.884  0.00  0.00    +0.184 C 
ATOM      2  O   UNL     1       7.797  -2.676  21.901  0.00  0.00    -0.340 OA
ATOM      3  C   UNL     1       7.032  -3.648  22.630  0.00  0.00    +0.171 C 
ATOM      4  C   UNL     1       7.092  -4.980  21.875  0.00  0.00    +0.065 C 
ATOM      5  C   UNL     1       6.216  -6.046  22.529  0.00  0.00    +0.005 C 
ATOM      6  C   UNL     1       4.775  -5.567  22.684  0.00  0.00    +0.000 C 
ATOM      7  C   UNL     1       4.692  -4.234  23.422  0.00  0.00    +0.005 C 
ATOM      8  C   UNL     1       5.583  -3.172  22.778  0.00  0.00    +0.065 C 
ATOM      9  O   UNL     1       7.604  -3.818  23.941  0.00  0.00    -0.346 OA
ATOM     10  C   UNL     1       8.879  -3.182  23.855  0.00  0.00    +0.198 C 
ENDROOT
BRANCH   1  11
ATOM     11  C   UNL     1       9.938  -1.509  22.297  0.00  0.00    +0.277 C 
BRANCH  11  16
ATOM     12  N   UNL     1       9.783   2.000  21.486  0.00  0.00    -0.289 N 
ATOM     13  H   UNL     1       9.350   1.835  20.584  0.00  0.00    +0.255 HD
ATOM     14  H   UNL     1       9.349   2.763  21.983  0.00  0.00    +0.255 HD
ATOM     15  C   UNL     1       9.931   0.843  22.164  0.00  0.00    +0.377 C 
ATOM     16  N   UNL     1       9.681  -0.262  21.568  0.00  0.00    -0.111 NA
ATOM     17  N   UNL     1      10.376   1.055  23.419  0.00  0.00    -0.289 N 
ATOM     18  H   UNL     1      10.331   0.283  24.069  0.00  0.00    +0.255 HD
ATOM     19  H   UNL     1      10.214   1.960  23.832  0.00  0.00    +0.255 HD
ENDBRANCH  11  16
ENDBRANCH   1  11
TORSDOF 2
ENDMDL
MODEL 5
REMARK VINA RESULT:      -5.8      2.186      2.580
REMARK  Name = 
REMARK  2 active torsions:
REMARK  status: ('A' for Active; 'I' for Inactive)
REMARK    1  A    between atoms: N_4  and  C_5
REMARK    2  A    between atoms: C_5  and  C_6
REMARK                            x       y       z     vdW  Elec       q    Type
REMARK                         _______ _______ _______ _____ _____    ______ ____
ROOT
ATOM      1  C   UNL     1       7.826  -2.808  23.029  0.00  0.00    +0.184 C 
ATOM      2  O   UNL     1       9.034  -2.271  22.472  0.00  0.00    -0.340 OA
ATOM      3  C   UNL     1       9.001  -0.872  22.794  0.00  0.00    +0.171 C 
ATOM      4  C   UNL     1       9.325  -0.073  21.527  0.00  0.00    +0.065 C 
ATOM      5  C   UNL     1       9.412   1.426  21.806  0.00  0.00    +0.005 C 
ATOM      6  C   UNL     1      10.414   1.729  22.917  0.00  0.00    +0.000 C 
ATOM      7  C   UNL     1      10.119   0.933  24.185  0.00  0.00    +0.005 C 
ATOM      8  C   UNL     1      10.012  -0.565  23.904  0.00  0.00    +0.065 C 
ATOM      9  O   UNL     1       7.682  -0.521  23.254  0.00  0.00    -0.346 OA
ATOM     10  C   UNL     1       6.874  -1.642  22.898  0.00  0.00    +0.198 C 
ENDROOT
BRANCH   1  11
ATOM     11  C   UNL     1       7.324  -4.043  22.280  0.00  0.00    +0.277 C 
BRANCH  11  16
ATOM     12  N   UNL     1       5.017  -6.579  23.393  0.00  0.00    -0.289 N 
ATOM     13  H   UNL     1       4.927  -6.177  24.319  0.00  0.00    +0.255 HD
ATOM     14  H   UNL     1       4.126  -6.860  23.012  0.00  0.00    +0.255 HD
ATOM     15  C   UNL     1       5.794  -5.804  22.608  0.00  0.00    +0.377 C 
ATOM     16  N   UNL     1       6.415  -4.814  23.134  0.00  0.00    -0.111 NA
ATOM     17  N   UNL     1       5.814  -6.245  21.335  0.00  0.00    -0.289 N 
ATOM     18  H   UNL     1       6.199  -5.631  20.631  0.00  0.00    +0.255 HD
ATOM     19  H   UNL     1       5.044  -6.814  21.019  0.00  0.00    +0.255 HD
ENDBRANCH  11  16
ENDBRANCH   1  11
TORSDOF 2
ENDMDL
MODEL 6
REMARK VINA RESULT:      -5.6      3.454      5.842
REMARK  Name = 
REMARK  2 active torsions:
REMARK  status: ('A' for Active; 'I' for Inactive)
REMARK    1  A    between atoms: N_4  and  C_5
REMARK    2  A    between atoms: C_5  and  C_6
REMARK                            x       y       z     vdW  Elec       q    Type
REMARK                         _______ _______ _______ _____ _____    ______ ____
ROOT
ATOM      1  C   UNL     1       9.262  -1.964  22.498  0.00  0.00    +0.184 C 
ATOM      2  O   UNL     1       9.691  -2.125  23.858  0.00  0.00    -0.340 OA
ATOM      3  C   UNL     1       8.663  -2.912  24.479  0.00  0.00    +0.171 C 
ATOM      4  C   UNL     1       8.273  -2.246  25.802  0.00  0.00    +0.065 C 
ATOM      5  C   UNL     1       7.255  -3.077  26.580  0.00  0.00    +0.005 C 
ATOM      6  C   UNL     1       7.754  -4.501  26.809  0.00  0.00    +0.000 C 
ATOM      7  C   UNL     1       8.162  -5.180  25.504  0.00  0.00    +0.005 C 
ATOM      8  C   UNL     1       9.167  -4.340  24.716  0.00  0.00    +0.065 C 
ATOM      9  O   UNL     1       7.513  -2.961  23.613  0.00  0.00    -0.346 OA
ATOM     10  C   UNL     1       7.759  -1.945  22.642  0.00  0.00    +0.198 C 
ENDROOT
BRANCH   1  11
ATOM     11  C   UNL     1       9.792  -0.680  21.857  0.00  0.00    +0.277 C 
BRANCH  11  16
ATOM     12  N   UNL     1      10.468   2.390  23.621  0.00  0.00    -0.289 N 
ATOM     13  H   UNL     1      10.878   1.914  24.416  0.00  0.00    +0.255 HD
ATOM     14  H   UNL     1      11.007   3.195  23.341  0.00  0.00    +0.255 HD
ATOM     15  C   UNL     1      10.146   1.509  22.650  0.00  0.00    +0.377 C 
ATOM     16  N   UNL     1      10.235   0.255  22.896  0.00  0.00    -0.111 NA
ATOM     17  N   UNL     1       9.730   2.133  21.530  0.00  0.00    -0.289 N 
ATOM     18  H   UNL     1       9.656   1.582  20.687  0.00  0.00    +0.255 HD
ATOM     19  H   UNL     1      10.021   3.087  21.383  0.00  0.00    +0.255 HD
ENDBRANCH  11  16
ENDBRANCH   1  11
TORSDOF 2
ENDMDL
MODEL 7
REMARK VINA RESULT:      -5.6      3.798      6.379
REMARK  Name = 
REMARK  2 active torsions:
REMARK  status: ('A' for Active; 'I' for Inactive)
REMARK    1  A    between atoms: N_4  and  C_5
REMARK    2  A    between atoms: C_5  and  C_6
REMARK                            x       y       z     vdW  Elec       q    Type
REMARK                         _______ _______ _______ _____ _____    ______ ____
ROOT
ATOM      1  C   UNL     1       8.521  -2.202  22.346  0.00  0.00    +0.184 C 
ATOM      2  O   UNL     1       8.553  -3.455  23.047  0.00  0.00    -0.340 OA
ATOM      3  C   UNL     1       7.200  -3.933  23.012  0.00  0.00    +0.171 C 
ATOM      4  C   UNL     1       6.803  -4.371  24.426  0.00  0.00    +0.065 C 
ATOM      5  C   UNL     1       5.408  -4.991  24.459  0.00  0.00    +0.005 C 
ATOM      6  C   UNL     1       5.288  -6.149  23.472  0.00  0.00    +0.000 C 
ATOM      7  C   UNL     1       5.693  -5.739  22.058  0.00  0.00    +0.005 C 
ATOM      8  C   UNL     1       7.081  -5.101  22.027  0.00  0.00    +0.065 C 
ATOM      9  O   UNL     1       6.330  -2.868  22.581  0.00  0.00    -0.346 OA
ATOM     10  C   UNL     1       7.136  -1.695  22.673  0.00  0.00    +0.198 C 
ENDROOT
BRANCH   1  11
ATOM     11  C   UNL     1       9.610  -1.234  22.811  0.00  0.00    +0.277 C 
BRANCH  11  16
ATOM     12  N   UNL     1      10.101   2.137  21.631  0.00  0.00    -0.289 N 
ATOM     13  H   UNL     1       9.792   1.917  20.690  0.00  0.00    +0.255 HD
ATOM     14  H   UNL     1       9.712   3.005  21.965  0.00  0.00    +0.255 HD
ATOM     15  C   UNL     1       9.970   1.064  22.439  0.00  0.00    +0.377 C 
ATOM     16  N   UNL     1       9.655  -0.066  21.925  0.00  0.00    -0.111 NA
ATOM     17  N   UNL     1      10.241   1.372  23.723  0.00  0.00    -0.289 N 
ATOM     18  H   UNL     1       9.984   0.700  24.431  0.00  0.00    +0.255 HD
ATOM     19  H   UNL     1      10.153   2.335  24.008  0.00  0.00    +0.255 HD
ENDBRANCH  11  16
ENDBRANCH   1  11
TORSDOF 2
ENDMDL
MODEL 8
REMARK VINA RESULT:      -5.6      1.995      2.803
REMARK  Name = 
REMARK  2 active torsions:
REMARK  status: ('A' for Active; 'I' for Inactive)
REMARK    1  A    between atoms: N_4  and  C_5
REMARK    2  A    between atoms: C_5  and  C_6
REMARK                            x       y       z     vdW  Elec       q    Type
REMARK                         _______ _______ _______ _____ _____    ______ ____
ROOT
ATOM      1  C   UNL     1       8.323  -2.444  22.937  0.00  0.00    +0.184 C 
ATOM      2  O   UNL     1       7.845  -1.138  23.291  0.00  0.00    -0.340 OA
ATOM      3  C   UNL     1       8.999  -0.287  23.214  0.00  0.00    +0.171 C 
ATOM      4  C   UNL     1       9.066   0.560  24.489  0.00  0.00    +0.065 C 
ATOM      5  C   UNL     1      10.210   1.570  24.443  0.00  0.00    +0.005 C 
ATOM      6  C   UNL     1      10.126   2.453  23.201  0.00  0.00    +0.000 C 
ATOM      7  C   UNL     1      10.044   1.630  21.918  0.00  0.00    +0.005 C 
ATOM      8  C   UNL     1       8.911   0.606  21.971  0.00  0.00    +0.065 C 
ATOM      9  O   UNL     1      10.184  -1.101  23.121  0.00  0.00    -0.346 OA
ATOM     10  C   UNL     1       9.740  -2.413  23.462  0.00  0.00    +0.198 C 
ENDROOT
BRANCH   1  11
ATOM     11  C   UNL     1       7.503  -3.568  23.570  0.00  0.00    +0.277 C 
BRANCH  11  16
ATOM     12  N   UNL     1       6.260  -6.562  21.993  0.00  0.00    -0.289 N 
ATOM     13  H   UNL     1       6.928  -6.511  21.232  0.00  0.00    +0.255 HD
ATOM     14  H   UNL     1       6.169  -7.498  22.357  0.00  0.00    +0.255 HD
ATOM     15  C   UNL     1       6.485  -5.582  22.893  0.00  0.00    +0.377 C 
ATOM     16  N   UNL     1       7.343  -4.672  22.617  0.00  0.00    -0.111 NA
ATOM     17  N   UNL     1       5.700  -5.715  23.981  0.00  0.00    -0.289 N 
ATOM     18  H   UNL     1       5.925  -5.157  24.792  0.00  0.00    +0.255 HD
ATOM     19  H   UNL     1       5.331  -6.629  24.190  0.00  0.00    +0.255 HD
ENDBRANCH  11  16
ENDBRANCH   1  11
TORSDOF 2
ENDMDL
MODEL 9
REMARK VINA RESULT:      -5.5      1.351      2.224
REMARK  Name = 
REMARK  2 active torsions:
REMARK  status: ('A' for Active; 'I' for Inactive)
REMARK    1  A    between atoms: N_4  and  C_5
REMARK    2  A    between atoms: C_5  and  C_6
REMARK                            x       y       z     vdW  Elec       q    Type
REMARK                         _______ _______ _______ _____ _____    ______ ____
ROOT
ATOM      1  C   UNL     1       8.038  -2.636  24.807  0.00  0.00    +0.184 C 
ATOM      2  O   UNL     1       7.928  -1.205  24.796  0.00  0.00    -0.340 OA
ATOM      3  C   UNL     1       8.903  -0.766  23.838  0.00  0.00    +0.171 C 
ATOM      4  C   UNL     1       9.724   0.367  24.462  0.00  0.00    +0.065 C 
ATOM      5  C   UNL     1      10.719   0.964  23.469  0.00  0.00    +0.005 C 
ATOM      6  C   UNL     1      10.023   1.429  22.192  0.00  0.00    +0.000 C 
ATOM      7  C   UNL     1       9.188   0.318  21.560  0.00  0.00    +0.005 C 
ATOM      8  C   UNL     1       8.205  -0.292  22.559  0.00  0.00    +0.065 C 
ATOM      9  O   UNL     1       9.778  -1.864  23.513  0.00  0.00    -0.346 OA
ATOM     10  C   UNL     1       9.506  -2.841  24.516  0.00  0.00    +0.198 C 
ENDROOT
BRANCH   1  11
ATOM     11  C   UNL     1       7.628  -3.253  26.145  0.00  0.00    +0.277 C 
BRANCH  11  16
ATOM     12  N   UNL     1       5.832  -6.371  26.357  0.00  0.00    -0.289 N 
ATOM     13  H   UNL     1       5.104  -6.064  25.722  0.00  0.00    +0.255 HD
ATOM     14  H   UNL     1       6.138  -7.312  26.158  0.00  0.00    +0.255 HD
ATOM     15  C   UNL     1       6.796  -5.432  26.468  0.00  0.00    +0.377 C 
ATOM     16  N   UNL     1       6.608  -4.284  25.932  0.00  0.00    -0.111 NA
ATOM     17  N   UNL     1       7.841  -5.875  27.195  0.00  0.00    -0.289 N 
ATOM     18  H   UNL     1       8.692  -5.331  27.172  0.00  0.00    +0.255 HD
ATOM     19  H   UNL     1       7.982  -6.871  27.264  0.00  0.00    +0.255 HD
ENDBRANCH  11  16
ENDBRANCH   1  11
TORSDOF 2
ENDMDL
