MODEL 1
REMARK VINA RESULT:      -7.5      0.000      0.000
REMARK  Name = 
REMARK  9 active torsions:
REMARK  status: ('A' for Active; 'I' for Inactive)
REMARK    1  A    between atoms: C_2  and  O_30
REMARK    2  A    between atoms: C_14  and  O_15
REMARK    3  A    between atoms: O_15  and  C_16
REMARK    4  A    between atoms: C_17  and  O_18
REMARK    5  A    between atoms: O_18  and  S_19
REMARK    6  A    between atoms: S_19  and  N_20
REMARK    7  A    between atoms: C_28  and  C_29
REMARK    8  A    between atoms: O_30  and  S_31
REMARK    9  A    between atoms: S_31  and  N_32
REMARK                            x       y       z     vdW  Elec       q    Type
REMARK                         _______ _______ _______ _____ _____    ______ ____
ROOT
ATOM      1  C   UNL     1       9.322   2.390  23.125  0.00  0.00    +0.157 C 
ATOM      2  C   UNL     1       9.605   0.878  22.471  0.00  0.00    -0.000 C 
ATOM      3  C   UNL     1       8.521   1.097  21.360  0.00  0.00    +0.014 C 
ATOM      4  C   UNL     1      10.005   0.151  23.850  0.00  0.00    +0.001 C 
ATOM      5  C   UNL     1       9.046  -0.964  24.179  0.00  0.00    +0.000 C 
ATOM      6  C   UNL     1       8.992  -2.102  23.150  0.00  0.00    +0.023 C 
ATOM      7  C   UNL     1       9.125  -1.542  21.715  0.00  0.00    +0.009 C 
ATOM      8  C   UNL     1       7.737  -2.920  23.524  0.00  0.00    -0.037 A 
ATOM      9  C   UNL     1       7.045  -3.709  22.602  0.00  0.00    +0.053 A 
ATOM     10  C   UNL     1       5.869  -4.404  22.967  0.00  0.00    +0.165 A 
ATOM     11  C   UNL     1       5.361  -4.298  24.275  0.00  0.00    +0.199 A 
ATOM     12  C   UNL     1       6.054  -3.528  25.198  0.00  0.00    +0.056 A 
ATOM     13  C   UNL     1       7.249  -2.893  24.856  0.00  0.00    -0.040 A 
ATOM     14  C   UNL     1       7.924  -2.134  25.973  0.00  0.00    +0.036 C 
ATOM     15  C   UNL     1       9.282  -1.639  25.538  0.00  0.00    +0.009 C 
ATOM     16  C   UNL     1      10.095   1.198  24.958  0.00  0.00    +0.007 C 
ATOM     17  C   UNL     1      10.203  -0.319  21.604  0.00  0.00    +0.010 C 
ATOM     18  C   UNL     1       8.978   2.088  24.589  0.00  0.00    +0.035 C 
ENDROOT
BRANCH  10  19
ATOM     19  O   UNL     1       5.157  -5.201  22.100  0.00  0.00    -0.491 OA
ATOM     20  C   UNL     1       5.927  -5.970  21.180  0.00  0.00    +0.277 C 
ENDBRANCH  10  19
BRANCH   1  21
ATOM     21  O   UNL     1       8.142   3.110  22.638  0.00  0.00    -0.221 OA
BRANCH  21  22
ATOM     22  S   UNL     1       7.756   4.593  23.119  0.00  0.00    +0.149 S 
ATOM     23  O   UNL     1       8.949   5.289  23.505  0.00  0.00    -0.130 OA
ATOM     24  O   UNL     1       6.578   4.569  23.963  0.00  0.00    -0.130 OA
BRANCH  22  25
ATOM     25  N   UNL     1       7.260   5.349  21.704  0.00  0.00    -0.183 NA
ATOM     26  H   UNL     1       6.374   4.959  21.389  0.00  0.00    +0.146 HD
ATOM     27  H   UNL     1       7.289   6.359  21.790  0.00  0.00    +0.146 HD
ENDBRANCH  22  25
ENDBRANCH  21  22
ENDBRANCH   1  21
BRANCH  11  28
ATOM     28  O   UNL     1       4.183  -4.946  24.599  0.00  0.00    -0.330 OA
BRANCH  28  29
ATOM     29  S   UNL     1       4.208  -6.427  25.299  0.00  0.00    +0.189 S 
ATOM     30  O   UNL     1       2.952  -6.679  25.975  0.00  0.00    -0.119 OA
ATOM     31  O   UNL     1       5.483  -6.624  25.957  0.00  0.00    -0.119 OA
BRANCH  29  32
ATOM     32  N   UNL     1       4.185  -7.492  24.005  0.00  0.00    -0.174 NA
ATOM     33  H   UNL     1       3.465  -7.246  23.329  0.00  0.00    +0.147 HD
ATOM     34  H   UNL     1       5.113  -7.687  23.645  0.00  0.00    +0.147 HD
ENDBRANCH  29  32
ENDBRANCH  28  29
ENDBRANCH  11  28
TORSDOF 7
ENDMDL
MODEL 2
REMARK VINA RESULT:      -7.4      1.807      2.297
REMARK  Name = 
REMARK  9 active torsions:
REMARK  status: ('A' for Active; 'I' for Inactive)
REMARK    1  A    between atoms: C_2  and  O_30
REMARK    2  A    between atoms: C_14  and  O_15
REMARK    3  A    between atoms: O_15  and  C_16
REMARK    4  A    between atoms: C_17  and  O_18
REMARK    5  A    between atoms: O_18  and  S_19
REMARK    6  A    between atoms: S_19  and  N_20
REMARK    7  A    between atoms: C_28  and  C_29
REMARK    8  A    between atoms: O_30  and  S_31
REMARK    9  A    between atoms: S_31  and  N_32
REMARK                            x       y       z     vdW  Elec       q    Type
REMARK                         _______ _______ _______ _____ _____    ______ ____
ROOT
ATOM      1  C   UNL     1       8.369   3.839  22.985  0.00  0.00    +0.157 C 
ATOM      2  C   UNL     1       8.561   2.327  22.299  0.00  0.00    -0.000 C 
ATOM      3  C   UNL     1       7.049   2.263  21.888  0.00  0.00    +0.014 C 
ATOM      4  C   UNL     1       9.718   1.816  23.295  0.00  0.00    +0.001 C 
ATOM      5  C   UNL     1       9.271   0.611  24.080  0.00  0.00    +0.000 C 
ATOM      6  C   UNL     1       8.921  -0.624  23.236  0.00  0.00    +0.023 C 
ATOM      7  C   UNL     1       8.220  -0.204  21.925  0.00  0.00    +0.009 C 
ATOM      8  C   UNL     1       8.191  -1.578  24.206  0.00  0.00    -0.037 A 
ATOM      9  C   UNL     1       7.290  -2.554  23.774  0.00  0.00    +0.053 A 
ATOM     10  C   UNL     1       6.600  -3.376  24.694  0.00  0.00    +0.165 A 
ATOM     11  C   UNL     1       6.799  -3.211  26.078  0.00  0.00    +0.199 A 
ATOM     12  C   UNL     1       7.705  -2.254  26.511  0.00  0.00    +0.056 A 
ATOM     13  C   UNL     1       8.434  -1.486  25.601  0.00  0.00    -0.040 A 
ATOM     14  C   UNL     1       9.422  -0.521  26.212  0.00  0.00    +0.036 C 
ATOM     15  C   UNL     1      10.268   0.124  25.141  0.00  0.00    +0.009 C 
ATOM     16  C   UNL     1      10.153   2.975  24.189  0.00  0.00    +0.007 C 
ATOM     17  C   UNL     1       8.857   1.149  21.265  0.00  0.00    +0.010 C 
ATOM     18  C   UNL     1       8.859   3.643  24.425  0.00  0.00    +0.035 C 
ENDROOT
BRANCH  10  19
ATOM     19  O   UNL     1       5.711  -4.357  24.320  0.00  0.00    -0.491 OA
ATOM     20  C   UNL     1       6.206  -5.337  23.411  0.00  0.00    +0.277 C 
ENDBRANCH  10  19
BRANCH   1  21
ATOM     21  O   UNL     1       6.995   4.319  23.154  0.00  0.00    -0.221 OA
BRANCH  21  22
ATOM     22  S   UNL     1       6.545   5.827  22.836  0.00  0.00    +0.149 S 
ATOM     23  O   UNL     1       7.066   6.699  23.849  0.00  0.00    -0.130 OA
ATOM     24  O   UNL     1       5.155   5.874  22.428  0.00  0.00    -0.130 OA
BRANCH  22  25
ATOM     25  N   UNL     1       7.415   6.214  21.453  0.00  0.00    -0.183 NA
ATOM     26  H   UNL     1       7.745   7.176  21.501  0.00  0.00    +0.146 HD
ATOM     27  H   UNL     1       8.124   5.517  21.251  0.00  0.00    +0.146 HD
ENDBRANCH  22  25
ENDBRANCH  21  22
ENDBRANCH   1  21
BRANCH  11  28
ATOM     28  O   UNL     1       6.078  -3.992  26.963  0.00  0.00    -0.330 OA
BRANCH  28  29
ATOM     29  S   UNL     1       6.651  -5.446  27.455  0.00  0.00    +0.189 S 
ATOM     30  O   UNL     1       6.474  -5.592  28.885  0.00  0.00    -0.119 OA
ATOM     31  O   UNL     1       7.923  -5.701  26.812  0.00  0.00    -0.119 OA
BRANCH  29  32
ATOM     32  N   UNL     1       5.572  -6.552  26.804  0.00  0.00    -0.174 NA
ATOM     33  H   UNL     1       5.194  -6.230  25.917  0.00  0.00    +0.147 HD
ATOM     34  H   UNL     1       5.921  -7.504  26.843  0.00  0.00    +0.147 HD
ENDBRANCH  29  32
ENDBRANCH  28  29
ENDBRANCH  11  28
TORSDOF 7
ENDMDL
MODEL 3
REMARK VINA RESULT:      -7.0      2.487      8.422
REMARK  Name = 
REMARK  9 active torsions:
REMARK  status: ('A' for Active; 'I' for Inactive)
REMARK    1  A    between atoms: C_2  and  O_30
REMARK    2  A    between atoms: C_14  and  O_15
REMARK    3  A    between atoms: O_15  and  C_16
REMARK    4  A    between atoms: C_17  and  O_18
REMARK    5  A    between atoms: O_18  and  S_19
REMARK    6  A    between atoms: S_19  and  N_20
REMARK    7  A    between atoms: C_28  and  C_29
REMARK    8  A    between atoms: O_30  and  S_31
REMARK    9  A    between atoms: S_31  and  N_32
REMARK                            x       y       z     vdW  Elec       q    Type
REMARK                         _______ _______ _______ _____ _____    ______ ____
ROOT
ATOM      1  C   UNL     1       6.072  -5.807  26.599  0.00  0.00    +0.157 C 
ATOM      2  C   UNL     1       7.486  -5.458  25.778  0.00  0.00    -0.000 C 
ATOM      3  C   UNL     1       8.098  -4.741  27.031  0.00  0.00    +0.014 C 
ATOM      4  C   UNL     1       6.823  -5.306  24.320  0.00  0.00    +0.001 C 
ATOM      5  C   UNL     1       7.011  -3.915  23.775  0.00  0.00    +0.000 C 
ATOM      6  C   UNL     1       8.471  -3.484  23.575  0.00  0.00    +0.023 C 
ATOM      7  C   UNL     1       9.359  -4.038  24.713  0.00  0.00    +0.009 C 
ATOM      8  C   UNL     1       8.411  -1.959  23.344  0.00  0.00    -0.037 A 
ATOM      9  C   UNL     1       9.487  -1.110  23.610  0.00  0.00    +0.053 A 
ATOM     10  C   UNL     1       9.379   0.289  23.436  0.00  0.00    +0.165 A 
ATOM     11  C   UNL     1       8.167   0.857  23.001  0.00  0.00    +0.199 A 
ATOM     12  C   UNL     1       7.100   0.015  22.720  0.00  0.00    +0.056 A 
ATOM     13  C   UNL     1       7.226  -1.370  22.832  0.00  0.00    -0.040 A 
ATOM     14  C   UNL     1       6.003  -2.166  22.443  0.00  0.00    +0.036 C 
ATOM     15  C   UNL     1       6.309  -3.645  22.436  0.00  0.00    +0.009 C 
ATOM     16  C   UNL     1       5.354  -5.718  24.395  0.00  0.00    +0.007 C 
ATOM     17  C   UNL     1       8.953  -5.556  25.160  0.00  0.00    +0.010 C 
ATOM     18  C   UNL     1       4.984  -5.180  25.719  0.00  0.00    +0.035 C 
ENDROOT
BRANCH  10  19
ATOM     19  O   UNL     1      10.411   1.168  23.674  0.00  0.00    -0.491 OA
ATOM     20  C   UNL     1      11.316   0.803  24.713  0.00  0.00    +0.277 C 
ENDBRANCH  10  19
BRANCH   1  21
ATOM     21  O   UNL     1       5.882  -5.152  27.896  0.00  0.00    -0.221 OA
BRANCH  21  22
ATOM     22  S   UNL     1       5.420  -5.938  29.218  0.00  0.00    +0.149 S 
ATOM     23  O   UNL     1       4.018  -5.725  29.428  0.00  0.00    -0.130 OA
ATOM     24  O   UNL     1       6.388  -5.765  30.283  0.00  0.00    -0.130 OA
BRANCH  22  25
ATOM     25  N   UNL     1       5.544  -7.554  28.778  0.00  0.00    -0.183 NA
ATOM     26  H   UNL     1       4.620  -7.945  28.610  0.00  0.00    +0.146 HD
ATOM     27  H   UNL     1       6.219  -7.687  28.032  0.00  0.00    +0.146 HD
ENDBRANCH  22  25
ENDBRANCH  21  22
ENDBRANCH   1  21
BRANCH  11  28
ATOM     28  O   UNL     1       8.066   2.232  22.883  0.00  0.00    -0.330 OA
BRANCH  28  29
ATOM     29  S   UNL     1       7.644   3.153  24.170  0.00  0.00    +0.189 S 
ATOM     30  O   UNL     1       7.324   2.309  25.303  0.00  0.00    -0.119 OA
ATOM     31  O   UNL     1       6.760   4.212  23.732  0.00  0.00    -0.119 OA
BRANCH  29  32
ATOM     32  N   UNL     1       9.075   3.902  24.623  0.00  0.00    -0.174 NA
ATOM     33  H   UNL     1       9.703   3.257  25.095  0.00  0.00    +0.147 HD
ATOM     34  H   UNL     1       9.466   4.473  23.881  0.00  0.00    +0.147 HD
ENDBRANCH  29  32
ENDBRANCH  28  29
ENDBRANCH  11  28
TORSDOF 7
ENDMDL
MODEL 4
REMARK VINA RESULT:      -6.9      2.432      8.391
REMARK  Name = 
REMARK  9 active torsions:
REMARK  status: ('A' for Active; 'I' for Inactive)
REMARK    1  A    between atoms: C_2  and  O_30
REMARK    2  A    between atoms: C_14  and  O_15
REMARK    3  A    between atoms: O_15  and  C_16
REMARK    4  A    between atoms: C_17  and  O_18
REMARK    5  A    between atoms: O_18  and  S_19
REMARK    6  A    between atoms: S_19  and  N_20
REMARK    7  A    between atoms: C_28  and  C_29
REMARK    8  A    between atoms: O_30  and  S_31
REMARK    9  A    between atoms: S_31  and  N_32
REMARK                            x       y       z     vdW  Elec       q    Type
REMARK                         _______ _______ _______ _____ _____    ______ ____
ROOT
ATOM      1  C   UNL     1       7.797  -3.407  23.503  0.00  0.00    +0.157 C 
ATOM      2  C   UNL     1       7.622  -2.542  24.923  0.00  0.00    -0.000 C 
ATOM      3  C   UNL     1       6.091  -2.324  24.662  0.00  0.00    +0.014 C 
ATOM      4  C   UNL     1       9.099  -1.903  24.936  0.00  0.00    +0.001 C 
ATOM      5  C   UNL     1       9.046  -0.400  24.857  0.00  0.00    +0.000 C 
ATOM      6  C   UNL     1       8.323   0.289  26.024  0.00  0.00    +0.023 C 
ATOM      7  C   UNL     1       7.101  -0.545  26.472  0.00  0.00    +0.009 C 
ATOM      8  C   UNL     1       8.110   1.745  25.558  0.00  0.00    -0.037 A 
ATOM      9  C   UNL     1       7.093   2.560  26.063  0.00  0.00    +0.053 A 
ATOM     10  C   UNL     1       6.894   3.872  25.576  0.00  0.00    +0.165 A 
ATOM     11  C   UNL     1       7.716   4.380  24.551  0.00  0.00    +0.199 A 
ATOM     12  C   UNL     1       8.736   3.579  24.059  0.00  0.00    +0.056 A 
ATOM     13  C   UNL     1       8.973   2.308  24.583  0.00  0.00    -0.040 A 
ATOM     14  C   UNL     1      10.149   1.569  23.989  0.00  0.00    +0.036 C 
ATOM     15  C   UNL     1      10.413   0.290  24.746  0.00  0.00    +0.009 C 
ATOM     16  C   UNL     1       9.920  -2.525  23.808  0.00  0.00    +0.007 C 
ATOM     17  C   UNL     1       7.382  -2.154  26.451  0.00  0.00    +0.010 C 
ATOM     18  C   UNL     1       8.896  -2.644  22.753  0.00  0.00    +0.035 C 
ENDROOT
BRANCH  10  19
ATOM     19  O   UNL     1       5.916   4.718  26.046  0.00  0.00    -0.491 OA
ATOM     20  C   UNL     1       4.571   4.335  25.768  0.00  0.00    +0.277 C 
ENDBRANCH  10  19
BRANCH   1  21
ATOM     21  O   UNL     1       6.667  -3.384  22.570  0.00  0.00    -0.221 OA
BRANCH  21  22
ATOM     22  S   UNL     1       6.233  -4.650  21.683  0.00  0.00    +0.149 S 
ATOM     23  O   UNL     1       7.199  -5.696  21.849  0.00  0.00    -0.130 OA
ATOM     24  O   UNL     1       5.779  -4.227  20.373  0.00  0.00    -0.130 OA
BRANCH  22  25
ATOM     25  N   UNL     1       4.854  -5.217  22.457  0.00  0.00    -0.183 NA
ATOM     26  H   UNL     1       4.061  -4.611  22.253  0.00  0.00    +0.146 HD
ATOM     27  H   UNL     1       4.707  -6.205  22.281  0.00  0.00    +0.146 HD
ENDBRANCH  22  25
ENDBRANCH  21  22
ENDBRANCH   1  21
BRANCH  11  28
ATOM     28  O   UNL     1       7.474   5.648  24.055  0.00  0.00    -0.330 OA
BRANCH  28  29
ATOM     29  S   UNL     1       6.464   5.870  22.784  0.00  0.00    +0.189 S 
ATOM     30  O   UNL     1       5.728   7.107  22.945  0.00  0.00    -0.119 OA
ATOM     31  O   UNL     1       5.801   4.621  22.475  0.00  0.00    -0.119 OA
BRANCH  29  32
ATOM     32  N   UNL     1       7.490   6.183  21.496  0.00  0.00    -0.174 NA
ATOM     33  H   UNL     1       7.891   5.328  21.120  0.00  0.00    +0.147 HD
ATOM     34  H   UNL     1       7.093   6.841  20.834  0.00  0.00    +0.147 HD
ENDBRANCH  29  32
ENDBRANCH  28  29
ENDBRANCH  11  28
TORSDOF 7
ENDMDL
MODEL 5
REMARK VINA RESULT:      -6.9      3.265      4.483
REMARK  Name = 
REMARK  9 active torsions:
REMARK  status: ('A' for Active; 'I' for Inactive)
REMARK    1  A    between atoms: C_2  and  O_30
REMARK    2  A    between atoms: C_14  and  O_15
REMARK    3  A    between atoms: O_15  and  C_16
REMARK    4  A    between atoms: C_17  and  O_18
REMARK    5  A    between atoms: O_18  and  S_19
REMARK    6  A    between atoms: S_19  and  N_20
REMARK    7  A    between atoms: C_28  and  C_29
REMARK    8  A    between atoms: O_30  and  S_31
REMARK    9  A    between atoms: S_31  and  N_32
REMARK                            x       y       z     vdW  Elec       q    Type
REMARK                         _______ _______ _______ _____ _____    ______ ____
ROOT
ATOM      1  C   UNL     1       6.765   4.845  24.967  0.00  0.00    +0.157 C 
ATOM      2  C   UNL     1       6.897   4.012  23.524  0.00  0.00    -0.000 C 
ATOM      3  C   UNL     1       5.557   3.241  23.787  0.00  0.00    +0.014 C 
ATOM      4  C   UNL     1       8.504   3.961  23.483  0.00  0.00    +0.001 C 
ATOM      5  C   UNL     1       9.008   2.542  23.518  0.00  0.00    +0.000 C 
ATOM      6  C   UNL     1       8.569   1.665  22.337  0.00  0.00    +0.023 C 
ATOM      7  C   UNL     1       7.119   2.003  21.920  0.00  0.00    +0.009 C 
ATOM      8  C   UNL     1       8.913   0.221  22.760  0.00  0.00    -0.037 A 
ATOM      9  C   UNL     1       8.258  -0.897  22.238  0.00  0.00    +0.053 A 
ATOM     10  C   UNL     1       8.562  -2.203  22.688  0.00  0.00    +0.165 A 
ATOM     11  C   UNL     1       9.529  -2.399  23.692  0.00  0.00    +0.199 A 
ATOM     12  C   UNL     1      10.193  -1.292  24.202  0.00  0.00    +0.056 A 
ATOM     13  C   UNL     1       9.938  -0.009  23.714  0.00  0.00    -0.040 A 
ATOM     14  C   UNL     1      10.771   1.094  24.322  0.00  0.00    +0.036 C 
ATOM     15  C   UNL     1      10.534   2.399  23.601  0.00  0.00    +0.009 C 
ATOM     16  C   UNL     1       9.059   4.812  24.624  0.00  0.00    +0.007 C 
ATOM     17  C   UNL     1       6.791   3.602  21.987  0.00  0.00    +0.010 C 
ATOM     18  C   UNL     1       8.079   4.521  25.688  0.00  0.00    +0.035 C 
ENDROOT
BRANCH  10  19
ATOM     19  O   UNL     1       7.955  -3.337  22.199  0.00  0.00    -0.491 OA
ATOM     20  C   UNL     1       6.531  -3.306  22.135  0.00  0.00    +0.277 C 
ENDBRANCH  10  19
BRANCH   1  21
ATOM     21  O   UNL     1       5.738   4.385  25.905  0.00  0.00    -0.221 OA
BRANCH  21  22
ATOM     22  S   UNL     1       5.224   5.264  27.147  0.00  0.00    +0.149 S 
ATOM     23  O   UNL     1       5.434   6.654  26.861  0.00  0.00    -0.130 OA
ATOM     24  O   UNL     1       5.638   4.670  28.403  0.00  0.00    -0.130 OA
BRANCH  22  25
ATOM     25  N   UNL     1       3.557   5.068  27.105  0.00  0.00    -0.183 NA
ATOM     26  H   UNL     1       3.113   5.905  26.733  0.00  0.00    +0.146 HD
ATOM     27  H   UNL     1       3.294   4.196  26.657  0.00  0.00    +0.146 HD
ENDBRANCH  22  25
ENDBRANCH  21  22
ENDBRANCH   1  21
BRANCH  11  28
ATOM     28  O   UNL     1       9.778  -3.679  24.153  0.00  0.00    -0.330 OA
BRANCH  28  29
ATOM     29  S   UNL     1       8.937  -4.290  25.419  0.00  0.00    +0.189 S 
ATOM     30  O   UNL     1       7.791  -5.036  24.941  0.00  0.00    -0.119 OA
ATOM     31  O   UNL     1       8.815  -3.278  26.447  0.00  0.00    -0.119 OA
BRANCH  29  32
ATOM     32  N   UNL     1       9.947  -5.471  26.048  0.00  0.00    -0.174 NA
ATOM     33  H   UNL     1       9.545  -5.908  26.873  0.00  0.00    +0.147 HD
ATOM     34  H   UNL     1      10.320  -6.085  25.332  0.00  0.00    +0.147 HD
ENDBRANCH  29  32
ENDBRANCH  28  29
ENDBRANCH  11  28
TORSDOF 7
ENDMDL
MODEL 6
REMARK VINA RESULT:      -6.7      1.322      8.368
REMARK  Name = 
REMARK  9 active torsions:
REMARK  status: ('A' for Active; 'I' for Inactive)
REMARK    1  A    between atoms: C_2  and  O_30
REMARK    2  A    between atoms: C_14  and  O_15
REMARK    3  A    between atoms: O_15  and  C_16
REMARK    4  A    between atoms: C_17  and  O_18
REMARK    5  A    between atoms: O_18  and  S_19
REMARK    6  A    between atoms: S_19  and  N_20
REMARK    7  A    between atoms: C_28  and  C_29
REMARK    8  A    between atoms: O_30  and  S_31
REMARK    9  A    between atoms: S_31  and  N_32
REMARK                            x       y       z     vdW  Elec       q    Type
REMARK                         _______ _______ _______ _____ _____    ______ ____
ROOT
ATOM      1  C   UNL     1       6.001  -4.961  24.183  0.00  0.00    +0.157 C 
ATOM      2  C   UNL     1       7.018  -4.109  25.199  0.00  0.00    -0.000 C 
ATOM      3  C   UNL     1       5.807  -3.419  25.918  0.00  0.00    +0.014 C 
ATOM      4  C   UNL     1       8.240  -3.963  24.162  0.00  0.00    +0.001 C 
ATOM      5  C   UNL     1       8.521  -2.517  23.847  0.00  0.00    +0.000 C 
ATOM      6  C   UNL     1       8.937  -1.657  25.049  0.00  0.00    +0.023 C 
ATOM      7  C   UNL     1       8.151  -2.075  26.313  0.00  0.00    +0.009 C 
ATOM      8  C   UNL     1       8.839  -0.199  24.552  0.00  0.00    -0.037 A 
ATOM      9  C   UNL     1       8.643   0.884  25.412  0.00  0.00    +0.053 A 
ATOM     10  C   UNL     1       8.506   2.201  24.917  0.00  0.00    +0.165 A 
ATOM     11  C   UNL     1       8.548   2.444  23.531  0.00  0.00    +0.199 A 
ATOM     12  C   UNL     1       8.758   1.373  22.673  0.00  0.00    +0.056 A 
ATOM     13  C   UNL     1       8.957   0.082  23.166  0.00  0.00    -0.040 A 
ATOM     14  C   UNL     1       9.227  -0.976  22.123  0.00  0.00    +0.036 C 
ATOM     15  C   UNL     1       9.596  -2.286  22.776  0.00  0.00    +0.009 C 
ATOM     16  C   UNL     1       7.936  -4.790  22.915  0.00  0.00    +0.007 C 
ATOM     17  C   UNL     1       7.942  -3.692  26.430  0.00  0.00    +0.010 C 
ATOM     18  C   UNL     1       6.484  -4.567  22.781  0.00  0.00    +0.035 C 
ENDROOT
BRANCH  10  19
ATOM     19  O   UNL     1       8.322   3.301  25.722  0.00  0.00    -0.491 OA
ATOM     20  C   UNL     1       7.279   3.203  26.688  0.00  0.00    +0.277 C 
ENDBRANCH  10  19
BRANCH   1  21
ATOM     21  O   UNL     1       4.588  -4.570  24.180  0.00  0.00    -0.221 OA
BRANCH  21  22
ATOM     22  S   UNL     1       3.385  -5.625  24.048  0.00  0.00    +0.149 S 
ATOM     23  O   UNL     1       2.815  -5.530  22.736  0.00  0.00    -0.130 OA
ATOM     24  O   UNL     1       2.563  -5.618  25.242  0.00  0.00    -0.130 OA
BRANCH  22  25
ATOM     25  N   UNL     1       4.163  -7.114  24.068  0.00  0.00    -0.183 NA
ATOM     26  H   UNL     1       5.147  -6.994  24.302  0.00  0.00    +0.146 HD
ATOM     27  H   UNL     1       3.658  -7.791  24.629  0.00  0.00    +0.146 HD
ENDBRANCH  22  25
ENDBRANCH  21  22
ENDBRANCH   1  21
BRANCH  11  28
ATOM     28  O   UNL     1       8.363   3.732  23.063  0.00  0.00    -0.330 OA
BRANCH  28  29
ATOM     29  S   UNL     1       6.868   4.269  22.660  0.00  0.00    +0.189 S 
ATOM     30  O   UNL     1       6.252   4.923  23.796  0.00  0.00    -0.119 OA
ATOM     31  O   UNL     1       6.180   3.246  21.900  0.00  0.00    -0.119 OA
BRANCH  29  32
ATOM     32  N   UNL     1       7.161   5.525  21.588  0.00  0.00    -0.174 NA
ATOM     33  H   UNL     1       7.780   6.224  21.989  0.00  0.00    +0.147 HD
ATOM     34  H   UNL     1       7.375   5.195  20.653  0.00  0.00    +0.147 HD
ENDBRANCH  29  32
ENDBRANCH  28  29
ENDBRANCH  11  28
TORSDOF 7
ENDMDL
MODEL 7
REMARK VINA RESULT:      -6.7      3.215      7.815
REMARK  Name = 
REMARK  9 active torsions:
REMARK  status: ('A' for Active; 'I' for Inactive)
REMARK    1  A    between atoms: C_2  and  O_30
REMARK    2  A    between atoms: C_14  and  O_15
REMARK    3  A    between atoms: O_15  and  C_16
REMARK    4  A    between atoms: C_17  and  O_18
REMARK    5  A    between atoms: O_18  and  S_19
REMARK    6  A    between atoms: S_19  and  N_20
REMARK    7  A    between atoms: C_28  and  C_29
REMARK    8  A    between atoms: O_30  and  S_31
REMARK    9  A    between atoms: S_31  and  N_32
REMARK                            x       y       z     vdW  Elec       q    Type
REMARK                         _______ _______ _______ _____ _____    ______ ____
ROOT
ATOM      1  C   UNL     1       9.386  -2.604  23.701  0.00  0.00    +0.157 C 
ATOM      2  C   UNL     1       9.688  -1.120  24.408  0.00  0.00    -0.000 C 
ATOM      3  C   UNL     1       8.736  -1.441  25.612  0.00  0.00    +0.014 C 
ATOM      4  C   UNL     1       9.915  -0.304  23.040  0.00  0.00    +0.001 C 
ATOM      5  C   UNL     1       8.892   0.789  22.878  0.00  0.00    +0.000 C 
ATOM      6  C   UNL     1       8.910   1.867  23.972  0.00  0.00    +0.023 C 
ATOM      7  C   UNL     1       9.213   1.236  25.350  0.00  0.00    +0.009 C 
ATOM      8  C   UNL     1       7.597   2.656  23.779  0.00  0.00    -0.037 A 
ATOM      9  C   UNL     1       6.981   3.366  24.812  0.00  0.00    +0.053 A 
ATOM     10  C   UNL     1       5.751   4.034  24.613  0.00  0.00    +0.165 A 
ATOM     11  C   UNL     1       5.111   3.980  23.360  0.00  0.00    +0.199 A 
ATOM     12  C   UNL     1       5.727   3.289  22.327  0.00  0.00    +0.056 A 
ATOM     13  C   UNL     1       6.971   2.682  22.505  0.00  0.00    -0.040 A 
ATOM     14  C   UNL     1       7.547   2.011  21.281  0.00  0.00    +0.036 C 
ATOM     15  C   UNL     1       8.960   1.546  21.544  0.00  0.00    +0.009 C 
ATOM     16  C   UNL     1       9.922  -1.285  21.870  0.00  0.00    +0.007 C 
ATOM     17  C   UNL     1      10.336   0.050  25.277  0.00  0.00    +0.010 C 
ATOM     18  C   UNL     1       8.879  -2.236  22.301  0.00  0.00    +0.035 C 
ENDROOT
BRANCH  10  19
ATOM     19  O   UNL     1       5.110   4.755  25.593  0.00  0.00    -0.491 OA
ATOM     20  C   UNL     1       4.657   4.012  26.722  0.00  0.00    +0.277 C 
ENDBRANCH  10  19
BRANCH   1  21
ATOM     21  O   UNL     1       8.288  -3.394  24.265  0.00  0.00    -0.221 OA
BRANCH  21  22
ATOM     22  S   UNL     1       8.371  -4.983  24.484  0.00  0.00    +0.149 S 
ATOM     23  O   UNL     1       8.202  -5.643  23.223  0.00  0.00    -0.130 OA
ATOM     24  O   UNL     1       7.624  -5.378  25.662  0.00  0.00    -0.130 OA
BRANCH  22  25
ATOM     25  N   UNL     1       9.981  -5.240  24.887  0.00  0.00    -0.183 NA
ATOM     26  H   UNL     1      10.047  -5.764  25.758  0.00  0.00    +0.146 HD
ATOM     27  H   UNL     1      10.506  -5.620  24.106  0.00  0.00    +0.146 HD
ENDBRANCH  22  25
ENDBRANCH  21  22
ENDBRANCH   1  21
BRANCH  11  28
ATOM     28  O   UNL     1       3.885   4.599  23.199  0.00  0.00    -0.330 OA
BRANCH  28  29
ATOM     29  S   UNL     1       2.501   3.722  23.182  0.00  0.00    +0.189 S 
ATOM     30  O   UNL     1       1.356   4.602  23.076  0.00  0.00    -0.119 OA
ATOM     31  O   UNL     1       2.578   2.686  24.190  0.00  0.00    -0.119 OA
BRANCH  29  32
ATOM     32  N   UNL     1       2.535   2.934  21.703  0.00  0.00    -0.174 NA
ATOM     33  H   UNL     1       3.067   3.455  21.012  0.00  0.00    +0.147 HD
ATOM     34  H   UNL     1       2.736   1.943  21.795  0.00  0.00    +0.147 HD
ENDBRANCH  29  32
ENDBRANCH  28  29
ENDBRANCH  11  28
TORSDOF 7
ENDMDL
MODEL 8
REMARK VINA RESULT:      -6.1      2.268      8.806
REMARK  Name = 
REMARK  9 active torsions:
REMARK  status: ('A' for Active; 'I' for Inactive)
REMARK    1  A    between atoms: C_2  and  O_30
REMARK    2  A    between atoms: C_14  and  O_15
REMARK    3  A    between atoms: O_15  and  C_16
REMARK    4  A    between atoms: C_17  and  O_18
REMARK    5  A    between atoms: O_18  and  S_19
REMARK    6  A    between atoms: S_19  and  N_20
REMARK    7  A    between atoms: C_28  and  C_29
REMARK    8  A    between atoms: O_30  and  S_31
REMARK    9  A    between atoms: S_31  and  N_32
REMARK                            x       y       z     vdW  Elec       q    Type
REMARK                         _______ _______ _______ _____ _____    ______ ____
ROOT
ATOM      1  C   UNL     1       6.080  -4.478  25.221  0.00  0.00    +0.157 C 
ATOM      2  C   UNL     1       5.666  -3.128  26.115  0.00  0.00    -0.000 C 
ATOM      3  C   UNL     1       4.512  -2.758  25.121  0.00  0.00    +0.014 C 
ATOM      4  C   UNL     1       7.147  -2.801  26.655  0.00  0.00    +0.001 C 
ATOM      5  C   UNL     1       7.618  -1.453  26.178  0.00  0.00    +0.000 C 
ATOM      6  C   UNL     1       6.770  -0.262  26.647  0.00  0.00    +0.023 C 
ATOM      7  C   UNL     1       5.271  -0.638  26.666  0.00  0.00    +0.009 C 
ATOM      8  C   UNL     1       7.236   0.928  25.780  0.00  0.00    -0.037 A 
ATOM      9  C   UNL     1       6.428   2.037  25.520  0.00  0.00    +0.053 A 
ATOM     10  C   UNL     1       6.868   3.084  24.678  0.00  0.00    +0.165 A 
ATOM     11  C   UNL     1       8.134   3.018  24.067  0.00  0.00    +0.199 A 
ATOM     12  C   UNL     1       8.946   1.925  24.336  0.00  0.00    +0.056 A 
ATOM     13  C   UNL     1       8.538   0.922  25.217  0.00  0.00    -0.040 A 
ATOM     14  C   UNL     1       9.543  -0.179  25.456  0.00  0.00    +0.036 C 
ATOM     15  C   UNL     1       9.067  -1.107  26.549  0.00  0.00    +0.009 C 
ATOM     16  C   UNL     1       8.087  -3.934  26.248  0.00  0.00    +0.007 C 
ATOM     17  C   UNL     1       5.001  -2.161  27.194  0.00  0.00    +0.010 C 
ATOM     18  C   UNL     1       7.564  -4.258  24.907  0.00  0.00    +0.035 C 
ENDROOT
BRANCH  10  19
ATOM     19  O   UNL     1       6.116   4.202  24.398  0.00  0.00    -0.491 OA
ATOM     20  C   UNL     1       5.836   5.061  25.501  0.00  0.00    +0.277 C 
ENDBRANCH  10  19
BRANCH   1  21
ATOM     21  O   UNL     1       5.466  -4.607  23.896  0.00  0.00    -0.221 OA
BRANCH  21  22
ATOM     22  S   UNL     1       4.869  -5.988  23.335  0.00  0.00    +0.149 S 
ATOM     23  O   UNL     1       3.661  -5.722  22.610  0.00  0.00    -0.130 OA
ATOM     24  O   UNL     1       4.943  -7.027  24.343  0.00  0.00    -0.130 OA
BRANCH  22  25
ATOM     25  N   UNL     1       5.979  -6.447  22.160  0.00  0.00    -0.183 NA
ATOM     26  H   UNL     1       5.974  -7.459  22.047  0.00  0.00    +0.146 HD
ATOM     27  H   UNL     1       5.863  -5.910  21.307  0.00  0.00    +0.146 HD
ENDBRANCH  22  25
ENDBRANCH  21  22
ENDBRANCH   1  21
BRANCH  11  28
ATOM     28  O   UNL     1       8.527   4.029  23.209  0.00  0.00    -0.330 OA
BRANCH  28  29
ATOM     29  S   UNL     1       9.399   5.302  23.759  0.00  0.00    +0.189 S 
ATOM     30  O   UNL     1       9.402   5.314  25.207  0.00  0.00    -0.119 OA
ATOM     31  O   UNL     1       9.066   6.480  22.985  0.00  0.00    -0.119 OA
BRANCH  29  32
ATOM     32  N   UNL     1      10.981   4.916  23.360  0.00  0.00    -0.174 NA
ATOM     33  H   UNL     1      11.377   5.586  22.706  0.00  0.00    +0.147 HD
ATOM     34  H   UNL     1      11.538   4.674  24.173  0.00  0.00    +0.147 HD
ENDBRANCH  29  32
ENDBRANCH  28  29
ENDBRANCH  11  28
TORSDOF 7
ENDMDL
MODEL 9
REMARK VINA RESULT:      -6.1      2.820      8.512
REMARK  Name = 
REMARK  9 active torsions:
REMARK  status: ('A' for Active; 'I' for Inactive)
REMARK    1  A    between atoms: C_2  and  O_30
REMARK    2  A    between atoms: C_14  and  O_15
REMARK    3  A    between atoms: O_15  and  C_16
REMARK    4  A    between atoms: C_17  and  O_18
REMARK    5  A    between atoms: O_18  and  S_19
REMARK    6  A    between atoms: S_19  and  N_20
REMARK    7  A    between atoms: C_28  and  C_29
REMARK    8  A    between atoms: O_30  and  S_31
REMARK    9  A    between atoms: S_31  and  N_32
REMARK                            x       y       z     vdW  Elec       q    Type
REMARK                         _______ _______ _______ _____ _____    ______ ____
ROOT
ATOM      1  C   UNL     1       8.842  -2.330  24.289  0.00  0.00    +0.157 C 
ATOM      2  C   UNL     1       9.834  -0.986  24.306  0.00  0.00    -0.000 C 
ATOM      3  C   UNL     1       9.444  -0.652  25.787  0.00  0.00    +0.014 C 
ATOM      4  C   UNL     1       9.676  -0.618  22.747  0.00  0.00    +0.001 C 
ATOM      5  C   UNL     1       9.048   0.739  22.566  0.00  0.00    +0.000 C 
ATOM      6  C   UNL     1       9.846   1.911  23.155  0.00  0.00    +0.023 C 
ATOM      7  C   UNL     1      10.515   1.497  24.485  0.00  0.00    +0.009 C 
ATOM      8  C   UNL     1       8.869   3.106  23.145  0.00  0.00    -0.037 A 
ATOM      9  C   UNL     1       8.993   4.193  24.014  0.00  0.00    +0.053 A 
ATOM     10  C   UNL     1       8.049   5.246  24.012  0.00  0.00    +0.165 A 
ATOM     11  C   UNL     1       6.947   5.208  23.137  0.00  0.00    +0.199 A 
ATOM     12  C   UNL     1       6.829   4.138  22.262  0.00  0.00    +0.056 A 
ATOM     13  C   UNL     1       7.794   3.131  22.219  0.00  0.00    -0.040 A 
ATOM     14  C   UNL     1       7.566   2.057  21.182  0.00  0.00    +0.036 C 
ATOM     15  C   UNL     1       8.752   1.125  21.109  0.00  0.00    +0.009 C 
ATOM     16  C   UNL     1       8.894  -1.728  22.050  0.00  0.00    +0.007 C 
ATOM     17  C   UNL     1      11.100  -0.029  24.459  0.00  0.00    +0.010 C 
ATOM     18  C   UNL     1       7.912  -2.074  23.096  0.00  0.00    +0.035 C 
ENDROOT
BRANCH  10  19
ATOM     19  O   UNL     1       8.132   6.342  24.840  0.00  0.00    -0.491 OA
ATOM     20  C   UNL     1       8.690   6.112  26.130  0.00  0.00    +0.277 C 
ENDBRANCH  10  19
BRANCH   1  21
ATOM     21  O   UNL     1       7.917  -2.484  25.416  0.00  0.00    -0.221 OA
BRANCH  21  22
ATOM     22  S   UNL     1       7.532  -3.908  26.049  0.00  0.00    +0.149 S 
ATOM     23  O   UNL     1       7.281  -4.843  24.991  0.00  0.00    -0.130 OA
ATOM     24  O   UNL     1       6.615  -3.745  27.160  0.00  0.00    -0.130 OA
BRANCH  22  25
ATOM     25  N   UNL     1       8.968  -4.429  26.747  0.00  0.00    -0.183 NA
ATOM     26  H   UNL     1       8.782  -5.162  27.428  0.00  0.00    +0.146 HD
ATOM     27  H   UNL     1       9.666  -4.650  26.044  0.00  0.00    +0.146 HD
ENDBRANCH  22  25
ENDBRANCH  21  22
ENDBRANCH   1  21
BRANCH  11  28
ATOM     28  O   UNL     1       6.009   6.223  23.185  0.00  0.00    -0.330 OA
BRANCH  28  29
ATOM     29  S   UNL     1       4.698   6.105  24.161  0.00  0.00    +0.189 S 
ATOM     30  O   UNL     1       3.485   6.170  23.374  0.00  0.00    -0.119 OA
ATOM     31  O   UNL     1       4.896   6.935  25.330  0.00  0.00    -0.119 OA
BRANCH  29  32
ATOM     32  N   UNL     1       4.736   4.520  24.706  0.00  0.00    -0.174 NA
ATOM     33  H   UNL     1       4.699   4.471  25.721  0.00  0.00    +0.147 HD
ATOM     34  H   UNL     1       4.105   3.916  24.188  0.00  0.00    +0.147 HD
ENDBRANCH  29  32
ENDBRANCH  28  29
ENDBRANCH  11  28
TORSDOF 7
ENDMDL
