MODEL 1
REMARK VINA RESULT:      -6.8      0.000      0.000
REMARK  Name = 
REMARK  13 active torsions:
REMARK  status: ('A' for Active; 'I' for Inactive)
REMARK    1  A    between atoms: C_2  and  O_12
REMARK    2  A    between atoms: C_5  and  C_6
REMARK    3  A    between atoms: C_5  and  C_9
REMARK    4  A    between atoms: C_9  and  O_10
REMARK    5  A    between atoms: O_12  and  C_13
REMARK    6  A    between atoms: N_15  and  C_16
REMARK    7  A    between atoms: C_16  and  C_17
REMARK    8  A    between atoms: C_17  and  N_18
REMARK    9  A    between atoms: C_19  and  O_21
REMARK   10  A    between atoms: O_21  and  C_22
REMARK   11  A    between atoms: C_26  and  C_27
REMARK   12  A    between atoms: C_26  and  C_30
REMARK   13  A    between atoms: C_30  and  O_31
REMARK                            x       y       z     vdW  Elec       q    Type
REMARK                         _______ _______ _______ _____ _____    ______ ____
ROOT
ATOM      1  C   UNL     1       8.453  -5.306  26.651  0.00  0.00    +0.126 C 
ENDROOT
BRANCH   1   3
ATOM      2  C   UNL     1       9.327  -3.662  25.037  0.00  0.00    +0.401 C 
ATOM      3  N   UNL     1       8.445  -4.010  26.010  0.00  0.00    -0.280 N 
ATOM      4  H   UNL     1       7.631  -3.414  26.083  0.00  0.00    +0.152 HD
ATOM      5  O   UNL     1      10.237  -4.360  24.617  0.00  0.00    -0.226 OA
BRANCH   2   6
ATOM      6  O   UNL     1       8.951  -2.473  24.519  0.00  0.00    -0.442 OA
BRANCH   6   7
ATOM      7  C   UNL     1       9.916  -1.856  23.643  0.00  0.00    +0.229 C 
ATOM      8  C   UNL     1      10.241  -0.466  24.179  0.00  0.00    +0.210 C 
ATOM      9  O   UNL     1       9.073   0.351  24.193  0.00  0.00    -0.336 OA
ATOM     10  C   UNL     1       8.464   0.473  22.918  0.00  0.00    +0.267 C 
ATOM     11  C   UNL     1       7.139   1.193  23.172  0.00  0.00    +0.087 C 
ATOM     12  O   UNL     1       8.122  -0.802  22.346  0.00  0.00    -0.336 OA
ATOM     13  C   UNL     1       9.248  -1.694  22.277  0.00  0.00    +0.210 C 
BRANCH  10  14
ATOM     14  C   UNL     1       9.220   1.333  21.848  0.00  0.00    +0.365 C 
ATOM     15  O   UNL     1      10.275   1.922  22.019  0.00  0.00    -0.245 OA
BRANCH  14  16
ATOM     16  O   UNL     1       8.579   1.320  20.644  0.00  0.00    -0.477 OA
ATOM     17  H   UNL     1       8.837   2.109  20.115  0.00  0.00    +0.295 HD
ENDBRANCH  14  16
ENDBRANCH  10  14
ENDBRANCH   6   7
ENDBRANCH   2   6
ENDBRANCH   1   3
BRANCH   1  18
ATOM     18  C   UNL     1       7.146  -5.642  27.373  0.00  0.00    +0.126 C 
BRANCH  18  19
ATOM     19  N   UNL     1       6.075  -5.941  26.448  0.00  0.00    -0.280 N 
ATOM     20  H   UNL     1       6.292  -6.298  25.521  0.00  0.00    +0.152 HD
ATOM     21  C   UNL     1       4.796  -5.511  26.630  0.00  0.00    +0.401 C 
ATOM     22  O   UNL     1       4.370  -4.962  27.632  0.00  0.00    -0.226 OA
BRANCH  21  23
ATOM     23  O   UNL     1       4.099  -5.708  25.490  0.00  0.00    -0.442 OA
BRANCH  23  24
ATOM     24  C   UNL     1       3.785  -4.496  24.761  0.00  0.00    +0.229 C 
ATOM     25  C   UNL     1       3.486  -4.880  23.314  0.00  0.00    +0.210 C 
ATOM     26  O   UNL     1       4.638  -5.405  22.647  0.00  0.00    -0.336 OA
ATOM     27  C   UNL     1       5.791  -4.543  22.730  0.00  0.00    +0.267 C 
ATOM     28  C   UNL     1       5.658  -3.327  21.813  0.00  0.00    +0.087 C 
ATOM     29  O   UNL     1       6.095  -4.180  24.071  0.00  0.00    -0.336 OA
ATOM     30  C   UNL     1       5.007  -3.576  24.769  0.00  0.00    +0.210 C 
BRANCH  27  31
ATOM     31  C   UNL     1       6.988  -5.393  22.192  0.00  0.00    +0.365 C 
ATOM     32  O   UNL     1       7.063  -5.896  21.079  0.00  0.00    -0.245 OA
BRANCH  31  33
ATOM     33  O   UNL     1       7.973  -5.546  23.123  0.00  0.00    -0.477 OA
ATOM     34  H   UNL     1       8.257  -6.490  23.100  0.00  0.00    +0.295 HD
ENDBRANCH  31  33
ENDBRANCH  27  31
ENDBRANCH  23  24
ENDBRANCH  21  23
ENDBRANCH  18  19
ENDBRANCH   1  18
TORSDOF 11
ENDMDL
MODEL 2
REMARK VINA RESULT:      -6.7      1.872      3.568
REMARK  Name = 
REMARK  13 active torsions:
REMARK  status: ('A' for Active; 'I' for Inactive)
REMARK    1  A    between atoms: C_2  and  O_12
REMARK    2  A    between atoms: C_5  and  C_6
REMARK    3  A    between atoms: C_5  and  C_9
REMARK    4  A    between atoms: C_9  and  O_10
REMARK    5  A    between atoms: O_12  and  C_13
REMARK    6  A    between atoms: N_15  and  C_16
REMARK    7  A    between atoms: C_16  and  C_17
REMARK    8  A    between atoms: C_17  and  N_18
REMARK    9  A    between atoms: C_19  and  O_21
REMARK   10  A    between atoms: O_21  and  C_22
REMARK   11  A    between atoms: C_26  and  C_27
REMARK   12  A    between atoms: C_26  and  C_30
REMARK   13  A    between atoms: C_30  and  O_31
REMARK                            x       y       z     vdW  Elec       q    Type
REMARK                         _______ _______ _______ _____ _____    ______ ____
ROOT
ATOM      1  C   UNL     1       7.189  -5.544  22.159  0.00  0.00    +0.126 C 
ENDROOT
BRANCH   1   3
ATOM      2  C   UNL     1       8.361  -3.970  23.649  0.00  0.00    +0.401 C 
ATOM      3  N   UNL     1       7.494  -4.212  22.632  0.00  0.00    -0.280 N 
ATOM      4  H   UNL     1       7.270  -3.408  22.061  0.00  0.00    +0.152 HD
ATOM      5  O   UNL     1       8.948  -4.818  24.303  0.00  0.00    -0.226 OA
BRANCH   2   6
ATOM      6  O   UNL     1       8.569  -2.638  23.732  0.00  0.00    -0.442 OA
BRANCH   6   7
ATOM      7  C   UNL     1       8.256  -1.896  22.536  0.00  0.00    +0.229 C 
ATOM      8  C   UNL     1       9.554  -1.361  21.941  0.00  0.00    +0.210 C 
ATOM      9  O   UNL     1      10.195  -0.474  22.854  0.00  0.00    -0.336 OA
ATOM     10  C   UNL     1       9.375   0.616  23.240  0.00  0.00    +0.267 C 
ATOM     11  C   UNL     1      10.142   1.320  24.361  0.00  0.00    +0.087 C 
ATOM     12  O   UNL     1       8.128   0.190  23.818  0.00  0.00    -0.336 OA
ATOM     13  C   UNL     1       7.399  -0.701  22.956  0.00  0.00    +0.210 C 
BRANCH  10  14
ATOM     14  C   UNL     1       9.094   1.714  22.158  0.00  0.00    +0.365 C 
ATOM     15  O   UNL     1       8.004   2.196  21.894  0.00  0.00    -0.245 OA
BRANCH  14  16
ATOM     16  O   UNL     1      10.242   2.125  21.545  0.00  0.00    -0.477 OA
ATOM     17  H   UNL     1      10.193   3.087  21.347  0.00  0.00    +0.295 HD
ENDBRANCH  14  16
ENDBRANCH  10  14
ENDBRANCH   6   7
ENDBRANCH   2   6
ENDBRANCH   1   3
BRANCH   1  18
ATOM     18  C   UNL     1       5.689  -5.832  22.060  0.00  0.00    +0.126 C 
BRANCH  18  19
ATOM     19  N   UNL     1       4.941  -5.189  23.118  0.00  0.00    -0.280 N 
ATOM     20  H   UNL     1       5.432  -4.687  23.852  0.00  0.00    +0.152 HD
ATOM     21  C   UNL     1       3.625  -5.446  23.357  0.00  0.00    +0.401 C 
ATOM     22  O   UNL     1       2.895  -6.116  22.647  0.00  0.00    -0.226 OA
BRANCH  21  23
ATOM     23  O   UNL     1       3.283  -4.914  24.550  0.00  0.00    -0.442 OA
BRANCH  23  24
ATOM     24  C   UNL     1       3.037  -5.889  25.594  0.00  0.00    +0.229 C 
ATOM     25  C   UNL     1       3.161  -5.181  26.941  0.00  0.00    +0.210 C 
ATOM     26  O   UNL     1       4.495  -4.726  27.188  0.00  0.00    -0.336 OA
ATOM     27  C   UNL     1       5.489  -5.762  27.051  0.00  0.00    +0.267 C 
ATOM     28  C   UNL     1       5.465  -6.733  28.232  0.00  0.00    +0.087 C 
ATOM     29  O   UNL     1       5.399  -6.430  25.799  0.00  0.00    -0.336 OA
ATOM     30  C   UNL     1       4.110  -6.977  25.525  0.00  0.00    +0.210 C 
BRANCH  27  31
ATOM     31  C   UNL     1       6.868  -5.025  27.092  0.00  0.00    +0.365 C 
ATOM     32  O   UNL     1       7.028  -3.813  27.127  0.00  0.00    -0.245 OA
BRANCH  31  33
ATOM     33  O   UNL     1       7.919  -5.894  27.064  0.00  0.00    -0.477 OA
ATOM     34  H   UNL     1       7.783  -6.545  27.792  0.00  0.00    +0.295 HD
ENDBRANCH  31  33
ENDBRANCH  27  31
ENDBRANCH  23  24
ENDBRANCH  21  23
ENDBRANCH  18  19
ENDBRANCH   1  18
TORSDOF 11
ENDMDL
MODEL 3
REMARK VINA RESULT:      -6.6      1.045      5.995
REMARK  Name = 
REMARK  13 active torsions:
REMARK  status: ('A' for Active; 'I' for Inactive)
REMARK    1  A    between atoms: C_2  and  O_12
REMARK    2  A    between atoms: C_5  and  C_6
REMARK    3  A    between atoms: C_5  and  C_9
REMARK    4  A    between atoms: C_9  and  O_10
REMARK    5  A    between atoms: O_12  and  C_13
REMARK    6  A    between atoms: N_15  and  C_16
REMARK    7  A    between atoms: C_16  and  C_17
REMARK    8  A    between atoms: C_17  and  N_18
REMARK    9  A    between atoms: C_19  and  O_21
REMARK   10  A    between atoms: O_21  and  C_22
REMARK   11  A    between atoms: C_26  and  C_27
REMARK   12  A    between atoms: C_26  and  C_30
REMARK   13  A    between atoms: C_30  and  O_31
REMARK                            x       y       z     vdW  Elec       q    Type
REMARK                         _______ _______ _______ _____ _____    ______ ____
ROOT
ATOM      1  C   UNL     1       6.887  -5.572  27.398  0.00  0.00    +0.126 C 
ENDROOT
BRANCH   1   3
ATOM      2  C   UNL     1       4.607  -5.708  26.473  0.00  0.00    +0.401 C 
ATOM      3  N   UNL     1       5.930  -6.005  26.402  0.00  0.00    -0.280 N 
ATOM      4  H   UNL     1       6.250  -6.322  25.497  0.00  0.00    +0.152 HD
ATOM      5  O   UNL     1       4.061  -5.092  27.375  0.00  0.00    -0.226 OA
BRANCH   2   6
ATOM      6  O   UNL     1       4.017  -6.091  25.320  0.00  0.00    -0.442 OA
BRANCH   6   7
ATOM      7  C   UNL     1       3.589  -5.011  24.466  0.00  0.00    +0.229 C 
ATOM      8  C   UNL     1       3.613  -5.495  23.020  0.00  0.00    +0.210 C 
ATOM      9  O   UNL     1       4.935  -5.863  22.636  0.00  0.00    -0.336 OA
ATOM     10  C   UNL     1       5.872  -4.809  22.791  0.00  0.00    +0.267 C 
ATOM     11  C   UNL     1       7.239  -5.447  22.538  0.00  0.00    +0.087 C 
ATOM     12  O   UNL     1       5.912  -4.300  24.136  0.00  0.00    -0.336 OA
ATOM     13  C   UNL     1       4.617  -3.887  24.606  0.00  0.00    +0.210 C 
BRANCH  10  14
ATOM     14  C   UNL     1       5.766  -3.611  21.788  0.00  0.00    +0.365 C 
ATOM     15  O   UNL     1       5.656  -3.701  20.575  0.00  0.00    -0.245 OA
BRANCH  14  16
ATOM     16  O   UNL     1       5.767  -2.409  22.433  0.00  0.00    -0.477 OA
ATOM     17  H   UNL     1       5.913  -1.679  21.789  0.00  0.00    +0.295 HD
ENDBRANCH  14  16
ENDBRANCH  10  14
ENDBRANCH   6   7
ENDBRANCH   2   6
ENDBRANCH   1   3
BRANCH   1  18
ATOM     18  C   UNL     1       8.275  -5.275  26.826  0.00  0.00    +0.126 C 
BRANCH  18  19
ATOM     19  N   UNL     1       8.299  -4.043  26.068  0.00  0.00    -0.280 N 
ATOM     20  H   UNL     1       7.512  -3.402  26.120  0.00  0.00    +0.152 HD
ATOM     21  C   UNL     1       9.186  -3.809  25.062  0.00  0.00    +0.401 C 
ATOM     22  O   UNL     1      10.135  -4.520  24.775  0.00  0.00    -0.226 OA
BRANCH  21  23
ATOM     23  O   UNL     1       8.795  -2.713  24.377  0.00  0.00    -0.442 OA
BRANCH  23  24
ATOM     24  C   UNL     1       9.839  -2.097  23.583  0.00  0.00    +0.229 C 
ATOM     25  C   UNL     1      10.123  -0.715  24.167  0.00  0.00    +0.210 C 
ATOM     26  O   UNL     1       9.005   0.168  24.030  0.00  0.00    -0.336 OA
ATOM     27  C   UNL     1       8.515   0.265  22.677  0.00  0.00    +0.267 C 
ATOM     28  C   UNL     1       9.444   1.098  21.794  0.00  0.00    +0.087 C 
ATOM     29  O   UNL     1       8.234  -1.010  22.115  0.00  0.00    -0.336 OA
ATOM     30  C   UNL     1       9.336  -1.916  22.150  0.00  0.00    +0.210 C 
BRANCH  27  31
ATOM     31  C   UNL     1       7.162   1.042  22.779  0.00  0.00    +0.365 C 
ATOM     32  O   UNL     1       6.992   2.221  22.499  0.00  0.00    -0.245 OA
BRANCH  31  33
ATOM     33  O   UNL     1       6.149   0.256  23.246  0.00  0.00    -0.477 OA
ATOM     34  H   UNL     1       6.555  -0.570  23.600  0.00  0.00    +0.295 HD
ENDBRANCH  31  33
ENDBRANCH  27  31
ENDBRANCH  23  24
ENDBRANCH  21  23
ENDBRANCH  18  19
ENDBRANCH   1  18
TORSDOF 11
ENDMDL
MODEL 4
REMARK VINA RESULT:      -6.6      1.592      2.153
REMARK  Name = 
REMARK  13 active torsions:
REMARK  status: ('A' for Active; 'I' for Inactive)
REMARK    1  A    between atoms: C_2  and  O_12
REMARK    2  A    between atoms: C_5  and  C_6
REMARK    3  A    between atoms: C_5  and  C_9
REMARK    4  A    between atoms: C_9  and  O_10
REMARK    5  A    between atoms: O_12  and  C_13
REMARK    6  A    between atoms: N_15  and  C_16
REMARK    7  A    between atoms: C_16  and  C_17
REMARK    8  A    between atoms: C_17  and  N_18
REMARK    9  A    between atoms: C_19  and  O_21
REMARK   10  A    between atoms: O_21  and  C_22
REMARK   11  A    between atoms: C_26  and  C_27
REMARK   12  A    between atoms: C_26  and  C_30
REMARK   13  A    between atoms: C_30  and  O_31
REMARK                            x       y       z     vdW  Elec       q    Type
REMARK                         _______ _______ _______ _____ _____    ______ ____
ROOT
ATOM      1  C   UNL     1       8.316  -3.112  26.318  0.00  0.00    +0.126 C 
ENDROOT
BRANCH   1   3
ATOM      2  C   UNL     1       9.146  -2.992  24.001  0.00  0.00    +0.401 C 
ATOM      3  N   UNL     1       9.042  -2.463  25.248  0.00  0.00    -0.280 N 
ATOM      4  H   UNL     1       9.279  -1.483  25.319  0.00  0.00    +0.152 HD
ATOM      5  O   UNL     1       8.690  -4.066  23.641  0.00  0.00    -0.226 OA
BRANCH   2   6
ATOM      6  O   UNL     1       9.721  -2.076  23.192  0.00  0.00    -0.442 OA
BRANCH   6   7
ATOM      7  C   UNL     1       8.833  -1.462  22.237  0.00  0.00    +0.229 C 
ATOM      8  C   UNL     1       9.601  -0.382  21.482  0.00  0.00    +0.210 C 
ATOM      9  O   UNL     1      10.053   0.630  22.379  0.00  0.00    -0.336 OA
ATOM     10  C   UNL     1       9.000   1.233  23.113  0.00  0.00    +0.267 C 
ATOM     11  C   UNL     1       9.690   2.121  24.150  0.00  0.00    +0.087 C 
ATOM     12  O   UNL     1       8.229   0.275  23.859  0.00  0.00    -0.336 OA
ATOM     13  C   UNL     1       7.715  -0.782  23.030  0.00  0.00    +0.210 C 
BRANCH  10  14
ATOM     14  C   UNL     1       8.029   2.174  22.322  0.00  0.00    +0.365 C 
ATOM     15  O   UNL     1       6.885   1.905  21.989  0.00  0.00    -0.245 OA
BRANCH  14  16
ATOM     16  O   UNL     1       8.595   3.390  22.070  0.00  0.00    -0.477 OA
ATOM     17  H   UNL     1       8.641   3.547  21.100  0.00  0.00    +0.295 HD
ENDBRANCH  14  16
ENDBRANCH  10  14
ENDBRANCH   6   7
ENDBRANCH   2   6
ENDBRANCH   1   3
BRANCH   1  18
ATOM     18  C   UNL     1       8.903  -4.466  26.725  0.00  0.00    +0.126 C 
BRANCH  18  19
ATOM     19  N   UNL     1       7.969  -5.550  26.509  0.00  0.00    -0.280 N 
ATOM     20  H   UNL     1       7.939  -6.019  25.608  0.00  0.00    +0.152 HD
ATOM     21  C   UNL     1       6.923  -5.804  27.342  0.00  0.00    +0.401 C 
ATOM     22  O   UNL     1       6.728  -5.264  28.418  0.00  0.00    -0.226 OA
BRANCH  21  23
ATOM     23  O   UNL     1       6.090  -6.683  26.747  0.00  0.00    -0.442 OA
BRANCH  23  24
ATOM     24  C   UNL     1       4.756  -6.174  26.498  0.00  0.00    +0.229 C 
ATOM     25  C   UNL     1       4.071  -7.108  25.503  0.00  0.00    +0.210 C 
ATOM     26  O   UNL     1       4.704  -7.086  24.220  0.00  0.00    -0.336 OA
ATOM     27  C   UNL     1       4.847  -5.759  23.674  0.00  0.00    +0.267 C 
ATOM     28  C   UNL     1       3.515  -5.206  23.168  0.00  0.00    +0.087 C 
ATOM     29  O   UNL     1       5.492  -4.872  24.580  0.00  0.00    -0.336 OA
ATOM     30  C   UNL     1       4.862  -4.788  25.857  0.00  0.00    +0.210 C 
BRANCH  27  31
ATOM     31  C   UNL     1       5.780  -5.918  22.429  0.00  0.00    +0.365 C 
ATOM     32  O   UNL     1       5.419  -5.898  21.260  0.00  0.00    -0.245 OA
BRANCH  31  33
ATOM     33  O   UNL     1       7.084  -6.107  22.781  0.00  0.00    -0.477 OA
ATOM     34  H   UNL     1       7.608  -6.171  21.949  0.00  0.00    +0.295 HD
ENDBRANCH  31  33
ENDBRANCH  27  31
ENDBRANCH  23  24
ENDBRANCH  21  23
ENDBRANCH  18  19
ENDBRANCH   1  18
TORSDOF 11
ENDMDL
MODEL 5
REMARK VINA RESULT:      -6.6      1.575      2.343
REMARK  Name = 
REMARK  13 active torsions:
REMARK  status: ('A' for Active; 'I' for Inactive)
REMARK    1  A    between atoms: C_2  and  O_12
REMARK    2  A    between atoms: C_5  and  C_6
REMARK    3  A    between atoms: C_5  and  C_9
REMARK    4  A    between atoms: C_9  and  O_10
REMARK    5  A    between atoms: O_12  and  C_13
REMARK    6  A    between atoms: N_15  and  C_16
REMARK    7  A    between atoms: C_16  and  C_17
REMARK    8  A    between atoms: C_17  and  N_18
REMARK    9  A    between atoms: C_19  and  O_21
REMARK   10  A    between atoms: O_21  and  C_22
REMARK   11  A    between atoms: C_26  and  C_27
REMARK   12  A    between atoms: C_26  and  C_30
REMARK   13  A    between atoms: C_30  and  O_31
REMARK                            x       y       z     vdW  Elec       q    Type
REMARK                         _______ _______ _______ _____ _____    ______ ____
ROOT
ATOM      1  C   UNL     1       9.641  -4.963  25.590  0.00  0.00    +0.126 C 
ENDROOT
BRANCH   1   3
ATOM      2  C   UNL     1       8.487  -3.747  23.784  0.00  0.00    +0.401 C 
ATOM      3  N   UNL     1       9.500  -3.845  24.684  0.00  0.00    -0.280 N 
ATOM      4  H   UNL     1       9.999  -2.984  24.860  0.00  0.00    +0.152 HD
ATOM      5  O   UNL     1       7.614  -4.581  23.600  0.00  0.00    -0.226 OA
BRANCH   2   6
ATOM      6  O   UNL     1       8.527  -2.520  23.220  0.00  0.00    -0.442 OA
BRANCH   6   7
ATOM      7  C   UNL     1       9.710  -1.751  23.517  0.00  0.00    +0.229 C 
ATOM      8  C   UNL     1       9.332  -0.630  24.480  0.00  0.00    +0.210 C 
ATOM      9  O   UNL     1       8.376   0.242  23.883  0.00  0.00    -0.336 OA
ATOM     10  C   UNL     1       8.826   0.808  22.662  0.00  0.00    +0.267 C 
ATOM     11  C   UNL     1       7.608   1.528  22.081  0.00  0.00    +0.087 C 
ATOM     12  O   UNL     1       9.197  -0.190  21.696  0.00  0.00    -0.336 OA
ATOM     13  C   UNL     1      10.175  -1.113  22.206  0.00  0.00    +0.210 C 
BRANCH  10  14
ATOM     14  C   UNL     1       9.958   1.887  22.752  0.00  0.00    +0.365 C 
ATOM     15  O   UNL     1      10.491   2.280  23.778  0.00  0.00    -0.245 OA
BRANCH  14  16
ATOM     16  O   UNL     1      10.336   2.329  21.518  0.00  0.00    -0.477 OA
ATOM     17  H   UNL     1      11.273   2.084  21.344  0.00  0.00    +0.295 HD
ENDBRANCH  14  16
ENDBRANCH  10  14
ENDBRANCH   6   7
ENDBRANCH   2   6
ENDBRANCH   1   3
BRANCH   1  18
ATOM     18  C   UNL     1       8.692  -4.905  26.789  0.00  0.00    +0.126 C 
BRANCH  18  19
ATOM     19  N   UNL     1       7.542  -5.764  26.615  0.00  0.00    -0.280 N 
ATOM     20  H   UNL     1       7.232  -6.010  25.679  0.00  0.00    +0.152 HD
ATOM     21  C   UNL     1       6.666  -6.044  27.619  0.00  0.00    +0.401 C 
ATOM     22  O   UNL     1       6.811  -5.736  28.790  0.00  0.00    -0.226 OA
BRANCH  21  23
ATOM     23  O   UNL     1       5.571  -6.636  27.096  0.00  0.00    -0.442 OA
BRANCH  23  24
ATOM     24  C   UNL     1       4.332  -5.922  27.331  0.00  0.00    +0.229 C 
ATOM     25  C   UNL     1       3.228  -6.617  26.538  0.00  0.00    +0.210 C 
ATOM     26  O   UNL     1       3.434  -6.513  25.125  0.00  0.00    -0.336 OA
ATOM     27  C   UNL     1       3.627  -5.157  24.673  0.00  0.00    +0.267 C 
ATOM     28  C   UNL     1       2.318  -4.368  24.668  0.00  0.00    +0.087 C 
ATOM     29  O   UNL     1       4.658  -4.492  25.392  0.00  0.00    -0.336 OA
ATOM     30  C   UNL     1       4.471  -4.492  26.807  0.00  0.00    +0.210 C 
BRANCH  27  31
ATOM     31  C   UNL     1       4.095  -5.276  23.185  0.00  0.00    +0.365 C 
ATOM     32  O   UNL     1       4.468  -4.350  22.478  0.00  0.00    -0.245 OA
BRANCH  31  33
ATOM     33  O   UNL     1       4.028  -6.558  22.724  0.00  0.00    -0.477 OA
ATOM     34  H   UNL     1       4.715  -6.656  22.023  0.00  0.00    +0.295 HD
ENDBRANCH  31  33
ENDBRANCH  27  31
ENDBRANCH  23  24
ENDBRANCH  21  23
ENDBRANCH  18  19
ENDBRANCH   1  18
TORSDOF 11
ENDMDL
MODEL 6
REMARK VINA RESULT:      -6.5      2.137      3.417
REMARK  Name = 
REMARK  13 active torsions:
REMARK  status: ('A' for Active; 'I' for Inactive)
REMARK    1  A    between atoms: C_2  and  O_12
REMARK    2  A    between atoms: C_5  and  C_6
REMARK    3  A    between atoms: C_5  and  C_9
REMARK    4  A    between atoms: C_9  and  O_10
REMARK    5  A    between atoms: O_12  and  C_13
REMARK    6  A    between atoms: N_15  and  C_16
REMARK    7  A    between atoms: C_16  and  C_17
REMARK    8  A    between atoms: C_17  and  N_18
REMARK    9  A    between atoms: C_19  and  O_21
REMARK   10  A    between atoms: O_21  and  C_22
REMARK   11  A    between atoms: C_26  and  C_27
REMARK   12  A    between atoms: C_26  and  C_30
REMARK   13  A    between atoms: C_30  and  O_31
REMARK                            x       y       z     vdW  Elec       q    Type
REMARK                         _______ _______ _______ _____ _____    ______ ____
ROOT
ATOM      1  C   UNL     1       9.342  -5.133  25.461  0.00  0.00    +0.126 C 
ENDROOT
BRANCH   1   3
ATOM      2  C   UNL     1       8.261  -3.722  23.755  0.00  0.00    +0.401 C 
ATOM      3  N   UNL     1       9.262  -3.941  24.646  0.00  0.00    -0.280 N 
ATOM      4  H   UNL     1       9.803  -3.122  24.891  0.00  0.00    +0.152 HD
ATOM      5  O   UNL     1       7.348  -4.494  23.504  0.00  0.00    -0.226 OA
BRANCH   2   6
ATOM      6  O   UNL     1       8.366  -2.458  23.289  0.00  0.00    -0.442 OA
BRANCH   6   7
ATOM      7  C   UNL     1       9.547  -1.748  23.712  0.00  0.00    +0.229 C 
ATOM      8  C   UNL     1       9.118  -0.537  24.534  0.00  0.00    +0.210 C 
ATOM      9  O   UNL     1       8.329   0.350  23.746  0.00  0.00    -0.336 OA
ATOM     10  C   UNL     1       8.994   0.793  22.574  0.00  0.00    +0.267 C 
ATOM     11  C   UNL     1       7.933   1.547  21.771  0.00  0.00    +0.087 C 
ATOM     12  O   UNL     1       9.426  -0.296  21.740  0.00  0.00    -0.336 OA
ATOM     13  C   UNL     1      10.246  -1.240  22.450  0.00  0.00    +0.210 C 
BRANCH  10  14
ATOM     14  C   UNL     1      10.180   1.799  22.766  0.00  0.00    +0.365 C 
ATOM     15  O   UNL     1      10.802   1.982  23.801  0.00  0.00    -0.245 OA
BRANCH  14  16
ATOM     16  O   UNL     1      10.490   2.444  21.605  0.00  0.00    -0.477 OA
ATOM     17  H   UNL     1      10.908   1.819  20.971  0.00  0.00    +0.295 HD
ENDBRANCH  14  16
ENDBRANCH  10  14
ENDBRANCH   6   7
ENDBRANCH   2   6
ENDBRANCH   1   3
BRANCH   1  18
ATOM     18  C   UNL     1       8.446  -5.090  26.701  0.00  0.00    +0.126 C 
BRANCH  18  19
ATOM     19  N   UNL     1       7.240  -5.870  26.528  0.00  0.00    -0.280 N 
ATOM     20  H   UNL     1       7.071  -6.351  25.650  0.00  0.00    +0.152 HD
ATOM     21  C   UNL     1       6.170  -5.776  27.366  0.00  0.00    +0.401 C 
ATOM     22  O   UNL     1       6.145  -5.155  28.415  0.00  0.00    -0.226 OA
BRANCH  21  23
ATOM     23  O   UNL     1       5.117  -6.407  26.805  0.00  0.00    -0.442 OA
BRANCH  23  24
ATOM     24  C   UNL     1       4.633  -5.797  25.582  0.00  0.00    +0.229 C 
ATOM     25  C   UNL     1       3.181  -5.379  25.805  0.00  0.00    +0.210 C 
ATOM     26  O   UNL     1       2.321  -6.506  26.003  0.00  0.00    -0.336 OA
ATOM     27  C   UNL     1       2.424  -7.496  24.960  0.00  0.00    +0.267 C 
ATOM     28  C   UNL     1       1.738  -7.038  23.672  0.00  0.00    +0.087 C 
ATOM     29  O   UNL     1       3.768  -7.908  24.741  0.00  0.00    -0.336 OA
ATOM     30  C   UNL     1       4.665  -6.835  24.459  0.00  0.00    +0.210 C 
BRANCH  27  31
ATOM     31  C   UNL     1       1.632  -8.738  25.484  0.00  0.00    +0.365 C 
ATOM     32  O   UNL     1       0.572  -8.703  26.094  0.00  0.00    -0.245 OA
BRANCH  31  33
ATOM     33  O   UNL     1       2.268  -9.912  25.204  0.00  0.00    -0.477 OA
ATOM     34  H   UNL     1       1.940 -10.586  25.846  0.00  0.00    +0.295 HD
ENDBRANCH  31  33
ENDBRANCH  27  31
ENDBRANCH  23  24
ENDBRANCH  21  23
ENDBRANCH  18  19
ENDBRANCH   1  18
TORSDOF 11
ENDMDL
MODEL 7
REMARK VINA RESULT:      -6.5      1.892      3.232
REMARK  Name = 
REMARK  13 active torsions:
REMARK  status: ('A' for Active; 'I' for Inactive)
REMARK    1  A    between atoms: C_2  and  O_12
REMARK    2  A    between atoms: C_5  and  C_6
REMARK    3  A    between atoms: C_5  and  C_9
REMARK    4  A    between atoms: C_9  and  O_10
REMARK    5  A    between atoms: O_12  and  C_13
REMARK    6  A    between atoms: N_15  and  C_16
REMARK    7  A    between atoms: C_16  and  C_17
REMARK    8  A    between atoms: C_17  and  N_18
REMARK    9  A    between atoms: C_19  and  O_21
REMARK   10  A    between atoms: O_21  and  C_22
REMARK   11  A    between atoms: C_26  and  C_27
REMARK   12  A    between atoms: C_26  and  C_30
REMARK   13  A    between atoms: C_30  and  O_31
REMARK                            x       y       z     vdW  Elec       q    Type
REMARK                         _______ _______ _______ _____ _____    ______ ____
ROOT
ATOM      1  C   UNL     1       7.582  -5.094  23.033  0.00  0.00    +0.126 C 
ENDROOT
BRANCH   1   3
ATOM      2  C   UNL     1       8.880  -3.379  24.236  0.00  0.00    +0.401 C 
ATOM      3  N   UNL     1       7.763  -3.761  23.563  0.00  0.00    -0.280 N 
ATOM      4  H   UNL     1       7.182  -3.002  23.235  0.00  0.00    +0.152 HD
ATOM      5  O   UNL     1       9.829  -4.098  24.507  0.00  0.00    -0.226 OA
BRANCH   2   6
ATOM      6  O   UNL     1       8.826  -2.045  24.440  0.00  0.00    -0.442 OA
BRANCH   6   7
ATOM      7  C   UNL     1      10.011  -1.321  24.056  0.00  0.00    +0.229 C 
ATOM      8  C   UNL     1      10.110  -0.061  24.909  0.00  0.00    +0.210 C 
ATOM      9  O   UNL     1       8.985   0.785  24.685  0.00  0.00    -0.336 OA
ATOM     10  C   UNL     1       8.828   1.154  23.325  0.00  0.00    +0.267 C 
ATOM     11  C   UNL     1       7.477   1.868  23.254  0.00  0.00    +0.087 C 
ATOM     12  O   UNL     1       8.723   0.015  22.453  0.00  0.00    -0.336 OA
ATOM     13  C   UNL     1       9.829  -0.893  22.598  0.00  0.00    +0.210 C 
BRANCH  10  14
ATOM     14  C   UNL     1       9.875   2.160  22.736  0.00  0.00    +0.365 C 
ATOM     15  O   UNL     1      10.665   2.831  23.382  0.00  0.00    -0.245 OA
BRANCH  14  16
ATOM     16  O   UNL     1       9.846   2.181  21.372  0.00  0.00    -0.477 OA
ATOM     17  H   UNL     1       8.948   2.432  21.057  0.00  0.00    +0.295 HD
ENDBRANCH  14  16
ENDBRANCH  10  14
ENDBRANCH   6   7
ENDBRANCH   2   6
ENDBRANCH   1   3
BRANCH   1  18
ATOM     18  C   UNL     1       6.400  -5.216  22.068  0.00  0.00    +0.126 C 
BRANCH  18  19
ATOM     19  N   UNL     1       5.181  -4.677  22.631  0.00  0.00    -0.280 N 
ATOM     20  H   UNL     1       5.031  -3.672  22.645  0.00  0.00    +0.152 HD
ATOM     21  C   UNL     1       4.335  -5.411  23.406  0.00  0.00    +0.401 C 
ATOM     22  O   UNL     1       4.415  -6.612  23.599  0.00  0.00    -0.226 OA
BRANCH  21  23
ATOM     23  O   UNL     1       3.449  -4.581  23.996  0.00  0.00    -0.442 OA
BRANCH  23  24
ATOM     24  C   UNL     1       3.519  -4.557  25.443  0.00  0.00    +0.229 C 
ATOM     25  C   UNL     1       2.831  -3.284  25.930  0.00  0.00    +0.210 C 
ATOM     26  O   UNL     1       3.532  -2.104  25.522  0.00  0.00    -0.336 OA
ATOM     27  C   UNL     1       4.928  -2.113  25.883  0.00  0.00    +0.267 C 
ATOM     28  C   UNL     1       5.129  -1.869  27.379  0.00  0.00    +0.087 C 
ATOM     29  O   UNL     1       5.593  -3.287  25.432  0.00  0.00    -0.336 OA
ATOM     30  C   UNL     1       4.987  -4.502  25.872  0.00  0.00    +0.210 C 
BRANCH  27  31
ATOM     31  C   UNL     1       5.561  -0.897  25.132  0.00  0.00    +0.365 C 
ATOM     32  O   UNL     1       5.661   0.240  25.571  0.00  0.00    -0.245 OA
BRANCH  31  33
ATOM     33  O   UNL     1       5.993  -1.230  23.881  0.00  0.00    -0.477 OA
ATOM     34  H   UNL     1       5.548  -2.073  23.630  0.00  0.00    +0.295 HD
ENDBRANCH  31  33
ENDBRANCH  27  31
ENDBRANCH  23  24
ENDBRANCH  21  23
ENDBRANCH  18  19
ENDBRANCH   1  18
TORSDOF 11
ENDMDL
MODEL 8
REMARK VINA RESULT:      -6.4      3.163      8.454
REMARK  Name = 
REMARK  13 active torsions:
REMARK  status: ('A' for Active; 'I' for Inactive)
REMARK    1  A    between atoms: C_2  and  O_12
REMARK    2  A    between atoms: C_5  and  C_6
REMARK    3  A    between atoms: C_5  and  C_9
REMARK    4  A    between atoms: C_9  and  O_10
REMARK    5  A    between atoms: O_12  and  C_13
REMARK    6  A    between atoms: N_15  and  C_16
REMARK    7  A    between atoms: C_16  and  C_17
REMARK    8  A    between atoms: C_17  and  N_18
REMARK    9  A    between atoms: C_19  and  O_21
REMARK   10  A    between atoms: O_21  and  C_22
REMARK   11  A    between atoms: C_26  and  C_27
REMARK   12  A    between atoms: C_26  and  C_30
REMARK   13  A    between atoms: C_30  and  O_31
REMARK                            x       y       z     vdW  Elec       q    Type
REMARK                         _______ _______ _______ _____ _____    ______ ____
ROOT
ATOM      1  C   UNL     1      10.181  -0.473  22.656  0.00  0.00    +0.126 C 
ENDROOT
BRANCH   1   3
ATOM      2  C   UNL     1       8.672  -1.569  24.266  0.00  0.00    +0.401 C 
ATOM      3  N   UNL     1       9.598  -1.642  23.275  0.00  0.00    -0.280 N 
ATOM      4  H   UNL     1       9.669  -2.544  22.823  0.00  0.00    +0.152 HD
ATOM      5  O   UNL     1       8.252  -0.541  24.775  0.00  0.00    -0.226 OA
BRANCH   2   6
ATOM      6  O   UNL     1       8.195  -2.810  24.505  0.00  0.00    -0.442 OA
BRANCH   6   7
ATOM      7  C   UNL     1       7.873  -3.577  23.327  0.00  0.00    +0.229 C 
ATOM      8  C   UNL     1       6.454  -3.226  22.891  0.00  0.00    +0.210 C 
ATOM      9  O   UNL     1       5.518  -3.569  23.910  0.00  0.00    -0.336 OA
ATOM     10  C   UNL     1       5.569  -4.939  24.274  0.00  0.00    +0.267 C 
ATOM     11  C   UNL     1       4.664  -5.063  25.501  0.00  0.00    +0.087 C 
ATOM     12  O   UNL     1       6.881  -5.346  24.704  0.00  0.00    -0.336 OA
ATOM     13  C   UNL     1       7.895  -5.053  23.727  0.00  0.00    +0.210 C 
BRANCH  10  14
ATOM     14  C   UNL     1       5.023  -5.973  23.232  0.00  0.00    +0.365 C 
ATOM     15  O   UNL     1       4.826  -5.758  22.047  0.00  0.00    -0.245 OA
BRANCH  14  16
ATOM     16  O   UNL     1       4.822  -7.200  23.794  0.00  0.00    -0.477 OA
ATOM     17  H   UNL     1       3.977  -7.586  23.470  0.00  0.00    +0.295 HD
ENDBRANCH  14  16
ENDBRANCH  10  14
ENDBRANCH   6   7
ENDBRANCH   2   6
ENDBRANCH   1   3
BRANCH   1  18
ATOM     18  C   UNL     1       9.445  -0.016  21.394  0.00  0.00    +0.126 C 
BRANCH  18  19
ATOM     19  N   UNL     1       9.136   1.397  21.426  0.00  0.00    -0.280 N 
ATOM     20  H   UNL     1       9.876   2.080  21.292  0.00  0.00    +0.152 HD
ATOM     21  C   UNL     1       7.960   1.887  21.906  0.00  0.00    +0.401 C 
ATOM     22  O   UNL     1       6.992   1.218  22.225  0.00  0.00    -0.226 OA
BRANCH  21  23
ATOM     23  O   UNL     1       8.070   3.224  22.057  0.00  0.00    -0.442 OA
BRANCH  23  24
ATOM     24  C   UNL     1       7.491   3.741  23.281  0.00  0.00    +0.229 C 
ATOM     25  C   UNL     1       7.476   5.265  23.191  0.00  0.00    +0.210 C 
ATOM     26  O   UNL     1       8.796   5.816  23.164  0.00  0.00    -0.336 OA
ATOM     27  C   UNL     1       9.627   5.367  24.254  0.00  0.00    +0.267 C 
ATOM     28  C   UNL     1       9.239   6.032  25.575  0.00  0.00    +0.087 C 
ATOM     29  O   UNL     1       9.664   3.949  24.352  0.00  0.00    -0.336 OA
ATOM     30  C   UNL     1       8.378   3.341  24.462  0.00  0.00    +0.210 C 
BRANCH  27  31
ATOM     31  C   UNL     1      11.072   5.851  23.904  0.00  0.00    +0.365 C 
ATOM     32  O   UNL     1      11.790   6.533  24.623  0.00  0.00    -0.245 OA
BRANCH  31  33
ATOM     33  O   UNL     1      11.468   5.443  22.665  0.00  0.00    -0.477 OA
ATOM     34  H   UNL     1      12.179   6.057  22.365  0.00  0.00    +0.295 HD
ENDBRANCH  31  33
ENDBRANCH  27  31
ENDBRANCH  23  24
ENDBRANCH  21  23
ENDBRANCH  18  19
ENDBRANCH   1  18
TORSDOF 11
ENDMDL
MODEL 9
REMARK VINA RESULT:      -6.3      1.964      7.339
REMARK  Name = 
REMARK  13 active torsions:
REMARK  status: ('A' for Active; 'I' for Inactive)
REMARK    1  A    between atoms: C_2  and  O_12
REMARK    2  A    between atoms: C_5  and  C_6
REMARK    3  A    between atoms: C_5  and  C_9
REMARK    4  A    between atoms: C_9  and  O_10
REMARK    5  A    between atoms: O_12  and  C_13
REMARK    6  A    between atoms: N_15  and  C_16
REMARK    7  A    between atoms: C_16  and  C_17
REMARK    8  A    between atoms: C_17  and  N_18
REMARK    9  A    between atoms: C_19  and  O_21
REMARK   10  A    between atoms: O_21  and  C_22
REMARK   11  A    between atoms: C_26  and  C_27
REMARK   12  A    between atoms: C_26  and  C_30
REMARK   13  A    between atoms: C_30  and  O_31
REMARK                            x       y       z     vdW  Elec       q    Type
REMARK                         _______ _______ _______ _____ _____    ______ ____
ROOT
ATOM      1  C   UNL     1       8.762  -4.832  26.473  0.00  0.00    +0.126 C 
ENDROOT
BRANCH   1   3
ATOM      2  C   UNL     1       6.488  -5.593  27.038  0.00  0.00    +0.401 C 
ATOM      3  N   UNL     1       7.537  -5.540  26.176  0.00  0.00    -0.280 N 
ATOM      4  H   UNL     1       7.321  -5.803  25.224  0.00  0.00    +0.152 HD
ATOM      5  O   UNL     1       6.457  -5.101  28.155  0.00  0.00    -0.226 OA
BRANCH   2   6
ATOM      6  O   UNL     1       5.440  -6.166  26.407  0.00  0.00    -0.442 OA
BRANCH   6   7
ATOM      7  C   UNL     1       5.090  -5.571  25.142  0.00  0.00    +0.229 C 
ATOM      8  C   UNL     1       3.693  -4.971  25.256  0.00  0.00    +0.210 C 
ATOM      9  O   UNL     1       2.734  -5.984  25.547  0.00  0.00    -0.336 OA
ATOM     10  C   UNL     1       2.716  -7.026  24.584  0.00  0.00    +0.267 C 
ATOM     11  C   UNL     1       1.797  -8.099  25.170  0.00  0.00    +0.087 C 
ATOM     12  O   UNL     1       4.003  -7.648  24.423  0.00  0.00    -0.336 OA
ATOM     13  C   UNL     1       5.038  -6.700  24.110  0.00  0.00    +0.210 C 
BRANCH  10  14
ATOM     14  C   UNL     1       2.128  -6.681  23.174  0.00  0.00    +0.365 C 
ATOM     15  O   UNL     1       1.828  -5.566  22.777  0.00  0.00    -0.245 OA
BRANCH  14  16
ATOM     16  O   UNL     1       2.021  -7.789  22.386  0.00  0.00    -0.477 OA
ATOM     17  H   UNL     1       1.529  -7.572  21.562  0.00  0.00    +0.295 HD
ENDBRANCH  14  16
ENDBRANCH  10  14
ENDBRANCH   6   7
ENDBRANCH   2   6
ENDBRANCH   1   3
BRANCH   1  18
ATOM     18  C   UNL     1       9.768  -4.836  25.319  0.00  0.00    +0.126 C 
BRANCH  18  19
ATOM     19  N   UNL     1       9.782  -3.579  24.604  0.00  0.00    -0.280 N 
ATOM     20  H   UNL     1      10.413  -2.838  24.895  0.00  0.00    +0.152 HD
ATOM     21  C   UNL     1       8.801  -3.211  23.734  0.00  0.00    +0.401 C 
ATOM     22  O   UNL     1       7.893  -3.927  23.347  0.00  0.00    -0.226 OA
BRANCH  21  23
ATOM     23  O   UNL     1       8.944  -1.901  23.439  0.00  0.00    -0.442 OA
BRANCH  23  24
ATOM     24  C   UNL     1       9.211  -1.053  24.583  0.00  0.00    +0.229 C 
ATOM     25  C   UNL     1       7.958  -0.226  24.860  0.00  0.00    +0.210 C 
ATOM     26  O   UNL     1       7.672   0.691  23.798  0.00  0.00    -0.336 OA
ATOM     27  C   UNL     1       8.790   1.536  23.455  0.00  0.00    +0.267 C 
ATOM     28  C   UNL     1       9.022   2.624  24.504  0.00  0.00    +0.087 C 
ATOM     29  O   UNL     1       9.967   0.786  23.183  0.00  0.00    -0.336 OA
ATOM     30  C   UNL     1      10.351  -0.093  24.239  0.00  0.00    +0.210 C 
BRANCH  27  31
ATOM     31  C   UNL     1       8.376   2.257  22.131  0.00  0.00    +0.365 C 
ATOM     32  O   UNL     1       7.794   3.330  22.054  0.00  0.00    -0.245 OA
BRANCH  31  33
ATOM     33  O   UNL     1       8.722   1.540  21.023  0.00  0.00    -0.477 OA
ATOM     34  H   UNL     1       9.147   0.706  21.332  0.00  0.00    +0.295 HD
ENDBRANCH  31  33
ENDBRANCH  27  31
ENDBRANCH  23  24
ENDBRANCH  21  23
ENDBRANCH  18  19
ENDBRANCH   1  18
TORSDOF 11
ENDMDL
