MODEL 1
REMARK VINA RESULT:      -4.8      0.000      0.000
REMARK  Name = 
REMARK  5 active torsions:
REMARK  status: ('A' for Active; 'I' for Inactive)
REMARK    1  A    between atoms: O_1  and  C_2
REMARK    2  A    between atoms: C_5  and  O_6
REMARK    3  A    between atoms: C_5  and  C_12
REMARK    4  A    between atoms: C_9  and  O_11
REMARK    5  A    between atoms: C_12  and  O_13
REMARK                            x       y       z     vdW  Elec       q    Type
REMARK                         _______ _______ _______ _____ _____    ______ ____
ROOT
ATOM      1  C   UNL     1      10.262   1.386  24.052  0.00  0.00    +0.150 C 
ATOM      2  C   UNL     1       9.777   2.351  22.939  0.00  0.00    +0.166 C 
ATOM      3  C   UNL     1       9.062   1.700  21.797  0.00  0.00    +0.005 C 
ATOM      4  C   UNL     1       9.021   0.379  21.597  0.00  0.00    +0.017 C 
ATOM      5  C   UNL     1       9.673  -0.623  22.495  0.00  0.00    +0.183 C 
ATOM      6  C   UNL     1      10.540  -0.066  23.635  0.00  0.00    +0.085 C 
ENDROOT
BRANCH   1   7
ATOM      7  O   UNL     1       9.350   1.390  25.156  0.00  0.00    -0.389 OA
ATOM      8  H   UNL     1       8.765   2.160  25.082  0.00  0.00    +0.210 HD
ENDBRANCH   1   7
BRANCH   2   9
ATOM      9  O   UNL     1      10.889   3.018  22.361  0.00  0.00    -0.385 OA
ATOM     10  H   UNL     1      11.113   2.528  21.551  0.00  0.00    +0.210 HD
ENDBRANCH   2   9
BRANCH   5  11
ATOM     11  C   UNL     1       8.561  -1.537  23.068  0.00  0.00    +0.341 C 
ATOM     12  O   UNL     1       7.995  -1.361  24.140  0.00  0.00    -0.247 OA
BRANCH  11  13
ATOM     13  O   UNL     1       8.279  -2.557  22.227  0.00  0.00    -0.478 OA
ATOM     14  H   UNL     1       9.139  -2.908  21.887  0.00  0.00    +0.295 HD
ENDBRANCH  11  13
ENDBRANCH   5  11
BRANCH   5  15
ATOM     15  O   UNL     1      10.499  -1.456  21.657  0.00  0.00    -0.374 OA
ATOM     16  H   UNL     1       9.934  -1.719  20.902  0.00  0.00    +0.211 HD
ENDBRANCH   5  15
TORSDOF 5
ENDMDL
MODEL 2
REMARK VINA RESULT:      -4.8      1.549      2.642
REMARK  Name = 
REMARK  5 active torsions:
REMARK  status: ('A' for Active; 'I' for Inactive)
REMARK    1  A    between atoms: O_1  and  C_2
REMARK    2  A    between atoms: C_5  and  O_6
REMARK    3  A    between atoms: C_5  and  C_12
REMARK    4  A    between atoms: C_9  and  O_11
REMARK    5  A    between atoms: C_12  and  O_13
REMARK                            x       y       z     vdW  Elec       q    Type
REMARK                         _______ _______ _______ _____ _____    ______ ____
ROOT
ATOM      1  C   UNL     1       8.812   1.309  22.423  0.00  0.00    +0.150 C 
ATOM      2  C   UNL     1       9.862   2.184  23.154  0.00  0.00    +0.166 C 
ATOM      3  C   UNL     1      10.775   1.445  24.082  0.00  0.00    +0.005 C 
ATOM      4  C   UNL     1      10.590   0.175  24.456  0.00  0.00    +0.017 C 
ATOM      5  C   UNL     1       9.455  -0.678  23.986  0.00  0.00    +0.183 C 
ATOM      6  C   UNL     1       8.386   0.010  23.124  0.00  0.00    +0.085 C 
ENDROOT
BRANCH   1   7
ATOM      7  O   UNL     1       9.246   1.002  21.094  0.00  0.00    -0.389 OA
ATOM      8  H   UNL     1       9.571   0.088  21.069  0.00  0.00    +0.210 HD
ENDBRANCH   1   7
BRANCH   2   9
ATOM      9  O   UNL     1       9.207   3.154  23.957  0.00  0.00    -0.385 OA
ATOM     10  H   UNL     1       9.861   3.457  24.611  0.00  0.00    +0.210 HD
ENDBRANCH   2   9
BRANCH   5  11
ATOM     11  C   UNL     1      10.058  -1.886  23.226  0.00  0.00    +0.341 C 
ATOM     12  O   UNL     1      10.266  -2.988  23.716  0.00  0.00    -0.247 OA
BRANCH  11  13
ATOM     13  O   UNL     1      10.321  -1.575  21.936  0.00  0.00    -0.478 OA
ATOM     14  H   UNL     1       9.643  -0.914  21.646  0.00  0.00    +0.295 HD
ENDBRANCH  11  13
ENDBRANCH   5  11
BRANCH   5  15
ATOM     15  O   UNL     1       8.820  -1.211  25.167  0.00  0.00    -0.374 OA
ATOM     16  H   UNL     1       9.232  -2.085  25.321  0.00  0.00    +0.211 HD
ENDBRANCH   5  15
TORSDOF 5
ENDMDL
MODEL 3
REMARK VINA RESULT:      -4.7      1.129      4.020
REMARK  Name = 
REMARK  5 active torsions:
REMARK  status: ('A' for Active; 'I' for Inactive)
REMARK    1  A    between atoms: O_1  and  C_2
REMARK    2  A    between atoms: C_5  and  O_6
REMARK    3  A    between atoms: C_5  and  C_12
REMARK    4  A    between atoms: C_9  and  O_11
REMARK    5  A    between atoms: C_12  and  O_13
REMARK                            x       y       z     vdW  Elec       q    Type
REMARK                         _______ _______ _______ _____ _____    ______ ____
ROOT
ATOM      1  C   UNL     1       9.694  -1.468  22.749  0.00  0.00    +0.150 C 
ATOM      2  C   UNL     1       8.145  -1.536  22.735  0.00  0.00    +0.166 C 
ATOM      3  C   UNL     1       7.448  -0.237  22.992  0.00  0.00    +0.005 C 
ATOM      4  C   UNL     1       8.062   0.867  23.429  0.00  0.00    +0.017 C 
ATOM      5  C   UNL     1       9.529   0.953  23.705  0.00  0.00    +0.183 C 
ATOM      6  C   UNL     1      10.330  -0.353  23.592  0.00  0.00    +0.085 C 
ENDROOT
BRANCH   1   7
ATOM      7  O   UNL     1      10.208  -1.398  21.415  0.00  0.00    -0.389 OA
ATOM      8  H   UNL     1      10.472  -0.484  21.224  0.00  0.00    +0.210 HD
ENDBRANCH   1   7
BRANCH   2   9
ATOM      9  O   UNL     1       7.692  -2.419  23.750  0.00  0.00    -0.385 OA
ATOM     10  H   UNL     1       8.365  -2.399  24.452  0.00  0.00    +0.210 HD
ENDBRANCH   2   9
BRANCH   5  11
ATOM     11  C   UNL     1      10.124   2.027  22.758  0.00  0.00    +0.341 C 
ATOM     12  O   UNL     1      10.792   2.986  23.122  0.00  0.00    -0.247 OA
BRANCH  11  13
ATOM     13  O   UNL     1       9.822   1.767  21.466  0.00  0.00    -0.478 OA
ATOM     14  H   UNL     1       9.328   0.910  21.443  0.00  0.00    +0.295 HD
ENDBRANCH  11  13
ENDBRANCH   5  11
BRANCH   5  15
ATOM     15  O   UNL     1       9.670   1.463  25.046  0.00  0.00    -0.374 OA
ATOM     16  H   UNL     1      10.554   1.882  25.082  0.00  0.00    +0.211 HD
ENDBRANCH   5  15
TORSDOF 5
ENDMDL
MODEL 4
REMARK VINA RESULT:      -4.7      4.360      7.053
REMARK  Name = 
REMARK  5 active torsions:
REMARK  status: ('A' for Active; 'I' for Inactive)
REMARK    1  A    between atoms: O_1  and  C_2
REMARK    2  A    between atoms: C_5  and  O_6
REMARK    3  A    between atoms: C_5  and  C_12
REMARK    4  A    between atoms: C_9  and  O_11
REMARK    5  A    between atoms: C_12  and  O_13
REMARK                            x       y       z     vdW  Elec       q    Type
REMARK                         _______ _______ _______ _____ _____    ______ ____
ROOT
ATOM      1  C   UNL     1       5.975  -5.846  22.125  0.00  0.00    +0.150 C 
ATOM      2  C   UNL     1       5.054  -5.954  23.368  0.00  0.00    +0.166 C 
ATOM      3  C   UNL     1       5.594  -5.334  24.618  0.00  0.00    +0.005 C 
ATOM      4  C   UNL     1       6.855  -4.912  24.758  0.00  0.00    +0.017 C 
ATOM      5  C   UNL     1       7.888  -4.993  23.680  0.00  0.00    +0.183 C 
ATOM      6  C   UNL     1       7.483  -5.723  22.390  0.00  0.00    +0.085 C 
ENDROOT
BRANCH   1   7
ATOM      7  O   UNL     1       5.559  -4.767  21.281  0.00  0.00    -0.389 OA
ATOM      8  H   UNL     1       6.344  -4.300  20.953  0.00  0.00    +0.210 HD
ENDBRANCH   1   7
BRANCH   2   9
ATOM      9  O   UNL     1       4.832  -7.320  23.686  0.00  0.00    -0.385 OA
ATOM     10  H   UNL     1       5.177  -7.452  24.586  0.00  0.00    +0.210 HD
ENDBRANCH   2   9
BRANCH   5  11
ATOM     11  C   UNL     1       8.344  -3.548  23.355  0.00  0.00    +0.341 C 
ATOM     12  O   UNL     1       7.699  -2.744  22.695  0.00  0.00    -0.247 OA
BRANCH  11  13
ATOM     13  O   UNL     1       9.549  -3.276  23.906  0.00  0.00    -0.478 OA
ATOM     14  H   UNL     1       9.836  -2.391  23.567  0.00  0.00    +0.295 HD
ENDBRANCH  11  13
ENDBRANCH   5  11
BRANCH   5  15
ATOM     15  O   UNL     1       9.030  -5.667  24.248  0.00  0.00    -0.374 OA
ATOM     16  H   UNL     1       9.795  -5.408  23.696  0.00  0.00    +0.211 HD
ENDBRANCH   5  15
TORSDOF 5
ENDMDL
MODEL 5
REMARK VINA RESULT:      -4.7      1.497      2.872
REMARK  Name = 
REMARK  5 active torsions:
REMARK  status: ('A' for Active; 'I' for Inactive)
REMARK    1  A    between atoms: O_1  and  C_2
REMARK    2  A    between atoms: C_5  and  O_6
REMARK    3  A    between atoms: C_5  and  C_12
REMARK    4  A    between atoms: C_9  and  O_11
REMARK    5  A    between atoms: C_12  and  O_13
REMARK                            x       y       z     vdW  Elec       q    Type
REMARK                         _______ _______ _______ _____ _____    ______ ____
ROOT
ATOM      1  C   UNL     1       9.259  -0.358  21.637  0.00  0.00    +0.150 C 
ATOM      2  C   UNL     1      10.048   0.930  21.987  0.00  0.00    +0.166 C 
ATOM      3  C   UNL     1      10.166   1.229  23.449  0.00  0.00    +0.005 C 
ATOM      4  C   UNL     1       9.473   0.594  24.399  0.00  0.00    +0.017 C 
ATOM      5  C   UNL     1       8.499  -0.508  24.128  0.00  0.00    +0.183 C 
ATOM      6  C   UNL     1       8.203  -0.820  22.653  0.00  0.00    +0.085 C 
ENDROOT
BRANCH   1   7
ATOM      7  O   UNL     1      10.156  -1.441  21.368  0.00  0.00    -0.389 OA
ATOM      8  H   UNL     1      11.050  -1.190  21.648  0.00  0.00    +0.210 HD
ENDBRANCH   1   7
BRANCH   2   9
ATOM      9  O   UNL     1       9.403   2.060  21.419  0.00  0.00    -0.385 OA
ATOM     10  H   UNL     1       9.646   2.070  20.477  0.00  0.00    +0.210 HD
ENDBRANCH   2   9
BRANCH   5  11
ATOM     11  C   UNL     1       9.013  -1.779  24.850  0.00  0.00    +0.341 C 
ATOM     12  O   UNL     1       8.672  -2.132  25.972  0.00  0.00    -0.247 OA
BRANCH  11  13
ATOM     13  O   UNL     1       9.885  -2.466  24.078  0.00  0.00    -0.478 OA
ATOM     14  H   UNL     1      10.791  -2.313  24.445  0.00  0.00    +0.295 HD
ENDBRANCH  11  13
ENDBRANCH   5  11
BRANCH   5  15
ATOM     15  O   UNL     1       7.264  -0.138  24.775  0.00  0.00    -0.374 OA
ATOM     16  H   UNL     1       6.550  -0.410  24.163  0.00  0.00    +0.211 HD
ENDBRANCH   5  15
TORSDOF 5
ENDMDL
MODEL 6
REMARK VINA RESULT:      -4.6      1.323      3.877
REMARK  Name = 
REMARK  5 active torsions:
REMARK  status: ('A' for Active; 'I' for Inactive)
REMARK    1  A    between atoms: O_1  and  C_2
REMARK    2  A    between atoms: C_5  and  O_6
REMARK    3  A    between atoms: C_5  and  C_12
REMARK    4  A    between atoms: C_9  and  O_11
REMARK    5  A    between atoms: C_12  and  O_13
REMARK                            x       y       z     vdW  Elec       q    Type
REMARK                         _______ _______ _______ _____ _____    ______ ____
ROOT
ATOM      1  C   UNL     1       8.623  -0.660  22.320  0.00  0.00    +0.150 C 
ATOM      2  C   UNL     1       9.695  -1.144  23.330  0.00  0.00    +0.166 C 
ATOM      3  C   UNL     1      10.482  -0.059  23.995  0.00  0.00    +0.005 C 
ATOM      4  C   UNL     1      10.457   1.222  23.614  0.00  0.00    +0.017 C 
ATOM      5  C   UNL     1       9.629   1.741  22.482  0.00  0.00    +0.183 C 
ATOM      6  C   UNL     1       8.871   0.698  21.646  0.00  0.00    +0.085 C 
ENDROOT
BRANCH   1   7
ATOM      7  O   UNL     1       7.326  -0.653  22.925  0.00  0.00    -0.389 OA
ATOM      8  H   UNL     1       7.170  -1.510  23.352  0.00  0.00    +0.210 HD
ENDBRANCH   1   7
BRANCH   2   9
ATOM      9  O   UNL     1      10.652  -1.956  22.665  0.00  0.00    -0.385 OA
ATOM     10  H   UNL     1      10.326  -2.871  22.726  0.00  0.00    +0.210 HD
ENDBRANCH   2   9
BRANCH   5  11
ATOM     11  C   UNL     1       8.639   2.783  23.063  0.00  0.00    +0.341 C 
ATOM     12  O   UNL     1       8.268   2.820  24.229  0.00  0.00    -0.247 OA
BRANCH  11  13
ATOM     13  O   UNL     1       8.238   3.662  22.116  0.00  0.00    -0.478 OA
ATOM     14  H   UNL     1       7.488   3.245  21.623  0.00  0.00    +0.295 HD
ENDBRANCH  11  13
ENDBRANCH   5  11
BRANCH   5  15
ATOM     15  O   UNL     1      10.523   2.464  21.612  0.00  0.00    -0.374 OA
ATOM     16  H   UNL     1      10.346   2.131  20.709  0.00  0.00    +0.211 HD
ENDBRANCH   5  15
TORSDOF 5
ENDMDL
MODEL 7
REMARK VINA RESULT:      -4.6      1.870      2.522
REMARK  Name = 
REMARK  5 active torsions:
REMARK  status: ('A' for Active; 'I' for Inactive)
REMARK    1  A    between atoms: O_1  and  C_2
REMARK    2  A    between atoms: C_5  and  O_6
REMARK    3  A    between atoms: C_5  and  C_12
REMARK    4  A    between atoms: C_9  and  O_11
REMARK    5  A    between atoms: C_12  and  O_13
REMARK                            x       y       z     vdW  Elec       q    Type
REMARK                         _______ _______ _______ _____ _____    ______ ____
ROOT
ATOM      1  C   UNL     1       7.234   0.546  23.351  0.00  0.00    +0.150 C 
ATOM      2  C   UNL     1       7.401   1.564  22.194  0.00  0.00    +0.166 C 
ATOM      3  C   UNL     1       8.718   1.512  21.484  0.00  0.00    +0.005 C 
ATOM      4  C   UNL     1       9.775   0.821  21.921  0.00  0.00    +0.017 C 
ATOM      5  C   UNL     1       9.778  -0.001  23.170  0.00  0.00    +0.183 C 
ATOM      6  C   UNL     1       8.519   0.073  24.048  0.00  0.00    +0.085 C 
ENDROOT
BRANCH   1   7
ATOM      7  O   UNL     1       6.490  -0.597  22.916  0.00  0.00    -0.389 OA
ATOM      8  H   UNL     1       6.975  -1.037  22.199  0.00  0.00    +0.210 HD
ENDBRANCH   1   7
BRANCH   2   9
ATOM      9  O   UNL     1       7.291   2.887  22.695  0.00  0.00    -0.385 OA
ATOM     10  H   UNL     1       6.573   2.873  23.352  0.00  0.00    +0.210 HD
ENDBRANCH   2   9
BRANCH   5  11
ATOM     11  C   UNL     1      10.062  -1.470  22.766  0.00  0.00    +0.341 C 
ATOM     12  O   UNL     1      10.139  -2.408  23.549  0.00  0.00    -0.247 OA
BRANCH  11  13
ATOM     13  O   UNL     1      10.205  -1.594  21.427  0.00  0.00    -0.478 OA
ATOM     14  H   UNL     1      10.479  -2.527  21.243  0.00  0.00    +0.295 HD
ENDBRANCH  11  13
ENDBRANCH   5  11
BRANCH   5  15
ATOM     15  O   UNL     1      10.908   0.436  23.952  0.00  0.00    -0.374 OA
ATOM     16  H   UNL     1      11.179   1.297  23.573  0.00  0.00    +0.211 HD
ENDBRANCH   5  15
TORSDOF 5
ENDMDL
MODEL 8
REMARK VINA RESULT:      -4.5      1.754      2.626
REMARK  Name = 
REMARK  5 active torsions:
REMARK  status: ('A' for Active; 'I' for Inactive)
REMARK    1  A    between atoms: O_1  and  C_2
REMARK    2  A    between atoms: C_5  and  O_6
REMARK    3  A    between atoms: C_5  and  C_12
REMARK    4  A    between atoms: C_9  and  O_11
REMARK    5  A    between atoms: C_12  and  O_13
REMARK                            x       y       z     vdW  Elec       q    Type
REMARK                         _______ _______ _______ _____ _____    ______ ____
ROOT
ATOM      1  C   UNL     1       7.879   1.308  22.829  0.00  0.00    +0.150 C 
ATOM      2  C   UNL     1       8.894   0.939  21.717  0.00  0.00    +0.166 C 
ATOM      3  C   UNL     1       9.920  -0.081  22.101  0.00  0.00    +0.005 C 
ATOM      4  C   UNL     1      10.125  -0.498  23.354  0.00  0.00    +0.017 C 
ATOM      5  C   UNL     1       9.348  -0.011  24.535  0.00  0.00    +0.183 C 
ATOM      6  C   UNL     1       8.349   1.128  24.281  0.00  0.00    +0.085 C 
ENDROOT
BRANCH   1   7
ATOM      7  O   UNL     1       6.649   0.600  22.644  0.00  0.00    -0.389 OA
ATOM      8  H   UNL     1       6.140   1.027  21.937  0.00  0.00    +0.210 HD
ENDBRANCH   1   7
BRANCH   2   9
ATOM      9  O   UNL     1       9.629   2.092  21.334  0.00  0.00    -0.385 OA
ATOM     10  H   UNL     1       9.306   2.822  21.891  0.00  0.00    +0.210 HD
ENDBRANCH   2   9
BRANCH   5  11
ATOM     11  C   UNL     1       8.620  -1.231  25.156  0.00  0.00    +0.341 C 
ATOM     12  O   UNL     1       8.764  -1.618  26.308  0.00  0.00    -0.247 OA
BRANCH  11  13
ATOM     13  O   UNL     1       7.789  -1.816  24.263  0.00  0.00    -0.478 OA
ATOM     14  H   UNL     1       7.258  -1.097  23.838  0.00  0.00    +0.295 HD
ENDBRANCH  11  13
ENDBRANCH   5  11
BRANCH   5  15
ATOM     15  O   UNL     1      10.312   0.434  25.511  0.00  0.00    -0.374 OA
ATOM     16  H   UNL     1      10.662  -0.378  25.931  0.00  0.00    +0.211 HD
ENDBRANCH   5  15
TORSDOF 5
ENDMDL
MODEL 9
REMARK VINA RESULT:      -4.5      1.747      3.729
REMARK  Name = 
REMARK  5 active torsions:
REMARK  status: ('A' for Active; 'I' for Inactive)
REMARK    1  A    between atoms: O_1  and  C_2
REMARK    2  A    between atoms: C_5  and  O_6
REMARK    3  A    between atoms: C_5  and  C_12
REMARK    4  A    between atoms: C_9  and  O_11
REMARK    5  A    between atoms: C_12  and  O_13
REMARK                            x       y       z     vdW  Elec       q    Type
REMARK                         _______ _______ _______ _____ _____    ______ ____
ROOT
ATOM      1  C   UNL     1       9.605  -1.007  24.826  0.00  0.00    +0.150 C 
ATOM      2  C   UNL     1       8.441  -0.323  25.588  0.00  0.00    +0.166 C 
ATOM      3  C   UNL     1       8.071   1.041  25.097  0.00  0.00    +0.005 C 
ATOM      4  C   UNL     1       8.802   1.745  24.227  0.00  0.00    +0.017 C 
ATOM      5  C   UNL     1      10.079   1.257  23.621  0.00  0.00    +0.183 C 
ATOM      6  C   UNL     1      10.623  -0.082  24.143  0.00  0.00    +0.085 C 
ENDROOT
BRANCH   1   7
ATOM      7  O   UNL     1       9.100  -1.939  23.864  0.00  0.00    -0.389 OA
ATOM      8  H   UNL     1       8.393  -2.464  24.271  0.00  0.00    +0.210 HD
ENDBRANCH   1   7
BRANCH   2   9
ATOM      9  O   UNL     1       8.792  -0.154  26.953  0.00  0.00    -0.385 OA
ATOM     10  H   UNL     1       9.267   0.693  27.012  0.00  0.00    +0.210 HD
ENDBRANCH   2   9
BRANCH   5  11
ATOM     11  C   UNL     1       9.876   1.189  22.086  0.00  0.00    +0.341 C 
ATOM     12  O   UNL     1       9.522   0.191  21.472  0.00  0.00    -0.247 OA
BRANCH  11  13
ATOM     13  O   UNL     1      10.129   2.382  21.502  0.00  0.00    -0.478 OA
ATOM     14  H   UNL     1      10.762   2.870  22.085  0.00  0.00    +0.295 HD
ENDBRANCH  11  13
ENDBRANCH   5  11
BRANCH   5  15
ATOM     15  O   UNL     1      11.069   2.279  23.860  0.00  0.00    -0.374 OA
ATOM     16  H   UNL     1      11.292   2.646  22.981  0.00  0.00    +0.211 HD
ENDBRANCH   5  15
TORSDOF 5
ENDMDL
