MODEL 1
REMARK VINA RESULT:      -7.6      0.000      0.000
REMARK  Name = 
REMARK  5 active torsions:
REMARK  status: ('A' for Active; 'I' for Inactive)
REMARK    1  A    between atoms: C_2  and  C_3
REMARK    2  A    between atoms: C_3  and  N_4
REMARK    3  A    between atoms: C_5  and  C_7
REMARK    4  A    between atoms: N_14  and  C_18
REMARK    5  A    between atoms: C_21  and  N_24
REMARK                            x       y       z     vdW  Elec       q    Type
REMARK                         _______ _______ _______ _____ _____    ______ ____
ROOT
ATOM      1  C   UNL     1      10.775   2.057  23.349  0.00  0.00    +0.213 C 
ATOM      2  O   UNL     1      10.216   1.893  22.038  0.00  0.00    -0.444 OA
ATOM      3  C   UNL     1       9.604   0.662  22.015  0.00  0.00    +0.408 C 
ATOM      4  O   UNL     1       9.222   0.163  20.969  0.00  0.00    -0.226 OA
ATOM      5  N   UNL     1       9.486   0.181  23.316  0.00  0.00    -0.234 N 
ATOM      6  C   UNL     1       9.861   1.228  24.218  0.00  0.00    +0.163 C 
ENDROOT
BRANCH   5   7
ATOM      7  C   UNL     1       8.953  -1.064  23.724  0.00  0.00    +0.040 A 
ATOM      8  C   UNL     1       9.756  -2.208  23.807  0.00  0.00    +0.025 A 
ATOM      9  C   UNL     1       9.239  -3.432  24.269  0.00  0.00    +0.025 A 
ATOM     10  C   UNL     1       7.906  -3.548  24.678  0.00  0.00    +0.037 A 
ATOM     11  C   UNL     1       7.090  -2.424  24.514  0.00  0.00    +0.025 A 
ATOM     12  C   UNL     1       7.605  -1.203  24.051  0.00  0.00    +0.025 A 
BRANCH  10  13
ATOM     13  N   UNL     1       7.413  -4.710  25.349  0.00  0.00    -0.267 N 
ATOM     14  C   UNL     1       6.380  -5.500  24.815  0.00  0.00    +0.246 C 
ATOM     15  O   UNL     1       6.129  -5.629  23.616  0.00  0.00    -0.273 OA
ATOM     16  C   UNL     1       5.438  -6.099  25.877  0.00  0.00    +0.256 C 
ATOM     17  O   UNL     1       5.982  -6.430  27.145  0.00  0.00    -0.369 OA
ATOM     18  C   UNL     1       6.772  -5.351  27.641  0.00  0.00    +0.180 C 
ATOM     19  C   UNL     1       7.918  -5.083  26.671  0.00  0.00    +0.142 C 
ENDBRANCH  10  13
ENDBRANCH   5   7
BRANCH   1  20
ATOM     20  C   UNL     1      10.802   3.529  23.737  0.00  0.00    +0.150 C 
BRANCH  20  21
ATOM     21  N   UNL     1       9.657   4.245  23.210  0.00  0.00    -0.307 N 
ATOM     22  H   UNL     1       9.706   4.599  22.262  0.00  0.00    +0.149 HD
ATOM     23  C   UNL     1       8.626   4.702  24.002  0.00  0.00    +0.251 C 
ATOM     24  O   UNL     1       8.606   4.485  25.211  0.00  0.00    -0.270 OA
BRANCH  23  25
ATOM     25  C   UNL     1       7.591   5.458  23.307  0.00  0.00    +0.075 A 
ATOM     26  S   UNL     1       5.928   5.315  23.724  0.00  0.00    -0.072 S 
ATOM     27  C   UNL     1       5.479   6.469  22.571  0.00  0.00    +0.079 A 
ATOM     28 CL   UNL     1       3.825   6.901  22.412  0.00  0.00    -0.076 Cl
ATOM     29  C   UNL     1       6.532   6.961  21.854  0.00  0.00    +0.028 A 
ATOM     30  C   UNL     1       7.762   6.368  22.276  0.00  0.00    +0.022 A 
ENDBRANCH  23  25
ENDBRANCH  20  21
ENDBRANCH   1  20
TORSDOF 5
ENDMDL
MODEL 2
REMARK VINA RESULT:      -7.4      4.266      9.667
REMARK  Name = 
REMARK  5 active torsions:
REMARK  status: ('A' for Active; 'I' for Inactive)
REMARK    1  A    between atoms: C_2  and  C_3
REMARK    2  A    between atoms: C_3  and  N_4
REMARK    3  A    between atoms: C_5  and  C_7
REMARK    4  A    between atoms: N_14  and  C_18
REMARK    5  A    between atoms: C_21  and  N_24
REMARK                            x       y       z     vdW  Elec       q    Type
REMARK                         _______ _______ _______ _____ _____    ______ ____
ROOT
ATOM      1  C   UNL     1       7.171  -5.326  22.067  0.00  0.00    +0.213 C 
ATOM      2  O   UNL     1       7.893  -5.545  23.287  0.00  0.00    -0.444 OA
ATOM      3  C   UNL     1       8.458  -4.342  23.641  0.00  0.00    +0.408 C 
ATOM      4  O   UNL     1       9.299  -4.270  24.523  0.00  0.00    -0.226 OA
ATOM      5  N   UNL     1       7.885  -3.323  22.884  0.00  0.00    -0.234 N 
ATOM      6  C   UNL     1       6.778  -3.871  22.159  0.00  0.00    +0.163 C 
ENDROOT
BRANCH   5   7
ATOM      7  C   UNL     1       8.213  -1.948  22.911  0.00  0.00    +0.040 A 
ATOM      8  C   UNL     1       8.990  -1.364  21.903  0.00  0.00    +0.025 A 
ATOM      9  C   UNL     1       9.266   0.014  21.899  0.00  0.00    +0.025 A 
ATOM     10  C   UNL     1       8.762   0.858  22.894  0.00  0.00    +0.037 A 
ATOM     11  C   UNL     1       8.058   0.256  23.942  0.00  0.00    +0.025 A 
ATOM     12  C   UNL     1       7.783  -1.120  23.947  0.00  0.00    +0.025 A 
BRANCH  10  13
ATOM     13  N   UNL     1       8.844   2.283  22.800  0.00  0.00    -0.267 N 
ATOM     14  C   UNL     1       9.867   3.015  23.426  0.00  0.00    +0.246 C 
ATOM     15  O   UNL     1      10.998   2.594  23.670  0.00  0.00    -0.273 OA
ATOM     16  C   UNL     1       9.417   4.391  23.954  0.00  0.00    +0.256 C 
ATOM     17  O   UNL     1       8.401   5.082  23.243  0.00  0.00    -0.369 OA
ATOM     18  C   UNL     1       7.312   4.206  22.962  0.00  0.00    +0.180 C 
ATOM     19  C   UNL     1       7.808   3.048  22.104  0.00  0.00    +0.142 C 
ENDBRANCH  10  13
ENDBRANCH   5   7
BRANCH   1  20
ATOM     20  C   UNL     1       5.978  -6.267  21.977  0.00  0.00    +0.150 C 
BRANCH  20  21
ATOM     21  N   UNL     1       5.332  -6.440  23.263  0.00  0.00    -0.307 N 
ATOM     22  H   UNL     1       5.706  -7.133  23.899  0.00  0.00    +0.149 HD
ATOM     23  C   UNL     1       4.091  -5.916  23.558  0.00  0.00    +0.251 C 
ATOM     24  O   UNL     1       3.480  -5.228  22.744  0.00  0.00    -0.270 OA
BRANCH  23  25
ATOM     25  C   UNL     1       3.570  -6.247  24.878  0.00  0.00    +0.075 A 
ATOM     26  S   UNL     1       4.603  -6.446  26.240  0.00  0.00    -0.072 S 
ATOM     27  C   UNL     1       3.291  -6.731  27.268  0.00  0.00    +0.079 A 
ATOM     28 CL   UNL     1       3.576  -7.013  28.938  0.00  0.00    -0.076 Cl
ATOM     29  C   UNL     1       2.083  -6.703  26.632  0.00  0.00    +0.028 A 
ATOM     30  C   UNL     1       2.244  -6.429  25.238  0.00  0.00    +0.022 A 
ENDBRANCH  23  25
ENDBRANCH  20  21
ENDBRANCH   1  20
TORSDOF 5
ENDMDL
MODEL 3
REMARK VINA RESULT:      -7.1      4.031      9.796
REMARK  Name = 
REMARK  5 active torsions:
REMARK  status: ('A' for Active; 'I' for Inactive)
REMARK    1  A    between atoms: C_2  and  C_3
REMARK    2  A    between atoms: C_3  and  N_4
REMARK    3  A    between atoms: C_5  and  C_7
REMARK    4  A    between atoms: N_14  and  C_18
REMARK    5  A    between atoms: C_21  and  N_24
REMARK                            x       y       z     vdW  Elec       q    Type
REMARK                         _______ _______ _______ _____ _____    ______ ____
ROOT
ATOM      1  C   UNL     1       8.491  -3.229  24.496  0.00  0.00    +0.213 C 
ATOM      2  O   UNL     1       9.715  -3.325  23.754  0.00  0.00    -0.444 OA
ATOM      3  C   UNL     1      10.019  -2.058  23.315  0.00  0.00    +0.408 C 
ATOM      4  O   UNL     1      10.893  -1.866  22.485  0.00  0.00    -0.226 OA
ATOM      5  N   UNL     1       9.225  -1.134  23.989  0.00  0.00    -0.234 N 
ATOM      6  C   UNL     1       8.527  -1.819  25.035  0.00  0.00    +0.163 C 
ENDROOT
BRANCH   5   7
ATOM      7  C   UNL     1       9.197   0.268  23.803  0.00  0.00    +0.040 A 
ATOM      8  C   UNL     1       9.346   0.837  22.533  0.00  0.00    +0.025 A 
ATOM      9  C   UNL     1       9.258   2.227  22.340  0.00  0.00    +0.025 A 
ATOM     10  C   UNL     1       9.003   3.093  23.409  0.00  0.00    +0.037 A 
ATOM     11  C   UNL     1       8.938   2.526  24.685  0.00  0.00    +0.025 A 
ATOM     12  C   UNL     1       9.027   1.139  24.878  0.00  0.00    +0.025 A 
BRANCH  10  13
ATOM     13  N   UNL     1       8.697   4.476  23.214  0.00  0.00    -0.267 N 
ATOM     14  C   UNL     1       9.569   5.500  23.622  0.00  0.00    +0.246 C 
ATOM     15  O   UNL     1      10.794   5.400  23.710  0.00  0.00    -0.273 OA
ATOM     16  C   UNL     1       8.853   6.767  24.127  0.00  0.00    +0.256 C 
ATOM     17  O   UNL     1       7.604   7.108  23.545  0.00  0.00    -0.369 OA
ATOM     18  C   UNL     1       6.753   5.965  23.497  0.00  0.00    +0.180 C 
ATOM     19  C   UNL     1       7.412   4.886  22.644  0.00  0.00    +0.142 C 
ENDBRANCH  10  13
ENDBRANCH   5   7
BRANCH   1  20
ATOM     20  C   UNL     1       8.443  -4.289  25.587  0.00  0.00    +0.150 C 
BRANCH  20  21
ATOM     21  N   UNL     1       7.147  -4.935  25.652  0.00  0.00    -0.307 N 
ATOM     22  H   UNL     1       6.457  -4.700  24.948  0.00  0.00    +0.149 HD
ATOM     23  C   UNL     1       6.708  -5.633  26.757  0.00  0.00    +0.251 C 
ATOM     24  O   UNL     1       7.427  -5.781  27.743  0.00  0.00    -0.270 OA
BRANCH  23  25
ATOM     25  C   UNL     1       5.352  -6.158  26.668  0.00  0.00    +0.075 A 
ATOM     26  S   UNL     1       4.258  -6.078  27.993  0.00  0.00    -0.072 S 
ATOM     27  C   UNL     1       3.020  -6.795  27.091  0.00  0.00    +0.079 A 
ATOM     28 CL   UNL     1       1.482  -7.037  27.816  0.00  0.00    -0.076 Cl
ATOM     29  C   UNL     1       3.390  -7.118  25.817  0.00  0.00    +0.028 A 
ATOM     30  C   UNL     1       4.750  -6.756  25.571  0.00  0.00    +0.022 A 
ENDBRANCH  23  25
ENDBRANCH  20  21
ENDBRANCH   1  20
TORSDOF 5
ENDMDL
MODEL 4
REMARK VINA RESULT:      -7.0      1.263      1.729
REMARK  Name = 
REMARK  5 active torsions:
REMARK  status: ('A' for Active; 'I' for Inactive)
REMARK    1  A    between atoms: C_2  and  C_3
REMARK    2  A    between atoms: C_3  and  N_4
REMARK    3  A    between atoms: C_5  and  C_7
REMARK    4  A    between atoms: N_14  and  C_18
REMARK    5  A    between atoms: C_21  and  N_24
REMARK                            x       y       z     vdW  Elec       q    Type
REMARK                         _______ _______ _______ _____ _____    ______ ____
ROOT
ATOM      1  C   UNL     1      10.418   1.450  23.420  0.00  0.00    +0.213 C 
ATOM      2  O   UNL     1      10.188   1.232  22.021  0.00  0.00    -0.444 OA
ATOM      3  C   UNL     1       9.466   0.067  21.909  0.00  0.00    +0.408 C 
ATOM      4  O   UNL     1       9.303  -0.478  20.830  0.00  0.00    -0.226 OA
ATOM      5  N   UNL     1       8.974  -0.292  23.161  0.00  0.00    -0.234 N 
ATOM      6  C   UNL     1       9.228   0.786  24.070  0.00  0.00    +0.163 C 
ENDROOT
BRANCH   5   7
ATOM      7  C   UNL     1       8.218  -1.442  23.488  0.00  0.00    +0.040 A 
ATOM      8  C   UNL     1       6.845  -1.362  23.748  0.00  0.00    +0.025 A 
ATOM      9  C   UNL     1       6.083  -2.514  24.013  0.00  0.00    +0.025 A 
ATOM     10  C   UNL     1       6.667  -3.785  24.014  0.00  0.00    +0.037 A 
ATOM     11  C   UNL     1       8.052  -3.849  23.837  0.00  0.00    +0.025 A 
ATOM     12  C   UNL     1       8.813  -2.700  23.572  0.00  0.00    +0.025 A 
BRANCH  10  13
ATOM     13  N   UNL     1       5.887  -4.983  24.067  0.00  0.00    -0.267 N 
ATOM     14  C   UNL     1       5.086  -5.401  22.990  0.00  0.00    +0.246 C 
ATOM     15  O   UNL     1       5.299  -5.147  21.803  0.00  0.00    -0.273 OA
ATOM     16  C   UNL     1       3.778  -6.095  23.416  0.00  0.00    +0.256 C 
ATOM     17  O   UNL     1       3.783  -6.854  24.616  0.00  0.00    -0.369 OA
ATOM     18  C   UNL     1       4.392  -6.110  25.669  0.00  0.00    +0.180 C 
ATOM     19  C   UNL     1       5.833  -5.789  25.287  0.00  0.00    +0.142 C 
ENDBRANCH  10  13
ENDBRANCH   5   7
BRANCH   1  20
ATOM     20  C   UNL     1      10.513   2.940  23.720  0.00  0.00    +0.150 C 
BRANCH  20  21
ATOM     21  N   UNL     1       9.335   3.654  23.271  0.00  0.00    -0.307 N 
ATOM     22  H   UNL     1       8.934   3.405  22.375  0.00  0.00    +0.149 HD
ATOM     23  C   UNL     1       8.894   4.821  23.858  0.00  0.00    +0.251 C 
ATOM     24  O   UNL     1       9.465   5.298  24.836  0.00  0.00    -0.270 OA
BRANCH  23  25
ATOM     25  C   UNL     1       7.730   5.435  23.232  0.00  0.00    +0.075 A 
ATOM     26  S   UNL     1       6.125   5.002  23.676  0.00  0.00    -0.072 S 
ATOM     27  C   UNL     1       5.461   6.128  22.603  0.00  0.00    +0.079 A 
ATOM     28 CL   UNL     1       3.754   6.294  22.506  0.00  0.00    -0.076 Cl
ATOM     29  C   UNL     1       6.398   6.824  21.894  0.00  0.00    +0.028 A 
ATOM     30  C   UNL     1       7.720   6.416  22.253  0.00  0.00    +0.022 A 
ENDBRANCH  23  25
ENDBRANCH  20  21
ENDBRANCH   1  20
TORSDOF 5
ENDMDL
MODEL 5
REMARK VINA RESULT:      -7.0      3.851      9.786
REMARK  Name = 
REMARK  5 active torsions:
REMARK  status: ('A' for Active; 'I' for Inactive)
REMARK    1  A    between atoms: C_2  and  C_3
REMARK    2  A    between atoms: C_3  and  N_4
REMARK    3  A    between atoms: C_5  and  C_7
REMARK    4  A    between atoms: N_14  and  C_18
REMARK    5  A    between atoms: C_21  and  N_24
REMARK                            x       y       z     vdW  Elec       q    Type
REMARK                         _______ _______ _______ _____ _____    ______ ____
ROOT
ATOM      1  C   UNL     1       7.877  -3.313  24.002  0.00  0.00    +0.213 C 
ATOM      2  O   UNL     1       9.245  -3.552  23.644  0.00  0.00    -0.444 OA
ATOM      3  C   UNL     1       9.802  -2.330  23.349  0.00  0.00    +0.408 C 
ATOM      4  O   UNL     1      10.895  -2.243  22.813  0.00  0.00    -0.226 OA
ATOM      5  N   UNL     1       8.954  -1.318  23.792  0.00  0.00    -0.234 N 
ATOM      6  C   UNL     1       7.910  -1.915  24.570  0.00  0.00    +0.163 C 
ENDROOT
BRANCH   5   7
ATOM      7  C   UNL     1       9.136   0.077  23.647  0.00  0.00    +0.040 A 
ATOM      8  C   UNL     1       8.463   0.800  22.655  0.00  0.00    +0.025 A 
ATOM      9  C   UNL     1       8.599   2.196  22.549  0.00  0.00    +0.025 A 
ATOM     10  C   UNL     1       9.401   2.916  23.441  0.00  0.00    +0.037 A 
ATOM     11  C   UNL     1      10.135   2.178  24.374  0.00  0.00    +0.025 A 
ATOM     12  C   UNL     1      10.001   0.785  24.480  0.00  0.00    +0.025 A 
BRANCH  10  13
ATOM     13  N   UNL     1       9.390   4.345  23.494  0.00  0.00    -0.267 N 
ATOM     14  C   UNL     1      10.562   5.095  23.693  0.00  0.00    +0.246 C 
ATOM     15  O   UNL     1      11.697   4.744  23.366  0.00  0.00    -0.273 OA
ATOM     16  C   UNL     1      10.352   6.374  24.526  0.00  0.00    +0.256 C 
ATOM     17  O   UNL     1       9.106   7.045  24.420  0.00  0.00    -0.369 OA
ATOM     18  C   UNL     1       8.031   6.115  24.540  0.00  0.00    +0.180 C 
ATOM     19  C   UNL     1       8.131   5.088  23.417  0.00  0.00    +0.142 C 
ENDBRANCH  10  13
ENDBRANCH   5   7
BRANCH   1  20
ATOM     20  C   UNL     1       7.396  -4.357  25.001  0.00  0.00    +0.150 C 
BRANCH  20  21
ATOM     21  N   UNL     1       6.161  -4.983  24.571  0.00  0.00    -0.307 N 
ATOM     22  H   UNL     1       5.657  -4.569  23.796  0.00  0.00    +0.149 HD
ATOM     23  C   UNL     1       5.500  -5.934  25.318  0.00  0.00    +0.251 C 
ATOM     24  O   UNL     1       5.957  -6.337  26.385  0.00  0.00    -0.270 OA
BRANCH  23  25
ATOM     25  C   UNL     1       4.239  -6.404  24.759  0.00  0.00    +0.075 A 
ATOM     26  S   UNL     1       3.443  -5.570  23.482  0.00  0.00    -0.072 S 
ATOM     27  C   UNL     1       2.207  -6.722  23.419  0.00  0.00    +0.079 A 
ATOM     28 CL   UNL     1       0.950  -6.546  22.263  0.00  0.00    -0.076 Cl
ATOM     29  C   UNL     1       2.347  -7.722  24.339  0.00  0.00    +0.028 A 
ATOM     30  C   UNL     1       3.525  -7.535  25.125  0.00  0.00    +0.022 A 
ENDBRANCH  23  25
ENDBRANCH  20  21
ENDBRANCH   1  20
TORSDOF 5
ENDMDL
MODEL 6
REMARK VINA RESULT:      -7.0      4.088      9.583
REMARK  Name = 
REMARK  5 active torsions:
REMARK  status: ('A' for Active; 'I' for Inactive)
REMARK    1  A    between atoms: C_2  and  C_3
REMARK    2  A    between atoms: C_3  and  N_4
REMARK    3  A    between atoms: C_5  and  C_7
REMARK    4  A    between atoms: N_14  and  C_18
REMARK    5  A    between atoms: C_21  and  N_24
REMARK                            x       y       z     vdW  Elec       q    Type
REMARK                         _______ _______ _______ _____ _____    ______ ____
ROOT
ATOM      1  C   UNL     1       7.416  -3.468  22.234  0.00  0.00    +0.213 C 
ATOM      2  O   UNL     1       8.423  -3.831  23.189  0.00  0.00    -0.444 OA
ATOM      3  C   UNL     1       9.098  -2.678  23.517  0.00  0.00    +0.408 C 
ATOM      4  O   UNL     1      10.141  -2.712  24.149  0.00  0.00    -0.226 OA
ATOM      5  N   UNL     1       8.381  -1.577  23.058  0.00  0.00    -0.234 N 
ATOM      6  C   UNL     1       7.106  -2.034  22.590  0.00  0.00    +0.163 C 
ENDROOT
BRANCH   5   7
ATOM      7  C   UNL     1       8.748  -0.214  23.154  0.00  0.00    +0.040 A 
ATOM      8  C   UNL     1       9.212   0.495  22.040  0.00  0.00    +0.025 A 
ATOM      9  C   UNL     1       9.520   1.865  22.122  0.00  0.00    +0.025 A 
ATOM     10  C   UNL     1       9.362   2.573  23.318  0.00  0.00    +0.037 A 
ATOM     11  C   UNL     1       8.978   1.840  24.445  0.00  0.00    +0.025 A 
ATOM     12  C   UNL     1       8.671   0.473  24.364  0.00  0.00    +0.025 A 
BRANCH  10  13
ATOM     13  N   UNL     1       9.459   3.998  23.379  0.00  0.00    -0.267 N 
ATOM     14  C   UNL     1      10.675   4.653  23.644  0.00  0.00    +0.246 C 
ATOM     15  O   UNL     1      11.794   4.215  23.373  0.00  0.00    -0.273 OA
ATOM     16  C   UNL     1      10.522   5.943  24.473  0.00  0.00    +0.256 C 
ATOM     17  O   UNL     1       9.340   6.710  24.307  0.00  0.00    -0.369 OA
ATOM     18  C   UNL     1       8.191   5.867  24.365  0.00  0.00    +0.180 C 
ATOM     19  C   UNL     1       8.268   4.838  23.243  0.00  0.00    +0.142 C 
ENDBRANCH  10  13
ENDBRANCH   5   7
BRANCH   1  20
ATOM     20  C   UNL     1       6.210  -4.391  22.353  0.00  0.00    +0.150 C 
BRANCH  20  21
ATOM     21  N   UNL     1       6.114  -4.981  23.673  0.00  0.00    -0.307 N 
ATOM     22  H   UNL     1       6.631  -5.833  23.858  0.00  0.00    +0.149 HD
ATOM     23  C   UNL     1       5.160  -4.609  24.596  0.00  0.00    +0.251 C 
ATOM     24  O   UNL     1       4.356  -3.711  24.354  0.00  0.00    -0.270 OA
BRANCH  23  25
ATOM     25  C   UNL     1       5.174  -5.356  25.847  0.00  0.00    +0.075 A 
ATOM     26  S   UNL     1       6.375  -5.092  27.050  0.00  0.00    -0.072 S 
ATOM     27  C   UNL     1       5.670  -6.228  28.087  0.00  0.00    +0.079 A 
ATOM     28 CL   UNL     1       6.372  -6.511  29.628  0.00  0.00    -0.076 Cl
ATOM     29  C   UNL     1       4.560  -6.828  27.564  0.00  0.00    +0.028 A 
ATOM     30  C   UNL     1       4.274  -6.327  26.257  0.00  0.00    +0.022 A 
ENDBRANCH  23  25
ENDBRANCH  20  21
ENDBRANCH   1  20
TORSDOF 5
ENDMDL
MODEL 7
REMARK VINA RESULT:      -6.9      4.016      9.800
REMARK  Name = 
REMARK  5 active torsions:
REMARK  status: ('A' for Active; 'I' for Inactive)
REMARK    1  A    between atoms: C_2  and  C_3
REMARK    2  A    between atoms: C_3  and  N_4
REMARK    3  A    between atoms: C_5  and  C_7
REMARK    4  A    between atoms: N_14  and  C_18
REMARK    5  A    between atoms: C_21  and  N_24
REMARK                            x       y       z     vdW  Elec       q    Type
REMARK                         _______ _______ _______ _____ _____    ______ ____
ROOT
ATOM      1  C   UNL     1       7.563  -3.789  23.974  0.00  0.00    +0.213 C 
ATOM      2  O   UNL     1       8.979  -3.877  23.762  0.00  0.00    -0.444 OA
ATOM      3  C   UNL     1       9.434  -2.597  23.550  0.00  0.00    +0.408 C 
ATOM      4  O   UNL     1      10.562  -2.384  23.137  0.00  0.00    -0.226 OA
ATOM      5  N   UNL     1       8.443  -1.690  23.916  0.00  0.00    -0.234 N 
ATOM      6  C   UNL     1       7.391  -2.411  24.567  0.00  0.00    +0.163 C 
ENDROOT
BRANCH   5   7
ATOM      7  C   UNL     1       8.493  -0.280  23.816  0.00  0.00    +0.040 A 
ATOM      8  C   UNL     1       8.396   0.367  22.578  0.00  0.00    +0.025 A 
ATOM      9  C   UNL     1       8.386   1.770  22.485  0.00  0.00    +0.025 A 
ATOM     10  C   UNL     1       8.459   2.573  23.628  0.00  0.00    +0.037 A 
ATOM     11  C   UNL     1       8.641   1.922  24.852  0.00  0.00    +0.025 A 
ATOM     12  C   UNL     1       8.651   0.522  24.945  0.00  0.00    +0.025 A 
BRANCH  10  13
ATOM     13  N   UNL     1       8.237   3.985  23.584  0.00  0.00    -0.267 N 
ATOM     14  C   UNL     1       7.245   4.560  22.770  0.00  0.00    +0.246 C 
ATOM     15  O   UNL     1       6.201   4.008  22.421  0.00  0.00    -0.273 OA
ATOM     16  C   UNL     1       7.635   5.930  22.183  0.00  0.00    +0.256 C 
ATOM     17  O   UNL     1       8.478   6.773  22.953  0.00  0.00    -0.369 OA
ATOM     18  C   UNL     1       9.595   6.037  23.448  0.00  0.00    +0.180 C 
ATOM     19  C   UNL     1       9.094   4.903  24.336  0.00  0.00    +0.142 C 
ENDBRANCH  10  13
ENDBRANCH   5   7
BRANCH   1  20
ATOM     20  C   UNL     1       7.090  -4.904  24.897  0.00  0.00    +0.150 C 
BRANCH  20  21
ATOM     21  N   UNL     1       5.835  -5.475  24.451  0.00  0.00    -0.307 N 
ATOM     22  H   UNL     1       5.395  -5.082  23.627  0.00  0.00    +0.149 HD
ATOM     23  C   UNL     1       5.078  -6.327  25.226  0.00  0.00    +0.251 C 
ATOM     24  O   UNL     1       5.459  -6.684  26.338  0.00  0.00    -0.270 OA
BRANCH  23  25
ATOM     25  C   UNL     1       3.813  -6.749  24.639  0.00  0.00    +0.075 A 
ATOM     26  S   UNL     1       3.075  -5.884  23.348  0.00  0.00    -0.072 S 
ATOM     27  C   UNL     1       1.799  -6.990  23.257  0.00  0.00    +0.079 A 
ATOM     28 CL   UNL     1       0.574  -6.767  22.074  0.00  0.00    -0.076 Cl
ATOM     29  C   UNL     1       1.882  -7.996  24.177  0.00  0.00    +0.028 A 
ATOM     30  C   UNL     1       3.050  -7.853  24.988  0.00  0.00    +0.022 A 
ENDBRANCH  23  25
ENDBRANCH  20  21
ENDBRANCH   1  20
TORSDOF 5
ENDMDL
MODEL 8
REMARK VINA RESULT:      -6.9      2.180      3.473
REMARK  Name = 
REMARK  5 active torsions:
REMARK  status: ('A' for Active; 'I' for Inactive)
REMARK    1  A    between atoms: C_2  and  C_3
REMARK    2  A    between atoms: C_3  and  N_4
REMARK    3  A    between atoms: C_5  and  C_7
REMARK    4  A    between atoms: N_14  and  C_18
REMARK    5  A    between atoms: C_21  and  N_24
REMARK                            x       y       z     vdW  Elec       q    Type
REMARK                         _______ _______ _______ _____ _____    ______ ____
ROOT
ATOM      1  C   UNL     1       9.727  -1.667  22.616  0.00  0.00    +0.213 C 
ATOM      2  O   UNL     1       8.428  -1.587  22.013  0.00  0.00    -0.444 OA
ATOM      3  C   UNL     1       7.582  -2.352  22.781  0.00  0.00    +0.408 C 
ATOM      4  O   UNL     1       6.461  -2.640  22.396  0.00  0.00    -0.226 OA
ATOM      5  N   UNL     1       8.204  -2.655  23.990  0.00  0.00    -0.234 N 
ATOM      6  C   UNL     1       9.415  -1.894  24.075  0.00  0.00    +0.163 C 
ENDROOT
BRANCH   5   7
ATOM      7  C   UNL     1       7.693  -3.452  25.040  0.00  0.00    +0.040 A 
ATOM      8  C   UNL     1       6.703  -2.970  25.906  0.00  0.00    +0.025 A 
ATOM      9  C   UNL     1       6.153  -3.783  26.912  0.00  0.00    +0.025 A 
ATOM     10  C   UNL     1       6.564  -5.110  27.078  0.00  0.00    +0.037 A 
ATOM     11  C   UNL     1       7.610  -5.558  26.266  0.00  0.00    +0.025 A 
ATOM     12  C   UNL     1       8.160  -4.746  25.261  0.00  0.00    +0.025 A 
BRANCH  10  13
ATOM     13  N   UNL     1       5.877  -6.018  27.943  0.00  0.00    -0.267 N 
ATOM     14  C   UNL     1       4.721  -6.706  27.537  0.00  0.00    +0.246 C 
ATOM     15  O   UNL     1       4.447  -7.019  26.377  0.00  0.00    -0.273 OA
ATOM     16  C   UNL     1       3.692  -6.919  28.664  0.00  0.00    +0.256 C 
ATOM     17  O   UNL     1       4.174  -7.089  29.988  0.00  0.00    -0.369 OA
ATOM     18  C   UNL     1       5.142  -6.087  30.294  0.00  0.00    +0.180 C 
ATOM     19  C   UNL     1       6.314  -6.211  29.326  0.00  0.00    +0.142 C 
ENDBRANCH  10  13
ENDBRANCH   5   7
BRANCH   1  20
ATOM     20  C   UNL     1      10.513  -0.387  22.362  0.00  0.00    +0.150 C 
BRANCH  20  21
ATOM     21  N   UNL     1       9.651   0.778  22.351  0.00  0.00    -0.307 N 
ATOM     22  H   UNL     1       9.118   0.974  21.512  0.00  0.00    +0.149 HD
ATOM     23  C   UNL     1       9.720   1.774  23.302  0.00  0.00    +0.251 C 
ATOM     24  O   UNL     1      10.502   1.699  24.248  0.00  0.00    -0.270 OA
BRANCH  23  25
ATOM     25  C   UNL     1       8.821   2.902  23.094  0.00  0.00    +0.075 A 
ATOM     26  S   UNL     1       9.020   4.390  23.935  0.00  0.00    -0.072 S 
ATOM     27  C   UNL     1       7.709   5.090  23.128  0.00  0.00    +0.079 A 
ATOM     28 CL   UNL     1       7.286   6.720  23.465  0.00  0.00    -0.076 Cl
ATOM     29  C   UNL     1       7.096   4.244  22.248  0.00  0.00    +0.028 A 
ATOM     30  C   UNL     1       7.737   2.967  22.232  0.00  0.00    +0.022 A 
ENDBRANCH  23  25
ENDBRANCH  20  21
ENDBRANCH   1  20
TORSDOF 5
ENDMDL
MODEL 9
REMARK VINA RESULT:      -6.7      2.680      4.166
REMARK  Name = 
REMARK  5 active torsions:
REMARK  status: ('A' for Active; 'I' for Inactive)
REMARK    1  A    between atoms: C_2  and  C_3
REMARK    2  A    between atoms: C_3  and  N_4
REMARK    3  A    between atoms: C_5  and  C_7
REMARK    4  A    between atoms: N_14  and  C_18
REMARK    5  A    between atoms: C_21  and  N_24
REMARK                            x       y       z     vdW  Elec       q    Type
REMARK                         _______ _______ _______ _____ _____    ______ ____
ROOT
ATOM      1  C   UNL     1       9.454  -2.258  23.342  0.00  0.00    +0.213 C 
ATOM      2  O   UNL     1       8.608  -2.257  22.184  0.00  0.00    -0.444 OA
ATOM      3  C   UNL     1       7.509  -3.025  22.489  0.00  0.00    +0.408 C 
ATOM      4  O   UNL     1       6.719  -3.374  21.626  0.00  0.00    -0.226 OA
ATOM      5  N   UNL     1       7.473  -3.254  23.862  0.00  0.00    -0.234 N 
ATOM      6  C   UNL     1       8.478  -2.441  24.479  0.00  0.00    +0.163 C 
ENDROOT
BRANCH   5   7
ATOM      7  C   UNL     1       6.531  -4.030  24.577  0.00  0.00    +0.040 A 
ATOM      8  C   UNL     1       5.184  -3.656  24.648  0.00  0.00    +0.025 A 
ATOM      9  C   UNL     1       4.237  -4.459  25.309  0.00  0.00    +0.025 A 
ATOM     10  C   UNL     1       4.603  -5.669  25.907  0.00  0.00    +0.037 A 
ATOM     11  C   UNL     1       5.963  -5.994  25.904  0.00  0.00    +0.025 A 
ATOM     12  C   UNL     1       6.909  -5.193  25.246  0.00  0.00    +0.025 A 
BRANCH  10  13
ATOM     13  N   UNL     1       3.636  -6.603  26.394  0.00  0.00    -0.267 N 
ATOM     14  C   UNL     1       2.978  -7.509  25.544  0.00  0.00    +0.246 C 
ATOM     15  O   UNL     1       3.435  -7.961  24.493  0.00  0.00    -0.273 OA
ATOM     16  C   UNL     1       1.518  -7.794  25.945  0.00  0.00    +0.256 C 
ATOM     17  O   UNL     1       1.184  -7.766  27.324  0.00  0.00    -0.369 OA
ATOM     18  C   UNL     1       1.714  -6.593  27.937  0.00  0.00    +0.180 C 
ATOM     19  C   UNL     1       3.233  -6.600  27.801  0.00  0.00    +0.142 C 
ENDBRANCH  10  13
ENDBRANCH   5   7
BRANCH   1  20
ATOM     20  C   UNL     1      10.242  -0.958  23.430  0.00  0.00    +0.150 C 
BRANCH  20  21
ATOM     21  N   UNL     1       9.453   0.178  22.996  0.00  0.00    -0.307 N 
ATOM     22  H   UNL     1       9.332   0.327  22.001  0.00  0.00    +0.149 HD
ATOM     23  C   UNL     1       9.090   1.207  23.837  0.00  0.00    +0.251 C 
ATOM     24  O   UNL     1       9.387   1.191  25.029  0.00  0.00    -0.270 OA
BRANCH  23  25
ATOM     25  C   UNL     1       8.353   2.298  23.211  0.00  0.00    +0.075 A 
ATOM     26  S   UNL     1       8.756   3.946  23.492  0.00  0.00    -0.072 S 
ATOM     27  C   UNL     1       7.551   4.484  22.434  0.00  0.00    +0.079 A 
ATOM     28 CL   UNL     1       7.355   6.168  22.166  0.00  0.00    -0.076 Cl
ATOM     29  C   UNL     1       6.826   3.471  21.875  0.00  0.00    +0.028 A 
ATOM     30  C   UNL     1       7.286   2.197  22.332  0.00  0.00    +0.022 A 
ENDBRANCH  23  25
ENDBRANCH  20  21
ENDBRANCH   1  20
TORSDOF 5
ENDMDL
