MODEL 1
REMARK VINA RESULT:      -7.2      0.000      0.000
REMARK  Name = 
REMARK  13 active torsions:
REMARK  status: ('A' for Active; 'I' for Inactive)
REMARK    1  A    between atoms: CA_4  and  C_34
REMARK    2  A    between atoms: C_7  and  CA_9
REMARK    3  A    between atoms: CA_9  and  CB_11
REMARK    4  A    between atoms: CA_9  and  N_12
REMARK    5  A    between atoms: N_12  and  C_13
REMARK    6  A    between atoms: C_13  and  C_15
REMARK    7  A    between atoms: C_13  and  C_23
REMARK    8  A    between atoms: C_15  and  C_16
REMARK    9  A    between atoms: C_16  and  C_17
REMARK   10  A    between atoms: C_23  and  O_25
REMARK   11  A    between atoms: O_25  and  C_26
REMARK   12  A    between atoms: C_26  and  C_27
REMARK   13  A    between atoms: C_34  and  O_35
REMARK                            x       y       z     vdW  Elec       q    Type
REMARK                         _______ _______ _______ _____ _____    ______ ____
ROOT
ATOM      1  CA  UNL     1       8.390  -1.074  25.665  0.00  0.00    +0.138 C 
ATOM      2  CB  UNL     1       7.935   0.248  26.291  0.00  0.00    +0.034 C 
ENDROOT
BRANCH   1  10
ATOM      3  C   UNL     1       6.354  -5.396  24.909  0.00  0.00    +0.012 C 
ATOM      4  C   UNL     1       5.161  -6.327  25.002  0.00  0.00    +0.005 C 
ATOM      5  C   UNL     1       4.303  -6.190  23.740  0.00  0.00    +0.000 C 
ATOM      6  C   UNL     1       3.969  -4.732  23.395  0.00  0.00    +0.002 C 
ATOM      7  C   UNL     1       5.197  -3.799  23.403  0.00  0.00    +0.023 C 
ATOM      8  C   UNL     1       5.920  -3.937  24.742  0.00  0.00    +0.080 C 
ATOM      9  N   UNL     1       7.159  -3.199  25.008  0.00  0.00    -0.283 N 
ATOM     10  C   UNL     1       7.177  -1.797  24.987  0.00  0.00    +0.233 C 
ATOM     11  O   UNL     1       6.257  -1.157  24.474  0.00  0.00    -0.274 OA
ATOM     12  CA  UNL     1       8.057  -4.034  25.851  0.00  0.00    +0.185 C 
ATOM     13  C   UNL     1       7.259  -5.317  26.129  0.00  0.00    +0.039 C 
BRANCH  12  14
ATOM     14  C   UNL     1       9.386  -4.376  25.178  0.00  0.00    +0.325 C 
ATOM     15  OXT UNL     1       9.822  -3.772  24.208  0.00  0.00    -0.249 OA
BRANCH  14  16
ATOM     16  O   UNL     1      10.069  -5.364  25.797  0.00  0.00    -0.479 OA
ATOM     17  H   UNL     1       9.476  -5.906  26.362  0.00  0.00    +0.295 HD
ENDBRANCH  14  16
ENDBRANCH  12  14
ENDBRANCH   1  10
BRANCH   1  18
ATOM     18  N   UNL     1       9.476  -0.872  24.681  0.00  0.00    -0.294 NA
ATOM     19  H   UNL     1       9.533  -1.703  24.085  0.00  0.00    +0.123 HD
BRANCH  18  20
ATOM     20  C   UNL     1       9.361   0.345  23.844  0.00  0.00    +0.164 C 
BRANCH  20  21
ATOM     21  C   UNL     1       9.245  -0.075  22.366  0.00  0.00    +0.324 C 
ATOM     22  O   UNL     1       9.889  -0.970  21.832  0.00  0.00    -0.249 OA
BRANCH  21  23
ATOM     23  O   UNL     1       8.383   0.763  21.708  0.00  0.00    -0.464 OA
BRANCH  23  24
ATOM     24  C   UNL     1       7.266   1.216  22.487  0.00  0.00    +0.229 C 
ATOM     25  C   UNL     1       6.962   2.647  22.077  0.00  0.00    +0.048 C 
ENDBRANCH  23  24
ENDBRANCH  21  23
ENDBRANCH  20  21
BRANCH  20  26
ATOM     26  C   UNL     1      10.576   1.286  24.004  0.00  0.00    +0.035 C 
BRANCH  26  27
ATOM     27  C   UNL     1      10.721   2.298  22.857  0.00  0.00    +0.037 C 
BRANCH  27  28
ATOM     28  C   UNL     1      10.793   3.711  23.380  0.00  0.00    -0.047 A 
ATOM     29  C   UNL     1       9.666   4.312  23.964  0.00  0.00    +0.003 A 
ATOM     30  C   UNL     1       9.744   5.613  24.471  0.00  0.00    +0.000 A 
ATOM     31  C   UNL     1      10.938   6.320  24.403  0.00  0.00    +0.000 A 
ATOM     32  C   UNL     1      12.066   5.729  23.831  0.00  0.00    +0.000 A 
ATOM     33  C   UNL     1      11.994   4.428  23.330  0.00  0.00    +0.003 A 
ENDBRANCH  27  28
ENDBRANCH  26  27
ENDBRANCH  20  26
ENDBRANCH  18  20
ENDBRANCH   1  18
TORSDOF 11
ENDMDL
MODEL 2
REMARK VINA RESULT:      -7.2      2.425      4.126
REMARK  Name = 
REMARK  13 active torsions:
REMARK  status: ('A' for Active; 'I' for Inactive)
REMARK    1  A    between atoms: CA_4  and  C_34
REMARK    2  A    between atoms: C_7  and  CA_9
REMARK    3  A    between atoms: CA_9  and  CB_11
REMARK    4  A    between atoms: CA_9  and  N_12
REMARK    5  A    between atoms: N_12  and  C_13
REMARK    6  A    between atoms: C_13  and  C_15
REMARK    7  A    between atoms: C_13  and  C_23
REMARK    8  A    between atoms: C_15  and  C_16
REMARK    9  A    between atoms: C_16  and  C_17
REMARK   10  A    between atoms: C_23  and  O_25
REMARK   11  A    between atoms: O_25  and  C_26
REMARK   12  A    between atoms: C_26  and  C_27
REMARK   13  A    between atoms: C_34  and  O_35
REMARK                            x       y       z     vdW  Elec       q    Type
REMARK                         _______ _______ _______ _____ _____    ______ ____
ROOT
ATOM      1  CA  UNL     1       6.888  -2.196  26.043  0.00  0.00    +0.138 C 
ATOM      2  CB  UNL     1       7.084  -0.731  25.639  0.00  0.00    +0.034 C 
ENDROOT
BRANCH   1  10
ATOM      3  C   UNL     1       3.319  -5.450  26.288  0.00  0.00    +0.012 C 
ATOM      4  C   UNL     1       1.848  -5.806  26.191  0.00  0.00    +0.005 C 
ATOM      5  C   UNL     1       1.506  -6.187  24.747  0.00  0.00    +0.000 C 
ATOM      6  C   UNL     1       2.000  -5.158  23.720  0.00  0.00    +0.002 C 
ATOM      7  C   UNL     1       3.476  -4.754  23.911  0.00  0.00    +0.023 C 
ATOM      8  C   UNL     1       3.683  -4.293  25.354  0.00  0.00    +0.080 C 
ATOM      9  N   UNL     1       5.012  -3.897  25.833  0.00  0.00    -0.283 N 
ATOM     10  C   UNL     1       5.695  -2.822  25.247  0.00  0.00    +0.233 C 
ATOM     11  O   UNL     1       5.349  -2.370  24.154  0.00  0.00    -0.274 OA
ATOM     12  CA  UNL     1       5.163  -4.307  27.256  0.00  0.00    +0.185 C 
ATOM     13  C   UNL     1       3.812  -4.937  27.631  0.00  0.00    +0.039 C 
BRANCH  12  14
ATOM     14  C   UNL     1       6.293  -5.309  27.486  0.00  0.00    +0.325 C 
ATOM     15  OXT UNL     1       6.723  -5.595  28.596  0.00  0.00    -0.249 OA
BRANCH  14  16
ATOM     16  O   UNL     1       6.729  -5.905  26.355  0.00  0.00    -0.479 OA
ATOM     17  H   UNL     1       7.640  -6.253  26.465  0.00  0.00    +0.295 HD
ENDBRANCH  14  16
ENDBRANCH  12  14
ENDBRANCH   1  10
BRANCH   1  18
ATOM     18  N   UNL     1       8.116  -2.994  25.830  0.00  0.00    -0.294 NA
ATOM     19  H   UNL     1       8.029  -3.869  26.356  0.00  0.00    +0.123 HD
BRANCH  18  20
ATOM     20  C   UNL     1       8.450  -3.286  24.416  0.00  0.00    +0.164 C 
BRANCH  20  21
ATOM     21  C   UNL     1       8.479  -4.813  24.214  0.00  0.00    +0.324 C 
ATOM     22  O   UNL     1       9.405  -5.552  24.528  0.00  0.00    -0.249 OA
BRANCH  21  23
ATOM     23  O   UNL     1       7.353  -5.218  23.545  0.00  0.00    -0.464 OA
BRANCH  23  24
ATOM     24  C   UNL     1       7.236  -4.722  22.203  0.00  0.00    +0.229 C 
ATOM     25  C   UNL     1       6.518  -5.776  21.378  0.00  0.00    +0.048 C 
ENDBRANCH  23  24
ENDBRANCH  21  23
ENDBRANCH  20  21
BRANCH  20  26
ATOM     26  C   UNL     1       9.819  -2.700  24.002  0.00  0.00    +0.035 C 
BRANCH  26  27
ATOM     27  C   UNL     1       9.782  -1.944  22.666  0.00  0.00    +0.037 C 
BRANCH  27  28
ATOM     28  C   UNL     1       9.975  -0.462  22.871  0.00  0.00    -0.047 A 
ATOM     29  C   UNL     1      10.416   0.034  24.108  0.00  0.00    +0.003 A 
ATOM     30  C   UNL     1      10.619   1.406  24.286  0.00  0.00    +0.000 A 
ATOM     31  C   UNL     1      10.389   2.289  23.238  0.00  0.00    +0.000 A 
ATOM     32  C   UNL     1       9.956   1.805  22.002  0.00  0.00    +0.000 A 
ATOM     33  C   UNL     1       9.760   0.436  21.819  0.00  0.00    +0.003 A 
ENDBRANCH  27  28
ENDBRANCH  26  27
ENDBRANCH  20  26
ENDBRANCH  18  20
ENDBRANCH   1  18
TORSDOF 11
ENDMDL
MODEL 3
REMARK VINA RESULT:      -7.1      1.794      3.165
REMARK  Name = 
REMARK  13 active torsions:
REMARK  status: ('A' for Active; 'I' for Inactive)
REMARK    1  A    between atoms: CA_4  and  C_34
REMARK    2  A    between atoms: C_7  and  CA_9
REMARK    3  A    between atoms: CA_9  and  CB_11
REMARK    4  A    between atoms: CA_9  and  N_12
REMARK    5  A    between atoms: N_12  and  C_13
REMARK    6  A    between atoms: C_13  and  C_15
REMARK    7  A    between atoms: C_13  and  C_23
REMARK    8  A    between atoms: C_15  and  C_16
REMARK    9  A    between atoms: C_16  and  C_17
REMARK   10  A    between atoms: C_23  and  O_25
REMARK   11  A    between atoms: O_25  and  C_26
REMARK   12  A    between atoms: C_26  and  C_27
REMARK   13  A    between atoms: C_34  and  O_35
REMARK                            x       y       z     vdW  Elec       q    Type
REMARK                         _______ _______ _______ _____ _____    ______ ____
ROOT
ATOM      1  CA  UNL     1       9.164  -2.036  22.650  0.00  0.00    +0.138 C 
ATOM      2  CB  UNL     1      10.654  -1.724  22.831  0.00  0.00    +0.034 C 
ENDROOT
BRANCH   1  10
ATOM      3  C   UNL     1       5.931  -4.969  24.730  0.00  0.00    +0.012 C 
ATOM      4  C   UNL     1       5.579  -6.032  25.754  0.00  0.00    +0.005 C 
ATOM      5  C   UNL     1       5.166  -5.362  27.068  0.00  0.00    +0.000 C 
ATOM      6  C   UNL     1       6.169  -4.302  27.544  0.00  0.00    +0.002 C 
ATOM      7  C   UNL     1       6.572  -3.296  26.448  0.00  0.00    +0.023 C 
ATOM      8  C   UNL     1       7.065  -4.065  25.223  0.00  0.00    +0.080 C 
ATOM      9  N   UNL     1       7.467  -3.359  24.002  0.00  0.00    -0.283 N 
ATOM     10  C   UNL     1       8.526  -2.439  24.021  0.00  0.00    +0.233 C 
ATOM     11  O   UNL     1       8.953  -1.985  25.084  0.00  0.00    -0.274 OA
ATOM     12  CA  UNL     1       7.089  -4.174  22.815  0.00  0.00    +0.185 C 
ATOM     13  C   UNL     1       6.474  -5.456  23.396  0.00  0.00    +0.039 C 
BRANCH  12  14
ATOM     14  C   UNL     1       6.088  -3.481  21.891  0.00  0.00    +0.325 C 
ATOM     15  OXT UNL     1       5.667  -3.984  20.858  0.00  0.00    -0.249 OA
BRANCH  14  16
ATOM     16  O   UNL     1       5.656  -2.288  22.357  0.00  0.00    -0.479 OA
ATOM     17  H   UNL     1       6.203  -1.983  23.113  0.00  0.00    +0.295 HD
ENDBRANCH  14  16
ENDBRANCH  12  14
ENDBRANCH   1  10
BRANCH   1  18
ATOM     18  N   UNL     1       8.431  -0.893  22.063  0.00  0.00    -0.294 NA
ATOM     19  H   UNL     1       7.465  -1.185  21.885  0.00  0.00    +0.123 HD
BRANCH  18  20
ATOM     20  C   UNL     1       8.443   0.353  22.865  0.00  0.00    +0.164 C 
BRANCH  20  21
ATOM     21  C   UNL     1       6.996   0.855  23.031  0.00  0.00    +0.324 C 
ATOM     22  O   UNL     1       6.535   1.868  22.520  0.00  0.00    -0.249 OA
BRANCH  21  23
ATOM     23  O   UNL     1       6.320   0.052  23.912  0.00  0.00    -0.464 OA
BRANCH  23  24
ATOM     24  C   UNL     1       5.769   0.733  25.050  0.00  0.00    +0.229 C 
ATOM     25  C   UNL     1       6.841   0.787  26.125  0.00  0.00    +0.048 C 
ENDBRANCH  23  24
ENDBRANCH  21  23
ENDBRANCH  20  21
BRANCH  20  26
ATOM     26  C   UNL     1       9.287   1.468  22.207  0.00  0.00    +0.035 C 
BRANCH  26  27
ATOM     27  C   UNL     1      10.504   1.889  23.045  0.00  0.00    +0.037 C 
BRANCH  27  28
ATOM     28  C   UNL     1      10.449   3.357  23.390  0.00  0.00    -0.047 A 
ATOM     29  C   UNL     1      11.610   4.143  23.343  0.00  0.00    +0.003 A 
ATOM     30  C   UNL     1      11.550   5.509  23.637  0.00  0.00    +0.000 A 
ATOM     31  C   UNL     1      10.339   6.098  23.978  0.00  0.00    +0.000 A 
ATOM     32  C   UNL     1       9.177   5.326  24.022  0.00  0.00    +0.000 A 
ATOM     33  C   UNL     1       9.232   3.965  23.720  0.00  0.00    +0.003 A 
ENDBRANCH  27  28
ENDBRANCH  26  27
ENDBRANCH  20  26
ENDBRANCH  18  20
ENDBRANCH   1  18
TORSDOF 11
ENDMDL
MODEL 4
REMARK VINA RESULT:      -7.0      1.227      1.852
REMARK  Name = 
REMARK  13 active torsions:
REMARK  status: ('A' for Active; 'I' for Inactive)
REMARK    1  A    between atoms: CA_4  and  C_34
REMARK    2  A    between atoms: C_7  and  CA_9
REMARK    3  A    between atoms: CA_9  and  CB_11
REMARK    4  A    between atoms: CA_9  and  N_12
REMARK    5  A    between atoms: N_12  and  C_13
REMARK    6  A    between atoms: C_13  and  C_15
REMARK    7  A    between atoms: C_13  and  C_23
REMARK    8  A    between atoms: C_15  and  C_16
REMARK    9  A    between atoms: C_16  and  C_17
REMARK   10  A    between atoms: C_23  and  O_25
REMARK   11  A    between atoms: O_25  and  C_26
REMARK   12  A    between atoms: C_26  and  C_27
REMARK   13  A    between atoms: C_34  and  O_35
REMARK                            x       y       z     vdW  Elec       q    Type
REMARK                         _______ _______ _______ _____ _____    ______ ____
ROOT
ATOM      1  CA  UNL     1       8.647  -1.372  26.122  0.00  0.00    +0.138 C 
ATOM      2  CB  UNL     1       8.435  -0.041  26.850  0.00  0.00    +0.034 C 
ENDROOT
BRANCH   1  10
ATOM      3  C   UNL     1       6.369  -5.638  26.101  0.00  0.00    +0.012 C 
ATOM      4  C   UNL     1       5.235  -6.531  26.565  0.00  0.00    +0.005 C 
ATOM      5  C   UNL     1       4.043  -6.384  25.613  0.00  0.00    +0.000 C 
ATOM      6  C   UNL     1       3.659  -4.921  25.351  0.00  0.00    +0.002 C 
ATOM      7  C   UNL     1       4.856  -4.026  24.972  0.00  0.00    +0.023 C 
ATOM      8  C   UNL     1       5.942  -4.169  26.039  0.00  0.00    +0.080 C 
ATOM      9  N   UNL     1       7.223  -3.466  25.907  0.00  0.00    -0.283 N 
ATOM     10  C   UNL     1       7.269  -2.065  25.851  0.00  0.00    +0.233 C 
ATOM     11  O   UNL     1       6.255  -1.405  25.622  0.00  0.00    -0.274 OA
ATOM     12  CA  UNL     1       8.310  -4.317  26.464  0.00  0.00    +0.185 C 
ATOM     13  C   UNL     1       7.598  -5.571  26.994  0.00  0.00    +0.039 C 
BRANCH  12  14
ATOM     14  C   UNL     1       9.368  -4.709  25.433  0.00  0.00    +0.325 C 
ATOM     15  OXT UNL     1       9.600  -4.054  24.426  0.00  0.00    -0.249 OA
BRANCH  14  16
ATOM     16  O   UNL     1      10.075  -5.809  25.773  0.00  0.00    -0.479 OA
ATOM     17  H   UNL     1       9.604  -6.629  25.507  0.00  0.00    +0.295 HD
ENDBRANCH  14  16
ENDBRANCH  12  14
ENDBRANCH   1  10
BRANCH   1  18
ATOM     18  N   UNL     1       9.384  -1.193  24.852  0.00  0.00    -0.294 NA
ATOM     19  H   UNL     1       9.593  -2.117  24.465  0.00  0.00    +0.123 HD
BRANCH  18  20
ATOM     20  C   UNL     1       8.706  -0.359  23.832  0.00  0.00    +0.164 C 
BRANCH  20  21
ATOM     21  C   UNL     1       8.535  -1.186  22.544  0.00  0.00    +0.324 C 
ATOM     22  O   UNL     1       9.356  -1.264  21.637  0.00  0.00    -0.249 OA
BRANCH  21  23
ATOM     23  O   UNL     1       7.287  -1.752  22.512  0.00  0.00    -0.464 OA
BRANCH  23  24
ATOM     24  C   UNL     1       7.270  -3.165  22.259  0.00  0.00    +0.229 C 
ATOM     25  C   UNL     1       5.935  -3.508  21.619  0.00  0.00    +0.048 C 
ENDBRANCH  23  24
ENDBRANCH  21  23
ENDBRANCH  20  21
BRANCH  20  26
ATOM     26  C   UNL     1       9.497   0.926  23.500  0.00  0.00    +0.035 C 
BRANCH  26  27
ATOM     27  C   UNL     1       8.810   2.211  23.987  0.00  0.00    +0.037 C 
BRANCH  27  28
ATOM     28  C   UNL     1       9.713   3.408  23.827  0.00  0.00    -0.047 A 
ATOM     29  C   UNL     1       9.245   4.698  24.125  0.00  0.00    +0.003 A 
ATOM     30  C   UNL     1      10.093   5.802  24.001  0.00  0.00    +0.000 A 
ATOM     31  C   UNL     1      11.407   5.632  23.584  0.00  0.00    +0.000 A 
ATOM     32  C   UNL     1      11.885   4.353  23.292  0.00  0.00    +0.000 A 
ATOM     33  C   UNL     1      11.043   3.248  23.422  0.00  0.00    +0.003 A 
ENDBRANCH  27  28
ENDBRANCH  26  27
ENDBRANCH  20  26
ENDBRANCH  18  20
ENDBRANCH   1  18
TORSDOF 11
ENDMDL
MODEL 5
REMARK VINA RESULT:      -7.0      2.414      4.175
REMARK  Name = 
REMARK  13 active torsions:
REMARK  status: ('A' for Active; 'I' for Inactive)
REMARK    1  A    between atoms: CA_4  and  C_34
REMARK    2  A    between atoms: C_7  and  CA_9
REMARK    3  A    between atoms: CA_9  and  CB_11
REMARK    4  A    between atoms: CA_9  and  N_12
REMARK    5  A    between atoms: N_12  and  C_13
REMARK    6  A    between atoms: C_13  and  C_15
REMARK    7  A    between atoms: C_13  and  C_23
REMARK    8  A    between atoms: C_15  and  C_16
REMARK    9  A    between atoms: C_16  and  C_17
REMARK   10  A    between atoms: C_23  and  O_25
REMARK   11  A    between atoms: O_25  and  C_26
REMARK   12  A    between atoms: C_26  and  C_27
REMARK   13  A    between atoms: C_34  and  O_35
REMARK                            x       y       z     vdW  Elec       q    Type
REMARK                         _______ _______ _______ _____ _____    ______ ____
ROOT
ATOM      1  CA  UNL     1       7.970  -4.643  25.344  0.00  0.00    +0.138 C 
ATOM      2  CB  UNL     1       9.144  -5.622  25.243  0.00  0.00    +0.034 C 
ENDROOT
BRANCH   1  10
ATOM      3  C   UNL     1       3.581  -5.899  23.749  0.00  0.00    +0.012 C 
ATOM      4  C   UNL     1       2.541  -6.960  23.442  0.00  0.00    +0.005 C 
ATOM      5  C   UNL     1       1.682  -7.211  24.684  0.00  0.00    +0.000 C 
ATOM      6  C   UNL     1       2.513  -7.456  25.952  0.00  0.00    +0.002 C 
ATOM      7  C   UNL     1       3.619  -6.407  26.178  0.00  0.00    +0.023 C 
ATOM      8  C   UNL     1       4.480  -6.311  24.918  0.00  0.00    +0.080 C 
ATOM      9  N   UNL     1       5.583  -5.347  24.832  0.00  0.00    -0.283 N 
ATOM     10  C   UNL     1       6.659  -5.408  25.728  0.00  0.00    +0.233 C 
ATOM     11  O   UNL     1       6.583  -6.063  26.770  0.00  0.00    -0.274 OA
ATOM     12  CA  UNL     1       5.684  -4.841  23.436  0.00  0.00    +0.185 C 
ATOM     13  C   UNL     1       4.599  -5.601  22.659  0.00  0.00    +0.039 C 
BRANCH  12  14
ATOM     14  C   UNL     1       5.461  -3.334  23.315  0.00  0.00    +0.325 C 
ATOM     15  OXT UNL     1       5.644  -2.708  22.279  0.00  0.00    -0.249 OA
BRANCH  14  16
ATOM     16  O   UNL     1       4.974  -2.766  24.440  0.00  0.00    -0.479 OA
ATOM     17  H   UNL     1       5.321  -3.212  25.242  0.00  0.00    +0.295 HD
ENDBRANCH  14  16
ENDBRANCH  12  14
ENDBRANCH   1  10
BRANCH   1  18
ATOM     18  N   UNL     1       8.235  -3.565  26.323  0.00  0.00    -0.294 NA
ATOM     19  H   UNL     1       8.864  -3.929  27.044  0.00  0.00    +0.123 HD
BRANCH  18  20
ATOM     20  C   UNL     1       8.787  -2.311  25.757  0.00  0.00    +0.164 C 
BRANCH  20  21
ATOM     21  C   UNL     1       7.970  -1.120  26.292  0.00  0.00    +0.324 C 
ATOM     22  O   UNL     1       8.208  -0.505  27.325  0.00  0.00    -0.249 OA
BRANCH  21  23
ATOM     23  O   UNL     1       6.878  -0.904  25.493  0.00  0.00    -0.464 OA
BRANCH  23  24
ATOM     24  C   UNL     1       6.547   0.477  25.282  0.00  0.00    +0.229 C 
ATOM     25  C   UNL     1       6.573   0.739  23.786  0.00  0.00    +0.048 C 
ENDBRANCH  23  24
ENDBRANCH  21  23
ENDBRANCH  20  21
BRANCH  20  26
ATOM     26  C   UNL     1       8.745  -2.294  24.213  0.00  0.00    +0.035 C 
BRANCH  26  27
ATOM     27  C   UNL     1      10.088  -1.919  23.568  0.00  0.00    +0.037 C 
BRANCH  27  28
ATOM     28  C   UNL     1      10.161  -0.441  23.275  0.00  0.00    -0.047 A 
ATOM     29  C   UNL     1       9.761   0.058  22.025  0.00  0.00    +0.003 A 
ATOM     30  C   UNL     1       9.805   1.431  21.767  0.00  0.00    +0.000 A 
ATOM     31  C   UNL     1      10.242   2.313  22.746  0.00  0.00    +0.000 A 
ATOM     32  C   UNL     1      10.636   1.829  23.995  0.00  0.00    +0.000 A 
ATOM     33  C   UNL     1      10.586   0.459  24.259  0.00  0.00    +0.003 A 
ENDBRANCH  27  28
ENDBRANCH  26  27
ENDBRANCH  20  26
ENDBRANCH  18  20
ENDBRANCH   1  18
TORSDOF 11
ENDMDL
MODEL 6
REMARK VINA RESULT:      -6.8      2.065      8.126
REMARK  Name = 
REMARK  13 active torsions:
REMARK  status: ('A' for Active; 'I' for Inactive)
REMARK    1  A    between atoms: CA_4  and  C_34
REMARK    2  A    between atoms: C_7  and  CA_9
REMARK    3  A    between atoms: CA_9  and  CB_11
REMARK    4  A    between atoms: CA_9  and  N_12
REMARK    5  A    between atoms: N_12  and  C_13
REMARK    6  A    between atoms: C_13  and  C_15
REMARK    7  A    between atoms: C_13  and  C_23
REMARK    8  A    between atoms: C_15  and  C_16
REMARK    9  A    between atoms: C_16  and  C_17
REMARK   10  A    between atoms: C_23  and  O_25
REMARK   11  A    between atoms: O_25  and  C_26
REMARK   12  A    between atoms: C_26  and  C_27
REMARK   13  A    between atoms: C_34  and  O_35
REMARK                            x       y       z     vdW  Elec       q    Type
REMARK                         _______ _______ _______ _____ _____    ______ ____
ROOT
ATOM      1  CA  UNL     1       8.100  -0.123  25.584  0.00  0.00    +0.138 C 
ATOM      2  CB  UNL     1       8.713  -0.690  26.868  0.00  0.00    +0.034 C 
ENDROOT
BRANCH   1  10
ATOM      3  C   UNL     1       7.767   4.541  24.349  0.00  0.00    +0.012 C 
ATOM      4  C   UNL     1       8.196   5.986  24.519  0.00  0.00    +0.005 C 
ATOM      5  C   UNL     1       9.387   6.280  23.602  0.00  0.00    +0.000 C 
ATOM      6  C   UNL     1      10.513   5.244  23.727  0.00  0.00    +0.002 C 
ATOM      7  C   UNL     1      10.022   3.784  23.641  0.00  0.00    +0.023 C 
ATOM      8  C   UNL     1       8.909   3.572  24.667  0.00  0.00    +0.080 C 
ATOM      9  N   UNL     1       8.217   2.283  24.771  0.00  0.00    -0.283 N 
ATOM     10  C   UNL     1       8.924   1.114  25.092  0.00  0.00    +0.233 C 
ATOM     11  O   UNL     1      10.153   1.073  25.013  0.00  0.00    -0.274 OA
ATOM     12  CA  UNL     1       6.789   2.517  25.116  0.00  0.00    +0.185 C 
ATOM     13  C   UNL     1       6.664   4.041  25.268  0.00  0.00    +0.039 C 
BRANCH  12  14
ATOM     14  C   UNL     1       5.812   2.012  24.054  0.00  0.00    +0.325 C 
ATOM     15  OXT UNL     1       5.868   2.344  22.878  0.00  0.00    -0.249 OA
BRANCH  14  16
ATOM     16  O   UNL     1       4.923   1.109  24.522  0.00  0.00    -0.479 OA
ATOM     17  H   UNL     1       5.340   0.228  24.638  0.00  0.00    +0.295 HD
ENDBRANCH  14  16
ENDBRANCH  12  14
ENDBRANCH   1  10
BRANCH   1  18
ATOM     18  N   UNL     1       8.023  -1.141  24.514  0.00  0.00    -0.294 NA
ATOM     19  H   UNL     1       7.839  -0.666  23.626  0.00  0.00    +0.123 HD
BRANCH  18  20
ATOM     20  C   UNL     1       9.211  -2.018  24.381  0.00  0.00    +0.164 C 
BRANCH  20  21
ATOM     21  C   UNL     1       9.774  -1.883  22.954  0.00  0.00    +0.324 C 
ATOM     22  O   UNL     1      10.906  -2.198  22.606  0.00  0.00    -0.249 OA
BRANCH  21  23
ATOM     23  O   UNL     1       8.855  -1.269  22.144  0.00  0.00    -0.464 OA
BRANCH  23  24
ATOM     24  C   UNL     1       9.408  -0.351  21.189  0.00  0.00    +0.229 C 
ATOM     25  C   UNL     1       8.842   1.027  21.486  0.00  0.00    +0.048 C 
ENDBRANCH  23  24
ENDBRANCH  21  23
ENDBRANCH  20  21
BRANCH  20  26
ATOM     26  C   UNL     1       8.880  -3.503  24.651  0.00  0.00    +0.035 C 
BRANCH  26  27
ATOM     27  C   UNL     1       7.381  -3.768  24.858  0.00  0.00    +0.037 C 
BRANCH  27  28
ATOM     28  C   UNL     1       6.802  -4.561  23.713  0.00  0.00    -0.047 A 
ATOM     29  C   UNL     1       7.608  -4.933  22.626  0.00  0.00    +0.003 A 
ATOM     30  C   UNL     1       7.074  -5.690  21.579  0.00  0.00    +0.000 A 
ATOM     31  C   UNL     1       5.742  -6.083  21.608  0.00  0.00    +0.000 A 
ATOM     32  C   UNL     1       4.934  -5.724  22.688  0.00  0.00    +0.000 A 
ATOM     33  C   UNL     1       5.465  -4.975  23.738  0.00  0.00    +0.003 A 
ENDBRANCH  27  28
ENDBRANCH  26  27
ENDBRANCH  20  26
ENDBRANCH  18  20
ENDBRANCH   1  18
TORSDOF 11
ENDMDL
MODEL 7
REMARK VINA RESULT:      -6.8      2.598      8.024
REMARK  Name = 
REMARK  13 active torsions:
REMARK  status: ('A' for Active; 'I' for Inactive)
REMARK    1  A    between atoms: CA_4  and  C_34
REMARK    2  A    between atoms: C_7  and  CA_9
REMARK    3  A    between atoms: CA_9  and  CB_11
REMARK    4  A    between atoms: CA_9  and  N_12
REMARK    5  A    between atoms: N_12  and  C_13
REMARK    6  A    between atoms: C_13  and  C_15
REMARK    7  A    between atoms: C_13  and  C_23
REMARK    8  A    between atoms: C_15  and  C_16
REMARK    9  A    between atoms: C_16  and  C_17
REMARK   10  A    between atoms: C_23  and  O_25
REMARK   11  A    between atoms: O_25  and  C_26
REMARK   12  A    between atoms: C_26  and  C_27
REMARK   13  A    between atoms: C_34  and  O_35
REMARK                            x       y       z     vdW  Elec       q    Type
REMARK                         _______ _______ _______ _____ _____    ______ ____
ROOT
ATOM      1  CA  UNL     1       8.496  -4.138  25.993  0.00  0.00    +0.138 C 
ATOM      2  CB  UNL     1       9.797  -4.855  26.367  0.00  0.00    +0.034 C 
ENDROOT
BRANCH   1  10
ATOM      3  C   UNL     1       9.357   0.216  24.071  0.00  0.00    +0.012 C 
ATOM      4  C   UNL     1      10.175   1.124  23.174  0.00  0.00    +0.005 C 
ATOM      5  C   UNL     1       9.603   1.094  21.753  0.00  0.00    +0.000 C 
ATOM      6  C   UNL     1       9.387  -0.329  21.221  0.00  0.00    +0.002 C 
ATOM      7  C   UNL     1       8.632  -1.248  22.203  0.00  0.00    +0.023 C 
ATOM      8  C   UNL     1       9.345  -1.226  23.555  0.00  0.00    +0.080 C 
ATOM      9  N   UNL     1       8.812  -1.973  24.699  0.00  0.00    -0.283 N 
ATOM     10  C   UNL     1       8.672  -3.368  24.641  0.00  0.00    +0.233 C 
ATOM     11  O   UNL     1       8.712  -3.966  23.565  0.00  0.00    -0.274 OA
ATOM     12  CA  UNL     1       9.074  -1.210  25.950  0.00  0.00    +0.185 C 
ATOM     13  C   UNL     1       9.852   0.035  25.497  0.00  0.00    +0.039 C 
BRANCH  12  14
ATOM     14  C   UNL     1       7.803  -0.797  26.691  0.00  0.00    +0.325 C 
ATOM     15  OXT UNL     1       6.693  -1.231  26.415  0.00  0.00    -0.249 OA
BRANCH  14  16
ATOM     16  O   UNL     1       8.028   0.041  27.727  0.00  0.00    -0.479 OA
ATOM     17  H   UNL     1       7.208   0.191  28.246  0.00  0.00    +0.295 HD
ENDBRANCH  14  16
ENDBRANCH  12  14
ENDBRANCH   1  10
BRANCH   1  18
ATOM     18  N   UNL     1       7.357  -5.077  25.899  0.00  0.00    -0.294 NA
ATOM     19  H   UNL     1       7.679  -6.007  26.184  0.00  0.00    +0.123 HD
BRANCH  18  20
ATOM     20  C   UNL     1       6.152  -4.699  26.674  0.00  0.00    +0.164 C 
BRANCH  20  21
ATOM     21  C   UNL     1       6.245  -5.324  28.079  0.00  0.00    +0.324 C 
ATOM     22  O   UNL     1       7.024  -6.210  28.410  0.00  0.00    -0.249 OA
BRANCH  21  23
ATOM     23  O   UNL     1       5.265  -4.810  28.886  0.00  0.00    -0.464 OA
BRANCH  23  24
ATOM     24  C   UNL     1       4.975  -5.589  30.057  0.00  0.00    +0.229 C 
ATOM     25  C   UNL     1       3.524  -6.028  29.978  0.00  0.00    +0.048 C 
ENDBRANCH  23  24
ENDBRANCH  21  23
ENDBRANCH  20  21
BRANCH  20  26
ATOM     26  C   UNL     1       4.845  -5.175  26.000  0.00  0.00    +0.035 C 
BRANCH  26  27
ATOM     27  C   UNL     1       4.327  -4.213  24.921  0.00  0.00    +0.037 C 
BRANCH  27  28
ATOM     28  C   UNL     1       4.999  -4.466  23.594  0.00  0.00    -0.047 A 
ATOM     29  C   UNL     1       5.263  -5.778  23.169  0.00  0.00    +0.003 A 
ATOM     30  C   UNL     1       5.861  -6.009  21.927  0.00  0.00    +0.000 A 
ATOM     31  C   UNL     1       6.198  -4.943  21.103  0.00  0.00    +0.000 A 
ATOM     32  C   UNL     1       5.935  -3.635  21.513  0.00  0.00    +0.000 A 
ATOM     33  C   UNL     1       5.330  -3.401  22.749  0.00  0.00    +0.003 A 
ENDBRANCH  27  28
ENDBRANCH  26  27
ENDBRANCH  20  26
ENDBRANCH  18  20
ENDBRANCH   1  18
TORSDOF 11
ENDMDL
MODEL 8
REMARK VINA RESULT:      -6.8      1.826      2.599
REMARK  Name = 
REMARK  13 active torsions:
REMARK  status: ('A' for Active; 'I' for Inactive)
REMARK    1  A    between atoms: CA_4  and  C_34
REMARK    2  A    between atoms: C_7  and  CA_9
REMARK    3  A    between atoms: CA_9  and  CB_11
REMARK    4  A    between atoms: CA_9  and  N_12
REMARK    5  A    between atoms: N_12  and  C_13
REMARK    6  A    between atoms: C_13  and  C_15
REMARK    7  A    between atoms: C_13  and  C_23
REMARK    8  A    between atoms: C_15  and  C_16
REMARK    9  A    between atoms: C_16  and  C_17
REMARK   10  A    between atoms: C_23  and  O_25
REMARK   11  A    between atoms: O_25  and  C_26
REMARK   12  A    between atoms: C_26  and  C_27
REMARK   13  A    between atoms: C_34  and  O_35
REMARK                            x       y       z     vdW  Elec       q    Type
REMARK                         _______ _______ _______ _____ _____    ______ ____
ROOT
ATOM      1  CA  UNL     1       7.405  -1.678  26.521  0.00  0.00    +0.138 C 
ATOM      2  CB  UNL     1       7.152  -0.170  26.622  0.00  0.00    +0.034 C 
ENDROOT
BRANCH   1  10
ATOM      3  C   UNL     1       5.331  -5.929  25.517  0.00  0.00    +0.012 C 
ATOM      4  C   UNL     1       4.101  -6.815  25.448  0.00  0.00    +0.005 C 
ATOM      5  C   UNL     1       3.432  -6.660  24.080  0.00  0.00    +0.000 C 
ATOM      6  C   UNL     1       3.205  -5.195  23.683  0.00  0.00    +0.002 C 
ATOM      7  C   UNL     1       4.455  -4.308  23.855  0.00  0.00    +0.023 C 
ATOM      8  C   UNL     1       4.979  -4.458  25.282  0.00  0.00    +0.080 C 
ATOM      9  N   UNL     1       6.198  -3.763  25.713  0.00  0.00    -0.283 N 
ATOM     10  C   UNL     1       6.272  -2.363  25.686  0.00  0.00    +0.233 C 
ATOM     11  O   UNL     1       5.457  -1.695  25.047  0.00  0.00    -0.274 OA
ATOM     12  CA  UNL     1       6.938  -4.621  26.678  0.00  0.00    +0.185 C 
ATOM     13  C   UNL     1       6.060  -5.871  26.849  0.00  0.00    +0.039 C 
BRANCH  12  14
ATOM     14  C   UNL     1       8.333  -5.019  26.197  0.00  0.00    +0.325 C 
ATOM     15  OXT UNL     1       8.561  -5.439  25.071  0.00  0.00    -0.249 OA
BRANCH  14  16
ATOM     16  O   UNL     1       9.304  -4.798  27.110  0.00  0.00    -0.479 OA
ATOM     17  H   UNL     1       9.443  -3.837  27.254  0.00  0.00    +0.295 HD
ENDBRANCH  14  16
ENDBRANCH  12  14
ENDBRANCH   1  10
BRANCH   1  18
ATOM     18  N   UNL     1       8.727  -1.975  25.926  0.00  0.00    -0.294 NA
ATOM     19  H   UNL     1       8.777  -2.979  25.733  0.00  0.00    +0.123 HD
BRANCH  18  20
ATOM     20  C   UNL     1       9.063  -1.208  24.703  0.00  0.00    +0.164 C 
BRANCH  20  21
ATOM     21  C   UNL     1       9.549  -2.187  23.617  0.00  0.00    +0.324 C 
ATOM     22  O   UNL     1      10.420  -3.036  23.768  0.00  0.00    -0.249 OA
BRANCH  21  23
ATOM     23  O   UNL     1       8.932  -1.910  22.426  0.00  0.00    -0.464 OA
BRANCH  23  24
ATOM     24  C   UNL     1       7.534  -2.233  22.379  0.00  0.00    +0.229 C 
ATOM     25  C   UNL     1       7.408  -3.738  22.224  0.00  0.00    +0.048 C 
ENDBRANCH  23  24
ENDBRANCH  21  23
ENDBRANCH  20  21
BRANCH  20  26
ATOM     26  C   UNL     1      10.162  -0.152  24.954  0.00  0.00    +0.035 C 
BRANCH  26  27
ATOM     27  C   UNL     1      10.553   0.635  23.694  0.00  0.00    +0.037 C 
BRANCH  27  28
ATOM     28  C   UNL     1       9.488   1.635  23.320  0.00  0.00    -0.047 A 
ATOM     29  C   UNL     1       9.179   2.701  24.181  0.00  0.00    +0.003 A 
ATOM     30  C   UNL     1       8.209   3.641  23.818  0.00  0.00    +0.000 A 
ATOM     31  C   UNL     1       7.546   3.529  22.603  0.00  0.00    +0.000 A 
ATOM     32  C   UNL     1       7.851   2.477  21.737  0.00  0.00    +0.000 A 
ATOM     33  C   UNL     1       8.823   1.542  22.092  0.00  0.00    +0.003 A 
ENDBRANCH  27  28
ENDBRANCH  26  27
ENDBRANCH  20  26
ENDBRANCH  18  20
ENDBRANCH   1  18
TORSDOF 11
ENDMDL
MODEL 9
REMARK VINA RESULT:      -6.8      1.824      8.776
REMARK  Name = 
REMARK  13 active torsions:
REMARK  status: ('A' for Active; 'I' for Inactive)
REMARK    1  A    between atoms: CA_4  and  C_34
REMARK    2  A    between atoms: C_7  and  CA_9
REMARK    3  A    between atoms: CA_9  and  CB_11
REMARK    4  A    between atoms: CA_9  and  N_12
REMARK    5  A    between atoms: N_12  and  C_13
REMARK    6  A    between atoms: C_13  and  C_15
REMARK    7  A    between atoms: C_13  and  C_23
REMARK    8  A    between atoms: C_15  and  C_16
REMARK    9  A    between atoms: C_16  and  C_17
REMARK   10  A    between atoms: C_23  and  O_25
REMARK   11  A    between atoms: O_25  and  C_26
REMARK   12  A    between atoms: C_26  and  C_27
REMARK   13  A    between atoms: C_34  and  O_35
REMARK                            x       y       z     vdW  Elec       q    Type
REMARK                         _______ _______ _______ _____ _____    ______ ____
ROOT
ATOM      1  CA  UNL     1       8.256  -0.568  25.049  0.00  0.00    +0.138 C 
ATOM      2  CB  UNL     1       8.722  -1.242  26.344  0.00  0.00    +0.034 C 
ENDROOT
BRANCH   1  10
ATOM      3  C   UNL     1       8.470   4.142  23.975  0.00  0.00    +0.012 C 
ATOM      4  C   UNL     1       9.025   5.530  24.230  0.00  0.00    +0.005 C 
ATOM      5  C   UNL     1      10.302   5.732  23.408  0.00  0.00    +0.000 C 
ATOM      6  C   UNL     1      11.309   4.585  23.570  0.00  0.00    +0.002 C 
ATOM      7  C   UNL     1      10.686   3.186  23.395  0.00  0.00    +0.023 C 
ATOM      8  C   UNL     1       9.486   3.054  24.333  0.00  0.00    +0.080 C 
ATOM      9  N   UNL     1       8.666   1.837  24.339  0.00  0.00    -0.283 N 
ATOM     10  C   UNL     1       9.230   0.594  24.663  0.00  0.00    +0.233 C 
ATOM     11  O   UNL     1      10.452   0.433  24.667  0.00  0.00    -0.274 OA
ATOM     12  CA  UNL     1       7.246   2.203  24.595  0.00  0.00    +0.185 C 
ATOM     13  C   UNL     1       7.261   3.726  24.796  0.00  0.00    +0.039 C 
BRANCH  12  14
ATOM     14  C   UNL     1       6.304   1.832  23.450  0.00  0.00    +0.325 C 
ATOM     15  OXT UNL     1       6.688   1.597  22.313  0.00  0.00    -0.249 OA
BRANCH  14  16
ATOM     16  O   UNL     1       5.012   1.719  23.827  0.00  0.00    -0.479 OA
ATOM     17  H   UNL     1       4.657   2.579  24.141  0.00  0.00    +0.295 HD
ENDBRANCH  14  16
ENDBRANCH  12  14
ENDBRANCH   1  10
BRANCH   1  18
ATOM     18  N   UNL     1       8.149  -1.535  23.934  0.00  0.00    -0.294 NA
ATOM     19  H   UNL     1       9.094  -1.822  23.662  0.00  0.00    +0.123 HD
BRANCH  18  20
ATOM     20  C   UNL     1       7.315  -2.730  24.203  0.00  0.00    +0.164 C 
BRANCH  20  21
ATOM     21  C   UNL     1       8.011  -3.969  23.609  0.00  0.00    +0.324 C 
ATOM     22  O   UNL     1       8.995  -4.524  24.083  0.00  0.00    -0.249 OA
BRANCH  21  23
ATOM     23  O   UNL     1       7.428  -4.307  22.416  0.00  0.00    -0.464 OA
BRANCH  23  24
ATOM     24  C   UNL     1       7.219  -5.715  22.222  0.00  0.00    +0.229 C 
ATOM     25  C   UNL     1       6.160  -5.885  21.146  0.00  0.00    +0.048 C 
ENDBRANCH  23  24
ENDBRANCH  21  23
ENDBRANCH  20  21
BRANCH  20  26
ATOM     26  C   UNL     1       5.901  -2.610  23.594  0.00  0.00    +0.035 C 
BRANCH  26  27
ATOM     27  C   UNL     1       4.777  -2.969  24.578  0.00  0.00    +0.037 C 
BRANCH  27  28
ATOM     28  C   UNL     1       4.381  -4.419  24.450  0.00  0.00    -0.047 A 
ATOM     29  C   UNL     1       3.459  -4.822  23.472  0.00  0.00    +0.003 A 
ATOM     30  C   UNL     1       3.115  -6.171  23.340  0.00  0.00    +0.000 A 
ATOM     31  C   UNL     1       3.685  -7.123  24.174  0.00  0.00    +0.000 A 
ATOM     32  C   UNL     1       4.608  -6.734  25.147  0.00  0.00    +0.000 A 
ATOM     33  C   UNL     1       4.960  -5.390  25.276  0.00  0.00    +0.003 A 
ENDBRANCH  27  28
ENDBRANCH  26  27
ENDBRANCH  20  26
ENDBRANCH  18  20
ENDBRANCH   1  18
TORSDOF 11
ENDMDL
