MODEL 1
REMARK VINA RESULT:      -6.3      0.000      0.000
REMARK  Name = 
REMARK  7 active torsions:
REMARK  status: ('A' for Active; 'I' for Inactive)
REMARK    1  A    between atoms: C_1  and  N_2
REMARK    2  A    between atoms: C_3  and  C_4
REMARK    3  A    between atoms: C_4  and  C_5
REMARK    4  A    between atoms: C_5  and  O_6
REMARK    5  A    between atoms: C_10  and  C_11
REMARK    6  A    between atoms: C_11  and  C_13
REMARK    7  A    between atoms: C_16  and  C_17
REMARK                            x       y       z     vdW  Elec       q    Type
REMARK                         _______ _______ _______ _____ _____    ______ ____
ROOT
ATOM      1  C   UNL     1      10.346  -1.624  22.560  0.00  0.00    +0.149 C 
ATOM      2  N   UNL     1       9.758  -1.309  23.850  0.00  0.00    -0.344 N 
ATOM      3  C   UNL     1       9.169  -2.231  24.712  0.00  0.00    +0.090 A 
ATOM      4  C   UNL     1       8.770  -1.512  25.828  0.00  0.00    +0.031 A 
ATOM      5  C   UNL     1       9.092  -0.154  25.636  0.00  0.00    +0.024 A 
ATOM      6  C   UNL     1       9.729  -0.042  24.415  0.00  0.00    +0.030 A 
ENDROOT
BRANCH   3   7
ATOM      7  C   UNL     1       9.079  -3.681  24.494  0.00  0.00    +0.209 C 
ATOM      8  O   UNL     1      10.044  -4.433  24.618  0.00  0.00    -0.285 OA
BRANCH   7   9
ATOM      9  C   UNL     1       7.761  -4.296  24.104  0.00  0.00    +0.024 A 
ATOM     10  C   UNL     1       6.884  -4.786  25.077  0.00  0.00    +0.012 A 
ATOM     11  C   UNL     1       5.647  -5.329  24.713  0.00  0.00    +0.004 A 
ATOM     12  C   UNL     1       5.244  -5.360  23.373  0.00  0.00    -0.050 A 
ATOM     13  C   UNL     1       3.895  -5.919  23.025  0.00  0.00    +0.044 C 
ATOM     14  C   UNL     1       6.117  -4.867  22.397  0.00  0.00    +0.004 A 
ATOM     15  C   UNL     1       7.365  -4.331  22.758  0.00  0.00    +0.012 A 
ENDBRANCH   7   9
ENDBRANCH   3   7
BRANCH   6  16
ATOM     16  C   UNL     1      10.397   1.177  23.828  0.00  0.00    +0.173 C 
BRANCH  16  17
ATOM     17  C   UNL     1       9.600   1.946  22.788  0.00  0.00    +0.311 C 
ATOM     18  O   UNL     1       8.472   2.368  23.020  0.00  0.00    -0.251 OA
BRANCH  17  19
ATOM     19  O   UNL     1      10.175   2.125  21.583  0.00  0.00    -0.480 OA
ATOM     20  H   UNL     1       9.552   2.422  20.890  0.00  0.00    +0.295 HD
ENDBRANCH  17  19
ENDBRANCH  16  17
ENDBRANCH   6  16
TORSDOF 5
ENDMDL
MODEL 2
REMARK VINA RESULT:      -6.3      2.625      6.804
REMARK  Name = 
REMARK  7 active torsions:
REMARK  status: ('A' for Active; 'I' for Inactive)
REMARK    1  A    between atoms: C_1  and  N_2
REMARK    2  A    between atoms: C_3  and  C_4
REMARK    3  A    between atoms: C_4  and  C_5
REMARK    4  A    between atoms: C_5  and  O_6
REMARK    5  A    between atoms: C_10  and  C_11
REMARK    6  A    between atoms: C_11  and  C_13
REMARK    7  A    between atoms: C_16  and  C_17
REMARK                            x       y       z     vdW  Elec       q    Type
REMARK                         _______ _______ _______ _____ _____    ______ ____
ROOT
ATOM      1  C   UNL     1       7.165  -3.587  26.433  0.00  0.00    +0.149 C 
ATOM      2  N   UNL     1       6.950  -4.160  25.116  0.00  0.00    -0.344 N 
ATOM      3  C   UNL     1       7.853  -4.100  24.057  0.00  0.00    +0.090 A 
ATOM      4  C   UNL     1       7.261  -4.792  23.010  0.00  0.00    +0.031 A 
ATOM      5  C   UNL     1       5.994  -5.249  23.423  0.00  0.00    +0.024 A 
ATOM      6  C   UNL     1       5.821  -4.873  24.741  0.00  0.00    +0.030 A 
ENDROOT
BRANCH   3   7
ATOM      7  C   UNL     1       9.190  -3.494  24.094  0.00  0.00    +0.209 C 
ATOM      8  O   UNL     1      10.175  -4.084  24.534  0.00  0.00    -0.285 OA
BRANCH   7   9
ATOM      9  C   UNL     1       9.389  -2.093  23.578  0.00  0.00    +0.024 A 
ATOM     10  C   UNL     1       9.694  -1.046  24.451  0.00  0.00    +0.012 A 
ATOM     11  C   UNL     1       9.908   0.249  23.965  0.00  0.00    +0.004 A 
ATOM     12  C   UNL     1       9.858   0.516  22.592  0.00  0.00    -0.050 A 
ATOM     13  C   UNL     1      10.127   1.911  22.105  0.00  0.00    +0.044 C 
ATOM     14  C   UNL     1       9.556  -0.531  21.714  0.00  0.00    +0.004 A 
ATOM     15  C   UNL     1       9.330  -1.830  22.200  0.00  0.00    +0.012 A 
ENDBRANCH   7   9
ENDBRANCH   3   7
BRANCH   6  16
ATOM     16  C   UNL     1       4.697  -5.256  25.673  0.00  0.00    +0.173 C 
BRANCH  16  17
ATOM     17  C   UNL     1       4.823  -6.603  26.362  0.00  0.00    +0.311 C 
ATOM     18  O   UNL     1       5.724  -6.839  27.160  0.00  0.00    -0.251 OA
BRANCH  17  19
ATOM     19  O   UNL     1       3.915  -7.545  26.041  0.00  0.00    -0.480 OA
ATOM     20  H   UNL     1       4.133  -8.435  26.383  0.00  0.00    +0.295 HD
ENDBRANCH  17  19
ENDBRANCH  16  17
ENDBRANCH   6  16
TORSDOF 5
ENDMDL
MODEL 3
REMARK VINA RESULT:      -6.2      2.973      6.795
REMARK  Name = 
REMARK  7 active torsions:
REMARK  status: ('A' for Active; 'I' for Inactive)
REMARK    1  A    between atoms: C_1  and  N_2
REMARK    2  A    between atoms: C_3  and  C_4
REMARK    3  A    between atoms: C_4  and  C_5
REMARK    4  A    between atoms: C_5  and  O_6
REMARK    5  A    between atoms: C_10  and  C_11
REMARK    6  A    between atoms: C_11  and  C_13
REMARK    7  A    between atoms: C_16  and  C_17
REMARK                            x       y       z     vdW  Elec       q    Type
REMARK                         _______ _______ _______ _____ _____    ______ ____
ROOT
ATOM      1  C   UNL     1       6.354  -5.159  25.971  0.00  0.00    +0.149 C 
ATOM      2  N   UNL     1       6.575  -5.330  24.546  0.00  0.00    -0.344 N 
ATOM      3  C   UNL     1       7.738  -4.979  23.866  0.00  0.00    +0.090 A 
ATOM      4  C   UNL     1       7.530  -5.337  22.542  0.00  0.00    +0.031 A 
ATOM      5  C   UNL     1       6.237  -5.881  22.414  0.00  0.00    +0.024 A 
ATOM      6  C   UNL     1       5.661  -5.896  23.669  0.00  0.00    +0.030 A 
ENDROOT
BRANCH   3   7
ATOM      7  C   UNL     1       8.957  -4.422  24.467  0.00  0.00    +0.209 C 
ATOM      8  O   UNL     1       9.826  -5.124  24.978  0.00  0.00    -0.285 OA
BRANCH   7   9
ATOM      9  C   UNL     1       9.172  -2.931  24.470  0.00  0.00    +0.024 A 
ATOM     10  C   UNL     1       8.678  -2.139  25.510  0.00  0.00    +0.012 A 
ATOM     11  C   UNL     1       8.907  -0.759  25.526  0.00  0.00    +0.004 A 
ATOM     12  C   UNL     1       9.665  -0.146  24.521  0.00  0.00    -0.050 A 
ATOM     13  C   UNL     1       9.917   1.332  24.589  0.00  0.00    +0.044 C 
ATOM     14  C   UNL     1      10.163  -0.937  23.479  0.00  0.00    +0.004 A 
ATOM     15  C   UNL     1       9.927  -2.321  23.455  0.00  0.00    +0.012 A 
ENDBRANCH   7   9
ENDBRANCH   3   7
BRANCH   6  16
ATOM     16  C   UNL     1       4.348  -6.517  24.078  0.00  0.00    +0.173 C 
BRANCH  16  17
ATOM     17  C   UNL     1       3.149  -6.196  23.202  0.00  0.00    +0.311 C 
ATOM     18  O   UNL     1       2.793  -5.041  22.992  0.00  0.00    -0.251 OA
BRANCH  17  19
ATOM     19  O   UNL     1       2.471  -7.237  22.682  0.00  0.00    -0.480 OA
ATOM     20  H   UNL     1       2.640  -8.085  23.139  0.00  0.00    +0.295 HD
ENDBRANCH  17  19
ENDBRANCH  16  17
ENDBRANCH   6  16
TORSDOF 5
ENDMDL
MODEL 4
REMARK VINA RESULT:      -6.1      1.220      1.922
REMARK  Name = 
REMARK  7 active torsions:
REMARK  status: ('A' for Active; 'I' for Inactive)
REMARK    1  A    between atoms: C_1  and  N_2
REMARK    2  A    between atoms: C_3  and  C_4
REMARK    3  A    between atoms: C_4  and  C_5
REMARK    4  A    between atoms: C_5  and  O_6
REMARK    5  A    between atoms: C_10  and  C_11
REMARK    6  A    between atoms: C_11  and  C_13
REMARK    7  A    between atoms: C_16  and  C_17
REMARK                            x       y       z     vdW  Elec       q    Type
REMARK                         _______ _______ _______ _____ _____    ______ ____
ROOT
ATOM      1  C   UNL     1       9.075  -0.789  25.937  0.00  0.00    +0.149 C 
ATOM      2  N   UNL     1       9.465  -0.769  24.538  0.00  0.00    -0.344 N 
ATOM      3  C   UNL     1       9.527  -1.884  23.706  0.00  0.00    +0.090 A 
ATOM      4  C   UNL     1       9.914  -1.411  22.460  0.00  0.00    +0.031 A 
ATOM      5  C   UNL     1      10.110  -0.018  22.542  0.00  0.00    +0.024 A 
ATOM      6  C   UNL     1       9.804   0.375  23.830  0.00  0.00    +0.030 A 
ENDROOT
BRANCH   3   7
ATOM      7  C   UNL     1       9.167  -3.259  24.075  0.00  0.00    +0.209 C 
ATOM      8  O   UNL     1       9.982  -4.061  24.527  0.00  0.00    -0.285 OA
BRANCH   7   9
ATOM      9  C   UNL     1       7.748  -3.731  23.901  0.00  0.00    +0.024 A 
ATOM     10  C   UNL     1       6.681  -2.830  23.974  0.00  0.00    +0.012 A 
ATOM     11  C   UNL     1       5.366  -3.266  23.782  0.00  0.00    +0.004 A 
ATOM     12  C   UNL     1       5.091  -4.604  23.476  0.00  0.00    -0.050 A 
ATOM     13  C   UNL     1       3.669  -5.027  23.244  0.00  0.00    +0.044 C 
ATOM     14  C   UNL     1       6.156  -5.507  23.399  0.00  0.00    +0.004 A 
ATOM     15  C   UNL     1       7.478  -5.076  23.602  0.00  0.00    +0.012 A 
ENDBRANCH   7   9
ENDBRANCH   3   7
BRANCH   6  16
ATOM     16  C   UNL     1       9.714   1.780  24.373  0.00  0.00    +0.173 C 
BRANCH  16  17
ATOM     17  C   UNL     1      10.103   2.896  23.419  0.00  0.00    +0.311 C 
ATOM     18  O   UNL     1      11.242   3.350  23.384  0.00  0.00    -0.251 OA
BRANCH  17  19
ATOM     19  O   UNL     1       9.134   3.390  22.623  0.00  0.00    -0.480 OA
ATOM     20  H   UNL     1       8.445   2.737  22.389  0.00  0.00    +0.295 HD
ENDBRANCH  17  19
ENDBRANCH  16  17
ENDBRANCH   6  16
TORSDOF 5
ENDMDL
MODEL 5
REMARK VINA RESULT:      -5.9      2.591      6.533
REMARK  Name = 
REMARK  7 active torsions:
REMARK  status: ('A' for Active; 'I' for Inactive)
REMARK    1  A    between atoms: C_1  and  N_2
REMARK    2  A    between atoms: C_3  and  C_4
REMARK    3  A    between atoms: C_4  and  C_5
REMARK    4  A    between atoms: C_5  and  O_6
REMARK    5  A    between atoms: C_10  and  C_11
REMARK    6  A    between atoms: C_11  and  C_13
REMARK    7  A    between atoms: C_16  and  C_17
REMARK                            x       y       z     vdW  Elec       q    Type
REMARK                         _______ _______ _______ _____ _____    ______ ____
ROOT
ATOM      1  C   UNL     1       6.908  -1.937  22.900  0.00  0.00    +0.149 C 
ATOM      2  N   UNL     1       7.614  -2.918  23.704  0.00  0.00    -0.344 N 
ATOM      3  C   UNL     1       8.201  -2.670  24.942  0.00  0.00    +0.090 A 
ATOM      4  C   UNL     1       8.736  -3.878  25.362  0.00  0.00    +0.031 A 
ATOM      5  C   UNL     1       8.498  -4.852  24.372  0.00  0.00    +0.024 A 
ATOM      6  C   UNL     1       7.778  -4.252  23.357  0.00  0.00    +0.030 A 
ENDROOT
BRANCH   3   7
ATOM      7  C   UNL     1       8.170  -1.396  25.673  0.00  0.00    +0.209 C 
ATOM      8  O   UNL     1       7.571  -1.255  26.737  0.00  0.00    -0.285 OA
BRANCH   7   9
ATOM      9  C   UNL     1       8.896  -0.199  25.116  0.00  0.00    +0.024 A 
ATOM     10  C   UNL     1      10.193  -0.321  24.610  0.00  0.00    +0.012 A 
ATOM     11  C   UNL     1      10.853   0.786  24.066  0.00  0.00    +0.004 A 
ATOM     12  C   UNL     1      10.217   2.030  23.982  0.00  0.00    -0.050 A 
ATOM     13  C   UNL     1      10.944   3.187  23.360  0.00  0.00    +0.044 C 
ATOM     14  C   UNL     1       8.917   2.155  24.485  0.00  0.00    +0.004 A 
ATOM     15  C   UNL     1       8.255   1.048  25.042  0.00  0.00    +0.012 A 
ENDBRANCH   7   9
ENDBRANCH   3   7
BRANCH   6  16
ATOM     16  C   UNL     1       7.155  -4.909  22.150  0.00  0.00    +0.173 C 
BRANCH  16  17
ATOM     17  C   UNL     1       5.750  -5.456  22.332  0.00  0.00    +0.311 C 
ATOM     18  O   UNL     1       4.760  -4.737  22.244  0.00  0.00    -0.251 OA
BRANCH  17  19
ATOM     19  O   UNL     1       5.633  -6.766  22.622  0.00  0.00    -0.480 OA
ATOM     20  H   UNL     1       6.308  -7.093  23.250  0.00  0.00    +0.295 HD
ENDBRANCH  17  19
ENDBRANCH  16  17
ENDBRANCH   6  16
TORSDOF 5
ENDMDL
MODEL 6
REMARK VINA RESULT:      -5.9      2.412      6.404
REMARK  Name = 
REMARK  7 active torsions:
REMARK  status: ('A' for Active; 'I' for Inactive)
REMARK    1  A    between atoms: C_1  and  N_2
REMARK    2  A    between atoms: C_3  and  C_4
REMARK    3  A    between atoms: C_4  and  C_5
REMARK    4  A    between atoms: C_5  and  O_6
REMARK    5  A    between atoms: C_10  and  C_11
REMARK    6  A    between atoms: C_11  and  C_13
REMARK    7  A    between atoms: C_16  and  C_17
REMARK                            x       y       z     vdW  Elec       q    Type
REMARK                         _______ _______ _______ _____ _____    ______ ____
ROOT
ATOM      1  C   UNL     1       7.142  -2.894  22.149  0.00  0.00    +0.149 C 
ATOM      2  N   UNL     1       7.882  -3.465  23.261  0.00  0.00    -0.344 N 
ATOM      3  C   UNL     1       9.100  -2.991  23.743  0.00  0.00    +0.090 A 
ATOM      4  C   UNL     1       9.429  -3.805  24.816  0.00  0.00    +0.031 A 
ATOM      5  C   UNL     1       8.429  -4.785  24.969  0.00  0.00    +0.024 A 
ATOM      6  C   UNL     1       7.460  -4.550  24.015  0.00  0.00    +0.030 A 
ENDROOT
BRANCH   3   7
ATOM      7  C   UNL     1       9.824  -1.812  23.250  0.00  0.00    +0.209 C 
ATOM      8  O   UNL     1      10.750  -1.889  22.445  0.00  0.00    -0.285 OA
BRANCH   7   9
ATOM      9  C   UNL     1       9.435  -0.441  23.737  0.00  0.00    +0.024 A 
ATOM     10  C   UNL     1       8.231  -0.239  24.417  0.00  0.00    +0.012 A 
ATOM     11  C   UNL     1       7.886   1.030  24.895  0.00  0.00    +0.004 A 
ATOM     12  C   UNL     1       8.754   2.117  24.736  0.00  0.00    -0.050 A 
ATOM     13  C   UNL     1       8.364   3.456  25.292  0.00  0.00    +0.044 C 
ATOM     14  C   UNL     1       9.962   1.917  24.058  0.00  0.00    +0.004 A 
ATOM     15  C   UNL     1      10.307   0.647  23.568  0.00  0.00    +0.012 A 
ENDBRANCH   7   9
ENDBRANCH   3   7
BRANCH   6  16
ATOM     16  C   UNL     1       6.121  -5.232  23.866  0.00  0.00    +0.173 C 
BRANCH  16  17
ATOM     17  C   UNL     1       5.907  -6.021  22.587  0.00  0.00    +0.311 C 
ATOM     18  O   UNL     1       6.837  -6.557  21.993  0.00  0.00    -0.251 OA
BRANCH  17  19
ATOM     19  O   UNL     1       4.648  -6.090  22.111  0.00  0.00    -0.480 OA
ATOM     20  H   UNL     1       4.292  -5.229  21.813  0.00  0.00    +0.295 HD
ENDBRANCH  17  19
ENDBRANCH  16  17
ENDBRANCH   6  16
TORSDOF 5
ENDMDL
MODEL 7
REMARK VINA RESULT:      -5.9      3.160      6.901
REMARK  Name = 
REMARK  7 active torsions:
REMARK  status: ('A' for Active; 'I' for Inactive)
REMARK    1  A    between atoms: C_1  and  N_2
REMARK    2  A    between atoms: C_3  and  C_4
REMARK    3  A    between atoms: C_4  and  C_5
REMARK    4  A    between atoms: C_5  and  O_6
REMARK    5  A    between atoms: C_10  and  C_11
REMARK    6  A    between atoms: C_11  and  C_13
REMARK    7  A    between atoms: C_16  and  C_17
REMARK                            x       y       z     vdW  Elec       q    Type
REMARK                         _______ _______ _______ _____ _____    ______ ____
ROOT
ATOM      1  C   UNL     1       4.901  -3.886  24.673  0.00  0.00    +0.149 C 
ATOM      2  N   UNL     1       6.277  -4.327  24.818  0.00  0.00    -0.344 N 
ATOM      3  C   UNL     1       7.301  -4.073  23.910  0.00  0.00    +0.090 A 
ATOM      4  C   UNL     1       8.443  -4.647  24.450  0.00  0.00    +0.031 A 
ATOM      5  C   UNL     1       8.108  -5.268  25.669  0.00  0.00    +0.024 A 
ATOM      6  C   UNL     1       6.766  -5.042  25.902  0.00  0.00    +0.030 A 
ENDROOT
BRANCH   3   7
ATOM      7  C   UNL     1       7.187  -3.281  22.678  0.00  0.00    +0.209 C 
ATOM      8  O   UNL     1       6.530  -3.652  21.708  0.00  0.00    -0.285 OA
BRANCH   7   9
ATOM      9  C   UNL     1       7.896  -1.956  22.575  0.00  0.00    +0.024 A 
ATOM     10  C   UNL     1       9.098  -1.841  21.870  0.00  0.00    +0.012 A 
ATOM     11  C   UNL     1       9.739  -0.603  21.751  0.00  0.00    +0.004 A 
ATOM     12  C   UNL     1       9.174   0.553  22.302  0.00  0.00    -0.050 A 
ATOM     13  C   UNL     1       9.873   1.869  22.124  0.00  0.00    +0.044 C 
ATOM     14  C   UNL     1       7.969   0.442  23.006  0.00  0.00    +0.004 A 
ATOM     15  C   UNL     1       7.328  -0.802  23.137  0.00  0.00    +0.012 A 
ENDBRANCH   7   9
ENDBRANCH   3   7
BRANCH   6  16
ATOM     16  C   UNL     1       5.972  -5.375  27.142  0.00  0.00    +0.173 C 
BRANCH  16  17
ATOM     17  C   UNL     1       5.223  -6.696  27.126  0.00  0.00    +0.311 C 
ATOM     18  O   UNL     1       4.517  -7.028  26.179  0.00  0.00    -0.251 OA
BRANCH  17  19
ATOM     19  O   UNL     1       5.342  -7.483  28.213  0.00  0.00    -0.480 OA
ATOM     20  H   UNL     1       6.172  -7.344  28.711  0.00  0.00    +0.295 HD
ENDBRANCH  17  19
ENDBRANCH  16  17
ENDBRANCH   6  16
TORSDOF 5
ENDMDL
MODEL 8
REMARK VINA RESULT:      -5.8      1.645      2.615
REMARK  Name = 
REMARK  7 active torsions:
REMARK  status: ('A' for Active; 'I' for Inactive)
REMARK    1  A    between atoms: C_1  and  N_2
REMARK    2  A    between atoms: C_3  and  C_4
REMARK    3  A    between atoms: C_4  and  C_5
REMARK    4  A    between atoms: C_5  and  O_6
REMARK    5  A    between atoms: C_10  and  C_11
REMARK    6  A    between atoms: C_11  and  C_13
REMARK    7  A    between atoms: C_16  and  C_17
REMARK                            x       y       z     vdW  Elec       q    Type
REMARK                         _______ _______ _______ _____ _____    ______ ____
ROOT
ATOM      1  C   UNL     1       8.175   0.022  24.877  0.00  0.00    +0.149 C 
ATOM      2  N   UNL     1       8.729  -0.019  23.535  0.00  0.00    -0.344 N 
ATOM      3  C   UNL     1       9.178  -1.167  22.886  0.00  0.00    +0.090 A 
ATOM      4  C   UNL     1       9.595  -0.757  21.628  0.00  0.00    +0.031 A 
ATOM      5  C   UNL     1       9.423   0.637  21.522  0.00  0.00    +0.024 A 
ATOM      6  C   UNL     1       8.861   1.083  22.702  0.00  0.00    +0.030 A 
ENDROOT
BRANCH   3   7
ATOM      7  C   UNL     1       9.129  -2.535  23.417  0.00  0.00    +0.209 C 
ATOM      8  O   UNL     1      10.105  -3.087  23.922  0.00  0.00    -0.285 OA
BRANCH   7   9
ATOM      9  C   UNL     1       7.842  -3.314  23.353  0.00  0.00    +0.024 A 
ATOM     10  C   UNL     1       6.791  -2.893  22.532  0.00  0.00    +0.012 A 
ATOM     11  C   UNL     1       5.608  -3.635  22.451  0.00  0.00    +0.004 A 
ATOM     12  C   UNL     1       5.463  -4.833  23.160  0.00  0.00    -0.050 A 
ATOM     13  C   UNL     1       4.192  -5.620  23.021  0.00  0.00    +0.044 C 
ATOM     14  C   UNL     1       6.514  -5.260  23.980  0.00  0.00    +0.004 A 
ATOM     15  C   UNL     1       7.700  -4.511  24.072  0.00  0.00    +0.012 A 
ENDBRANCH   7   9
ENDBRANCH   3   7
BRANCH   6  16
ATOM     16  C   UNL     1       8.351   2.467  23.020  0.00  0.00    +0.173 C 
BRANCH  16  17
ATOM     17  C   UNL     1       6.986   2.826  22.459  0.00  0.00    +0.311 C 
ATOM     18  O   UNL     1       6.746   3.939  22.002  0.00  0.00    -0.251 OA
BRANCH  17  19
ATOM     19  O   UNL     1       6.032   1.875  22.507  0.00  0.00    -0.480 OA
ATOM     20  H   UNL     1       6.382   0.963  22.452  0.00  0.00    +0.295 HD
ENDBRANCH  17  19
ENDBRANCH  16  17
ENDBRANCH   6  16
TORSDOF 5
ENDMDL
MODEL 9
REMARK VINA RESULT:      -5.8      1.677      1.933
REMARK  Name = 
REMARK  7 active torsions:
REMARK  status: ('A' for Active; 'I' for Inactive)
REMARK    1  A    between atoms: C_1  and  N_2
REMARK    2  A    between atoms: C_3  and  C_4
REMARK    3  A    between atoms: C_4  and  C_5
REMARK    4  A    between atoms: C_5  and  O_6
REMARK    5  A    between atoms: C_10  and  C_11
REMARK    6  A    between atoms: C_11  and  C_13
REMARK    7  A    between atoms: C_16  and  C_17
REMARK                            x       y       z     vdW  Elec       q    Type
REMARK                         _______ _______ _______ _____ _____    ______ ____
ROOT
ATOM      1  C   UNL     1      10.055  -1.615  23.840  0.00  0.00    +0.149 C 
ATOM      2  N   UNL     1       9.149  -0.646  24.432  0.00  0.00    -0.344 N 
ATOM      3  C   UNL     1       7.944  -0.953  25.060  0.00  0.00    +0.090 A 
ATOM      4  C   UNL     1       7.423   0.256  25.497  0.00  0.00    +0.031 A 
ATOM      5  C   UNL     1       8.294   1.294  25.114  0.00  0.00    +0.024 A 
ATOM      6  C   UNL     1       9.376   0.722  24.475  0.00  0.00    +0.030 A 
ENDROOT
BRANCH   3   7
ATOM      7  C   UNL     1       7.401  -2.300  25.278  0.00  0.00    +0.209 C 
ATOM      8  O   UNL     1       7.171  -2.750  26.398  0.00  0.00    -0.285 OA
BRANCH   7   9
ATOM      9  C   UNL     1       7.107  -3.185  24.095  0.00  0.00    +0.024 A 
ATOM     10  C   UNL     1       7.587  -4.497  24.047  0.00  0.00    +0.012 A 
ATOM     11  C   UNL     1       7.286  -5.327  22.962  0.00  0.00    +0.004 A 
ATOM     12  C   UNL     1       6.468  -4.875  21.919  0.00  0.00    -0.050 A 
ATOM     13  C   UNL     1       6.140  -5.806  20.787  0.00  0.00    +0.044 C 
ATOM     14  C   UNL     1       5.983  -3.563  21.966  0.00  0.00    +0.004 A 
ATOM     15  C   UNL     1       6.292  -2.724  23.049  0.00  0.00    +0.012 A 
ENDBRANCH   7   9
ENDBRANCH   3   7
BRANCH   6  16
ATOM     16  C   UNL     1      10.644   1.398  24.015  0.00  0.00    +0.173 C 
BRANCH  16  17
ATOM     17  C   UNL     1      10.474   2.572  23.067  0.00  0.00    +0.311 C 
ATOM     18  O   UNL     1      10.547   3.734  23.455  0.00  0.00    -0.251 OA
BRANCH  17  19
ATOM     19  O   UNL     1      10.212   2.287  21.776  0.00  0.00    -0.480 OA
ATOM     20  H   UNL     1       9.272   2.394  21.532  0.00  0.00    +0.295 HD
ENDBRANCH  17  19
ENDBRANCH  16  17
ENDBRANCH   6  16
TORSDOF 5
ENDMDL
