MODEL 1
REMARK VINA RESULT:      -3.8      0.000      0.000
REMARK  Name = 
REMARK  8 active torsions:
REMARK  status: ('A' for Active; 'I' for Inactive)
REMARK    1  A    between atoms: C_1  and  N_2
REMARK    2  A    between atoms: N_2  and  C_3
REMARK    3  A    between atoms: N_2  and  C_4
REMARK    4  A    between atoms: N_2  and  C_5
REMARK    5  A    between atoms: C_5  and  C_6
REMARK    6  A    between atoms: C_6  and  O_8
REMARK    7  A    between atoms: C_6  and  C_9
REMARK    8  A    between atoms: C_9  and  C_10
REMARK                            x       y       z     vdW  Elec       q    Type
REMARK                         _______ _______ _______ _____ _____    ______ ____
ROOT
ATOM      1  C   UNL     1       7.554  -4.247  22.701  0.00  0.00    +0.165 C 
ENDROOT
BRANCH   1   2
ATOM      2  O   UNL     1       6.727  -3.257  22.051  0.00  0.00    -0.386 OA
ATOM      3  H   UNL     1       7.301  -2.489  21.871  0.00  0.00    +0.210 HD
ENDBRANCH   1   2
BRANCH   1   4
ATOM      4  C   UNL     1       7.514  -4.032  24.240  0.00  0.00    +0.164 C 
BRANCH   4   6
ATOM      5  C   UNL     1       9.601  -4.927  25.368  0.00  0.00    +0.192 C 
ATOM      6  N   UNL     1       8.849  -3.674  24.960  0.00  0.00    +0.239 N 
ATOM      7  C   UNL     1       9.722  -2.787  24.092  0.00  0.00    +0.192 C 
ATOM      8  C   UNL     1       8.471  -2.882  26.206  0.00  0.00    +0.192 C 
ENDBRANCH   4   6
ENDBRANCH   1   4
BRANCH   1   9
ATOM      9  C   UNL     1       7.212  -5.608  22.118  0.00  0.00    +0.088 C 
BRANCH   9  10
ATOM     10  C   UNL     1       5.891  -5.709  21.374  0.00  0.00    +0.044 C 
ATOM     11  O   UNL     1       4.864  -5.766  22.095  0.00  0.00    -0.550 OA
ATOM     12  O   UNL     1       6.000  -5.645  20.121  0.00  0.00    -0.550 OA
ENDBRANCH   9  10
ENDBRANCH   1   9
TORSDOF 5
ENDMDL
MODEL 2
REMARK VINA RESULT:      -3.8      3.281      5.277
REMARK  Name = 
REMARK  8 active torsions:
REMARK  status: ('A' for Active; 'I' for Inactive)
REMARK    1  A    between atoms: C_1  and  N_2
REMARK    2  A    between atoms: N_2  and  C_3
REMARK    3  A    between atoms: N_2  and  C_4
REMARK    4  A    between atoms: N_2  and  C_5
REMARK    5  A    between atoms: C_5  and  C_6
REMARK    6  A    between atoms: C_6  and  O_8
REMARK    7  A    between atoms: C_6  and  C_9
REMARK    8  A    between atoms: C_9  and  C_10
REMARK                            x       y       z     vdW  Elec       q    Type
REMARK                         _______ _______ _______ _____ _____    ______ ____
ROOT
ATOM      1  C   UNL     1       9.644  -1.299  22.726  0.00  0.00    +0.165 C 
ENDROOT
BRANCH   1   2
ATOM      2  O   UNL     1      10.221  -1.637  21.446  0.00  0.00    -0.386 OA
ATOM      3  H   UNL     1       9.491  -1.624  20.799  0.00  0.00    +0.210 HD
ENDBRANCH   1   2
BRANCH   1   4
ATOM      4  C   UNL     1       9.963  -2.421  23.754  0.00  0.00    +0.164 C 
BRANCH   4   6
ATOM      5  C   UNL     1       7.976  -2.420  25.329  0.00  0.00    +0.192 C 
ATOM      6  N   UNL     1       8.770  -3.241  24.331  0.00  0.00    +0.239 N 
ATOM      7  C   UNL     1       7.867  -3.752  23.223  0.00  0.00    +0.192 C 
ATOM      8  C   UNL     1       9.375  -4.450  25.035  0.00  0.00    +0.192 C 
ENDBRANCH   4   6
ENDBRANCH   1   4
BRANCH   1   9
ATOM      9  C   UNL     1      10.003   0.143  23.043  0.00  0.00    +0.088 C 
BRANCH   9  10
ATOM     10  C   UNL     1       9.759   1.156  21.937  0.00  0.00    +0.044 C 
ATOM     11  O   UNL     1       8.841   0.868  21.129  0.00  0.00    -0.550 OA
ATOM     12  O   UNL     1      10.466   2.194  22.025  0.00  0.00    -0.550 OA
ENDBRANCH   9  10
ENDBRANCH   1   9
TORSDOF 5
ENDMDL
MODEL 3
REMARK VINA RESULT:      -3.8      3.779      5.142
REMARK  Name = 
REMARK  8 active torsions:
REMARK  status: ('A' for Active; 'I' for Inactive)
REMARK    1  A    between atoms: C_1  and  N_2
REMARK    2  A    between atoms: N_2  and  C_3
REMARK    3  A    between atoms: N_2  and  C_4
REMARK    4  A    between atoms: N_2  and  C_5
REMARK    5  A    between atoms: C_5  and  C_6
REMARK    6  A    between atoms: C_6  and  O_8
REMARK    7  A    between atoms: C_6  and  C_9
REMARK    8  A    between atoms: C_9  and  C_10
REMARK                            x       y       z     vdW  Elec       q    Type
REMARK                         _______ _______ _______ _____ _____    ______ ____
ROOT
ATOM      1  C   UNL     1       9.808  -0.946  22.779  0.00  0.00    +0.165 C 
ENDROOT
BRANCH   1   2
ATOM      2  O   UNL     1      10.290  -1.548  21.557  0.00  0.00    -0.386 OA
ATOM      3  H   UNL     1      10.851  -2.301  21.820  0.00  0.00    +0.210 HD
ENDBRANCH   1   2
BRANCH   1   4
ATOM      4  C   UNL     1       9.695   0.593  22.594  0.00  0.00    +0.164 C 
BRANCH   4   6
ATOM      5  C   UNL     1      10.669   2.800  23.375  0.00  0.00    +0.192 C 
ATOM      6  N   UNL     1      10.023   1.500  23.818  0.00  0.00    +0.239 N 
ATOM      7  C   UNL     1       8.783   1.776  24.647  0.00  0.00    +0.192 C 
ATOM      8  C   UNL     1      11.001   0.718  24.687  0.00  0.00    +0.192 C 
ENDBRANCH   4   6
ENDBRANCH   1   4
BRANCH   1   9
ATOM      9  C   UNL     1       8.604  -1.741  23.257  0.00  0.00    +0.088 C 
BRANCH   9  10
ATOM     10  C   UNL     1       8.884  -3.148  23.759  0.00  0.00    +0.044 C 
ATOM     11  O   UNL     1       7.908  -3.939  23.729  0.00  0.00    -0.550 OA
ATOM     12  O   UNL     1      10.086  -3.355  24.070  0.00  0.00    -0.550 OA
ENDBRANCH   9  10
ENDBRANCH   1   9
TORSDOF 5
ENDMDL
MODEL 4
REMARK VINA RESULT:      -3.7      5.435      7.505
REMARK  Name = 
REMARK  8 active torsions:
REMARK  status: ('A' for Active; 'I' for Inactive)
REMARK    1  A    between atoms: C_1  and  N_2
REMARK    2  A    between atoms: N_2  and  C_3
REMARK    3  A    between atoms: N_2  and  C_4
REMARK    4  A    between atoms: N_2  and  C_5
REMARK    5  A    between atoms: C_5  and  C_6
REMARK    6  A    between atoms: C_6  and  O_8
REMARK    7  A    between atoms: C_6  and  C_9
REMARK    8  A    between atoms: C_9  and  C_10
REMARK                            x       y       z     vdW  Elec       q    Type
REMARK                         _______ _______ _______ _____ _____    ______ ____
ROOT
ATOM      1  C   UNL     1       9.693   1.548  22.652  0.00  0.00    +0.165 C 
ENDROOT
BRANCH   1   2
ATOM      2  O   UNL     1      10.011   2.246  21.428  0.00  0.00    -0.386 OA
ATOM      3  H   UNL     1      10.764   1.774  21.026  0.00  0.00    +0.210 HD
ENDBRANCH   1   2
BRANCH   1   4
ATOM      4  C   UNL     1       9.886   0.019  22.447  0.00  0.00    +0.164 C 
BRANCH   4   6
ATOM      5  C   UNL     1       8.612  -2.167  22.279  0.00  0.00    +0.192 C 
ATOM      6  N   UNL     1       8.871  -0.942  23.136  0.00  0.00    +0.239 N 
ATOM      7  C   UNL     1       9.349  -1.349  24.517  0.00  0.00    +0.192 C 
ATOM      8  C   UNL     1       7.575  -0.156  23.303  0.00  0.00    +0.192 C 
ENDBRANCH   4   6
ENDBRANCH   1   4
BRANCH   1   9
ATOM      9  C   UNL     1      10.401   2.253  23.798  0.00  0.00    +0.088 C 
BRANCH   9  10
ATOM     10  C   UNL     1      10.683   3.733  23.606  0.00  0.00    +0.044 C 
ATOM     11  O   UNL     1      11.867   4.027  23.305  0.00  0.00    -0.550 OA
ATOM     12  O   UNL     1       9.665   4.468  23.701  0.00  0.00    -0.550 OA
ENDBRANCH   9  10
ENDBRANCH   1   9
TORSDOF 5
ENDMDL
MODEL 5
REMARK VINA RESULT:      -3.7      4.538      5.718
REMARK  Name = 
REMARK  8 active torsions:
REMARK  status: ('A' for Active; 'I' for Inactive)
REMARK    1  A    between atoms: C_1  and  N_2
REMARK    2  A    between atoms: N_2  and  C_3
REMARK    3  A    between atoms: N_2  and  C_4
REMARK    4  A    between atoms: N_2  and  C_5
REMARK    5  A    between atoms: C_5  and  C_6
REMARK    6  A    between atoms: C_6  and  O_8
REMARK    7  A    between atoms: C_6  and  C_9
REMARK    8  A    between atoms: C_9  and  C_10
REMARK                            x       y       z     vdW  Elec       q    Type
REMARK                         _______ _______ _______ _____ _____    ______ ____
ROOT
ATOM      1  C   UNL     1       6.811  -5.095  27.144  0.00  0.00    +0.165 C 
ENDROOT
BRANCH   1   2
ATOM      2  O   UNL     1       7.972  -5.874  27.505  0.00  0.00    -0.386 OA
ATOM      3  H   UNL     1       8.144  -6.480  26.760  0.00  0.00    +0.210 HD
ENDBRANCH   1   2
BRANCH   1   4
ATOM      4  C   UNL     1       6.404  -5.414  25.677  0.00  0.00    +0.164 C 
BRANCH   4   6
ATOM      5  C   UNL     1       5.792  -4.279  23.494  0.00  0.00    +0.192 C 
ATOM      6  N   UNL     1       6.858  -4.423  24.564  0.00  0.00    +0.239 N 
ATOM      7  C   UNL     1       7.216  -3.068  25.146  0.00  0.00    +0.192 C 
ATOM      8  C   UNL     1       8.120  -5.014  23.946  0.00  0.00    +0.192 C 
ENDBRANCH   4   6
ENDBRANCH   1   4
BRANCH   1   9
ATOM      9  C   UNL     1       5.786  -5.226  28.259  0.00  0.00    +0.088 C 
BRANCH   9  10
ATOM     10  C   UNL     1       5.978  -6.390  29.216  0.00  0.00    +0.044 C 
ATOM     11  O   UNL     1       5.759  -7.530  28.736  0.00  0.00    -0.550 OA
ATOM     12  O   UNL     1       6.409  -6.058  30.351  0.00  0.00    -0.550 OA
ENDBRANCH   9  10
ENDBRANCH   1   9
TORSDOF 5
ENDMDL
MODEL 6
REMARK VINA RESULT:      -3.7      3.352      5.287
REMARK  Name = 
REMARK  8 active torsions:
REMARK  status: ('A' for Active; 'I' for Inactive)
REMARK    1  A    between atoms: C_1  and  N_2
REMARK    2  A    between atoms: N_2  and  C_3
REMARK    3  A    between atoms: N_2  and  C_4
REMARK    4  A    between atoms: N_2  and  C_5
REMARK    5  A    between atoms: C_5  and  C_6
REMARK    6  A    between atoms: C_6  and  O_8
REMARK    7  A    between atoms: C_6  and  C_9
REMARK    8  A    between atoms: C_9  and  C_10
REMARK                            x       y       z     vdW  Elec       q    Type
REMARK                         _______ _______ _______ _____ _____    ______ ____
ROOT
ATOM      1  C   UNL     1       9.082  -1.565  22.386  0.00  0.00    +0.165 C 
ENDROOT
BRANCH   1   2
ATOM      2  O   UNL     1      10.297  -1.613  21.608  0.00  0.00    -0.386 OA
ATOM      3  H   UNL     1      10.909  -0.966  22.005  0.00  0.00    +0.210 HD
ENDBRANCH   1   2
BRANCH   1   4
ATOM      4  C   UNL     1       9.131  -2.649  23.499  0.00  0.00    +0.164 C 
BRANCH   4   6
ATOM      5  C   UNL     1       8.274  -4.935  24.184  0.00  0.00    +0.192 C 
ATOM      6  N   UNL     1       7.879  -3.558  23.685  0.00  0.00    +0.239 N 
ATOM      7  C   UNL     1       6.870  -2.921  24.623  0.00  0.00    +0.192 C 
ATOM      8  C   UNL     1       7.226  -3.684  22.313  0.00  0.00    +0.192 C 
ENDBRANCH   4   6
ENDBRANCH   1   4
BRANCH   1   9
ATOM      9  C   UNL     1       8.811  -0.115  22.754  0.00  0.00    +0.088 C 
BRANCH   9  10
ATOM     10  C   UNL     1      10.022   0.802  22.810  0.00  0.00    +0.044 C 
ATOM     11  O   UNL     1      10.799   0.618  23.780  0.00  0.00    -0.550 OA
ATOM     12  O   UNL     1      10.124   1.580  21.826  0.00  0.00    -0.550 OA
ENDBRANCH   9  10
ENDBRANCH   1   9
TORSDOF 5
ENDMDL
MODEL 7
REMARK VINA RESULT:      -3.7      4.565      5.855
REMARK  Name = 
REMARK  8 active torsions:
REMARK  status: ('A' for Active; 'I' for Inactive)
REMARK    1  A    between atoms: C_1  and  N_2
REMARK    2  A    between atoms: N_2  and  C_3
REMARK    3  A    between atoms: N_2  and  C_4
REMARK    4  A    between atoms: N_2  and  C_5
REMARK    5  A    between atoms: C_5  and  C_6
REMARK    6  A    between atoms: C_6  and  O_8
REMARK    7  A    between atoms: C_6  and  C_9
REMARK    8  A    between atoms: C_9  and  C_10
REMARK                            x       y       z     vdW  Elec       q    Type
REMARK                         _______ _______ _______ _____ _____    ______ ____
ROOT
ATOM      1  C   UNL     1       9.498   1.112  22.239  0.00  0.00    +0.165 C 
ENDROOT
BRANCH   1   2
ATOM      2  O   UNL     1      10.189   2.180  21.554  0.00  0.00    -0.386 OA
ATOM      3  H   UNL     1       9.738   2.299  20.697  0.00  0.00    +0.210 HD
ENDBRANCH   1   2
BRANCH   1   4
ATOM      4  C   UNL     1       8.188   1.660  22.872  0.00  0.00    +0.164 C 
BRANCH   4   6
ATOM      5  C   UNL     1       6.639   1.425  24.865  0.00  0.00    +0.192 C 
ATOM      6  N   UNL     1       8.073   1.655  24.426  0.00  0.00    +0.239 N 
ATOM      7  C   UNL     1       8.992   0.617  25.043  0.00  0.00    +0.192 C 
ATOM      8  C   UNL     1       8.535   3.028  24.899  0.00  0.00    +0.192 C 
ENDBRANCH   4   6
ENDBRANCH   1   4
BRANCH   1   9
ATOM      9  C   UNL     1       9.445  -0.091  21.311  0.00  0.00    +0.088 C 
BRANCH   9  10
ATOM     10  C   UNL     1       9.507  -1.456  21.976  0.00  0.00    +0.044 C 
ATOM     11  O   UNL     1      10.643  -1.814  22.376  0.00  0.00    -0.550 OA
ATOM     12  O   UNL     1       8.388  -2.017  22.105  0.00  0.00    -0.550 OA
ENDBRANCH   9  10
ENDBRANCH   1   9
TORSDOF 5
ENDMDL
MODEL 8
REMARK VINA RESULT:      -3.7      4.480      6.041
REMARK  Name = 
REMARK  8 active torsions:
REMARK  status: ('A' for Active; 'I' for Inactive)
REMARK    1  A    between atoms: C_1  and  N_2
REMARK    2  A    between atoms: N_2  and  C_3
REMARK    3  A    between atoms: N_2  and  C_4
REMARK    4  A    between atoms: N_2  and  C_5
REMARK    5  A    between atoms: C_5  and  C_6
REMARK    6  A    between atoms: C_6  and  O_8
REMARK    7  A    between atoms: C_6  and  C_9
REMARK    8  A    between atoms: C_9  and  C_10
REMARK                            x       y       z     vdW  Elec       q    Type
REMARK                         _______ _______ _______ _____ _____    ______ ____
ROOT
ATOM      1  C   UNL     1       9.613  -0.032  24.790  0.00  0.00    +0.165 C 
ENDROOT
BRANCH   1   2
ATOM      2  O   UNL     1       9.514  -0.010  26.231  0.00  0.00    -0.386 OA
ATOM      3  H   UNL     1      10.354  -0.371  26.574  0.00  0.00    +0.210 HD
ENDBRANCH   1   2
BRANCH   1   4
ATOM      4  C   UNL     1      10.653   1.024  24.322  0.00  0.00    +0.164 C 
BRANCH   4   6
ATOM      5  C   UNL     1      11.126   3.355  23.444  0.00  0.00    +0.192 C 
ATOM      6  N   UNL     1      10.149   2.194  23.425  0.00  0.00    +0.239 N 
ATOM      7  C   UNL     1       9.901   1.730  22.002  0.00  0.00    +0.192 C 
ATOM      8  C   UNL     1       8.815   2.645  24.009  0.00  0.00    +0.192 C 
ENDBRANCH   4   6
ENDBRANCH   1   4
BRANCH   1   9
ATOM      9  C   UNL     1       9.751  -1.479  24.346  0.00  0.00    +0.088 C 
BRANCH   9  10
ATOM     10  C   UNL     1       9.614  -1.741  22.856  0.00  0.00    +0.044 C 
ATOM     11  O   UNL     1       8.439  -1.756  22.412  0.00  0.00    -0.550 OA
ATOM     12  O   UNL     1      10.712  -1.834  22.246  0.00  0.00    -0.550 OA
ENDBRANCH   9  10
ENDBRANCH   1   9
TORSDOF 5
ENDMDL
MODEL 9
REMARK VINA RESULT:      -3.6      4.052      5.215
REMARK  Name = 
REMARK  8 active torsions:
REMARK  status: ('A' for Active; 'I' for Inactive)
REMARK    1  A    between atoms: C_1  and  N_2
REMARK    2  A    between atoms: N_2  and  C_3
REMARK    3  A    between atoms: N_2  and  C_4
REMARK    4  A    between atoms: N_2  and  C_5
REMARK    5  A    between atoms: C_5  and  C_6
REMARK    6  A    between atoms: C_6  and  O_8
REMARK    7  A    between atoms: C_6  and  C_9
REMARK    8  A    between atoms: C_9  and  C_10
REMARK                            x       y       z     vdW  Elec       q    Type
REMARK                         _______ _______ _______ _____ _____    ______ ____
ROOT
ATOM      1  C   UNL     1       7.915  -0.488  22.926  0.00  0.00    +0.165 C 
ENDROOT
BRANCH   1   2
ATOM      2  O   UNL     1       6.475  -0.385  22.872  0.00  0.00    -0.386 OA
ATOM      3  H   UNL     1       6.123  -1.258  23.130  0.00  0.00    +0.210 HD
ENDBRANCH   1   2
BRANCH   1   4
ATOM      4  C   UNL     1       8.458   0.390  24.089  0.00  0.00    +0.164 C 
BRANCH   4   6
ATOM      5  C   UNL     1      10.904   1.007  24.333  0.00  0.00    +0.192 C 
ATOM      6  N   UNL     1       9.567   1.433  23.757  0.00  0.00    +0.239 N 
ATOM      7  C   UNL     1       9.679   1.660  22.261  0.00  0.00    +0.192 C 
ATOM      8  C   UNL     1       9.133   2.746  24.397  0.00  0.00    +0.192 C 
ENDBRANCH   4   6
ENDBRANCH   1   4
BRANCH   1   9
ATOM      9  C   UNL     1       8.289  -1.959  22.851  0.00  0.00    +0.088 C 
BRANCH   9  10
ATOM     10  C   UNL     1       9.767  -2.285  22.984  0.00  0.00    +0.044 C 
ATOM     11  O   UNL     1      10.522  -1.738  22.142  0.00  0.00    -0.550 OA
ATOM     12  O   UNL     1      10.048  -3.007  23.976  0.00  0.00    -0.550 OA
ENDBRANCH   9  10
ENDBRANCH   1   9
TORSDOF 5
ENDMDL
