MODEL 1
REMARK VINA RESULT:      -5.8      0.000      0.000
REMARK  Name = 
REMARK  13 active torsions:
REMARK  status: ('A' for Active; 'I' for Inactive)
REMARK    1  A    between atoms: O_1  and  C_2
REMARK    2  A    between atoms: C_2  and  C_3
REMARK    3  A    between atoms: C_6  and  C_7
REMARK    4  A    between atoms: C_6  and  O_9
REMARK    5  A    between atoms: C_7  and  O_8
REMARK    6  A    between atoms: O_9  and  C_10
REMARK    7  A    between atoms: C_13  and  C_15
REMARK    8  A    between atoms: C_15  and  O_16
REMARK    9  A    between atoms: C_17  and  O_19
REMARK   10  A    between atoms: C_20  and  O_22
REMARK   11  A    between atoms: C_23  and  O_25
REMARK   12  A    between atoms: C_26  and  O_28
REMARK   13  A    between atoms: C_29  and  O_31
REMARK                            x       y       z     vdW  Elec       q    Type
REMARK                         _______ _______ _______ _____ _____    ______ ____
ROOT
ATOM      1  O   UNL     1       8.173   0.919  23.222  0.00  0.00    -0.313 OA
ENDROOT
BRANCH   1   2
ATOM      2  C   UNL     1       8.840   2.004  22.568  0.00  0.00    +0.285 C 
ATOM      3  C   UNL     1       9.813   2.723  23.553  0.00  0.00    +0.201 C 
ATOM      4  C   UNL     1       9.090   3.749  24.448  0.00  0.00    +0.179 C 
ATOM      5  C   UNL     1       8.169   4.648  23.615  0.00  0.00    +0.177 C 
ATOM      6  C   UNL     1       7.202   3.819  22.760  0.00  0.00    +0.178 C 
ATOM      7  O   UNL     1       7.915   2.897  21.930  0.00  0.00    -0.340 OA
BRANCH   3   8
ATOM      8  O   UNL     1      10.877   3.348  22.808  0.00  0.00    -0.384 OA
ATOM      9  H   UNL     1      11.148   4.162  23.275  0.00  0.00    +0.210 HD
ENDBRANCH   3   8
BRANCH   4  10
ATOM     10  O   UNL     1       8.381   3.134  25.521  0.00  0.00    -0.386 OA
ATOM     11  H   UNL     1       8.449   3.685  26.320  0.00  0.00    +0.210 HD
ENDBRANCH   4  10
BRANCH   5  12
ATOM     12  O   UNL     1       8.993   5.476  22.767  0.00  0.00    -0.386 OA
ATOM     13  H   UNL     1       9.700   4.922  22.383  0.00  0.00    +0.210 HD
ENDBRANCH   5  12
BRANCH   6  14
ATOM     14  C   UNL     1       6.028   3.191  23.525  0.00  0.00    +0.190 C 
BRANCH  14  15
ATOM     15  O   UNL     1       5.490   2.049  22.870  0.00  0.00    -0.392 OA
ATOM     16  H   UNL     1       6.147   1.692  22.249  0.00  0.00    +0.210 HD
ENDBRANCH  14  15
ENDBRANCH   6  14
ENDBRANCH   1   2
BRANCH   1  20
ATOM     17  C   UNL     1       9.082  -1.762  24.802  0.00  0.00    +0.178 C 
ATOM     18  C   UNL     1       7.856  -2.359  24.122  0.00  0.00    +0.179 C 
ATOM     19  C   UNL     1       7.560  -1.449  22.931  0.00  0.00    +0.207 C 
ATOM     20  C   UNL     1       8.701  -0.392  22.919  0.00  0.00    +0.225 C 
ATOM     21  O   UNL     1       9.673  -0.822  23.888  0.00  0.00    -0.336 OA
BRANCH  18  22
ATOM     22  O   UNL     1       8.148  -3.689  23.661  0.00  0.00    -0.386 OA
ATOM     23  H   UNL     1       7.367  -4.247  23.809  0.00  0.00    +0.210 HD
ENDBRANCH  18  22
BRANCH  19  24
ATOM     24  O   UNL     1       6.247  -0.891  23.065  0.00  0.00    -0.384 OA
ATOM     25  H   UNL     1       6.045  -0.868  24.018  0.00  0.00    +0.210 HD
ENDBRANCH  19  24
BRANCH  17  26
ATOM     26  C   UNL     1       8.725  -1.058  26.116  0.00  0.00    +0.190 C 
BRANCH  26  27
ATOM     27  O   UNL     1       9.163   0.303  26.054  0.00  0.00    -0.392 OA
ATOM     28  H   UNL     1       8.425   0.859  26.355  0.00  0.00    +0.210 HD
ENDBRANCH  26  27
ENDBRANCH  17  26
BRANCH  20  29
ATOM     29  C   UNL     1       9.413  -0.433  21.544  0.00  0.00    +0.223 C 
BRANCH  29  30
ATOM     30  O   UNL     1      10.327  -1.527  21.454  0.00  0.00    -0.390 OA
ATOM     31  H   UNL     1      10.625  -1.542  20.524  0.00  0.00    +0.210 HD
ENDBRANCH  29  30
ENDBRANCH  20  29
ENDBRANCH   1  20
TORSDOF 13
ENDMDL
MODEL 2
REMARK VINA RESULT:      -5.7      2.299      6.325
REMARK  Name = 
REMARK  13 active torsions:
REMARK  status: ('A' for Active; 'I' for Inactive)
REMARK    1  A    between atoms: O_1  and  C_2
REMARK    2  A    between atoms: C_2  and  C_3
REMARK    3  A    between atoms: C_6  and  C_7
REMARK    4  A    between atoms: C_6  and  O_9
REMARK    5  A    between atoms: C_7  and  O_8
REMARK    6  A    between atoms: O_9  and  C_10
REMARK    7  A    between atoms: C_13  and  C_15
REMARK    8  A    between atoms: C_15  and  O_16
REMARK    9  A    between atoms: C_17  and  O_19
REMARK   10  A    between atoms: C_20  and  O_22
REMARK   11  A    between atoms: C_23  and  O_25
REMARK   12  A    between atoms: C_26  and  O_28
REMARK   13  A    between atoms: C_29  and  O_31
REMARK                            x       y       z     vdW  Elec       q    Type
REMARK                         _______ _______ _______ _____ _____    ______ ____
ROOT
ATOM      1  O   UNL     1       8.284  -2.074  24.441  0.00  0.00    -0.313 OA
ENDROOT
BRANCH   1   2
ATOM      2  C   UNL     1       8.922  -3.188  25.074  0.00  0.00    +0.285 C 
ATOM      3  C   UNL     1       8.560  -4.516  24.342  0.00  0.00    +0.201 C 
ATOM      4  C   UNL     1       7.198  -5.083  24.791  0.00  0.00    +0.179 C 
ATOM      5  C   UNL     1       7.086  -5.089  26.320  0.00  0.00    +0.177 C 
ATOM      6  C   UNL     1       7.378  -3.703  26.908  0.00  0.00    +0.178 C 
ATOM      7  O   UNL     1       8.658  -3.226  26.484  0.00  0.00    -0.340 OA
BRANCH   3   8
ATOM      8  O   UNL     1       9.612  -5.481  24.548  0.00  0.00    -0.384 OA
ATOM      9  H   UNL     1      10.369  -5.243  23.979  0.00  0.00    +0.210 HD
ENDBRANCH   3   8
BRANCH   4  10
ATOM     10  O   UNL     1       6.099  -4.398  24.195  0.00  0.00    -0.386 OA
ATOM     11  H   UNL     1       6.393  -3.535  23.855  0.00  0.00    +0.210 HD
ENDBRANCH   4  10
BRANCH   5  12
ATOM     12  O   UNL     1       8.027  -6.053  26.837  0.00  0.00    -0.386 OA
ATOM     13  H   UNL     1       7.555  -6.653  27.448  0.00  0.00    +0.210 HD
ENDBRANCH   5  12
BRANCH   6  14
ATOM     14  C   UNL     1       6.246  -2.676  26.751  0.00  0.00    +0.190 C 
BRANCH  14  15
ATOM     15  O   UNL     1       6.697  -1.333  26.883  0.00  0.00    -0.392 OA
ATOM     16  H   UNL     1       6.728  -0.915  26.006  0.00  0.00    +0.210 HD
ENDBRANCH  14  15
ENDBRANCH   6  14
ENDBRANCH   1   2
BRANCH   1  20
ATOM     17  C   UNL     1       8.215   0.952  23.278  0.00  0.00    +0.178 C 
ATOM     18  C   UNL     1       9.124   1.235  24.468  0.00  0.00    +0.179 C 
ATOM     19  C   UNL     1       9.716  -0.115  24.867  0.00  0.00    +0.207 C 
ATOM     20  C   UNL     1       9.184  -1.132  23.815  0.00  0.00    +0.225 C 
ATOM     21  O   UNL     1       8.535  -0.361  22.788  0.00  0.00    -0.336 OA
BRANCH  18  22
ATOM     22  O   UNL     1      10.175   2.135  24.080  0.00  0.00    -0.386 OA
ATOM     23  H   UNL     1       9.977   2.479  23.193  0.00  0.00    +0.210 HD
ENDBRANCH  18  22
BRANCH  19  24
ATOM     24  O   UNL     1       9.349  -0.425  26.216  0.00  0.00    -0.384 OA
ATOM     25  H   UNL     1       9.221   0.425  26.676  0.00  0.00    +0.210 HD
ENDBRANCH  19  24
BRANCH  17  26
ATOM     26  C   UNL     1       6.732   1.019  23.659  0.00  0.00    +0.190 C 
BRANCH  26  27
ATOM     27  O   UNL     1       6.135  -0.264  23.451  0.00  0.00    -0.392 OA
ATOM     28  H   UNL     1       6.305  -0.517  22.527  0.00  0.00    +0.210 HD
ENDBRANCH  26  27
ENDBRANCH  17  26
BRANCH  20  29
ATOM     29  C   UNL     1      10.387  -1.833  23.136  0.00  0.00    +0.223 C 
BRANCH  29  30
ATOM     30  O   UNL     1      10.395  -1.619  21.723  0.00  0.00    -0.390 OA
ATOM     31  H   UNL     1       9.999  -2.423  21.336  0.00  0.00    +0.210 HD
ENDBRANCH  29  30
ENDBRANCH  20  29
ENDBRANCH   1  20
TORSDOF 13
ENDMDL
MODEL 3
REMARK VINA RESULT:      -5.6      2.446      3.995
REMARK  Name = 
REMARK  13 active torsions:
REMARK  status: ('A' for Active; 'I' for Inactive)
REMARK    1  A    between atoms: O_1  and  C_2
REMARK    2  A    between atoms: C_2  and  C_3
REMARK    3  A    between atoms: C_6  and  C_7
REMARK    4  A    between atoms: C_6  and  O_9
REMARK    5  A    between atoms: C_7  and  O_8
REMARK    6  A    between atoms: O_9  and  C_10
REMARK    7  A    between atoms: C_13  and  C_15
REMARK    8  A    between atoms: C_15  and  O_16
REMARK    9  A    between atoms: C_17  and  O_19
REMARK   10  A    between atoms: C_20  and  O_22
REMARK   11  A    between atoms: C_23  and  O_25
REMARK   12  A    between atoms: C_26  and  O_28
REMARK   13  A    between atoms: C_29  and  O_31
REMARK                            x       y       z     vdW  Elec       q    Type
REMARK                         _______ _______ _______ _____ _____    ______ ____
ROOT
ATOM      1  O   UNL     1       7.894  -2.343  23.993  0.00  0.00    -0.313 OA
ENDROOT
BRANCH   1   2
ATOM      2  C   UNL     1       8.402  -1.853  22.748  0.00  0.00    +0.285 C 
ATOM      3  C   UNL     1       9.891  -1.412  22.898  0.00  0.00    +0.201 C 
ATOM      4  C   UNL     1      10.027   0.010  23.478  0.00  0.00    +0.179 C 
ATOM      5  C   UNL     1       9.092   0.987  22.755  0.00  0.00    +0.177 C 
ATOM      6  C   UNL     1       7.645   0.480  22.755  0.00  0.00    +0.178 C 
ATOM      7  O   UNL     1       7.562  -0.831  22.190  0.00  0.00    -0.340 OA
BRANCH   3   8
ATOM      8  O   UNL     1      10.554  -1.513  21.622  0.00  0.00    -0.384 OA
ATOM      9  H   UNL     1      11.145  -0.743  21.516  0.00  0.00    +0.210 HD
ENDBRANCH   3   8
BRANCH   4  10
ATOM     10  O   UNL     1       9.823   0.047  24.888  0.00  0.00    -0.386 OA
ATOM     11  H   UNL     1       9.250   0.799  25.120  0.00  0.00    +0.210 HD
ENDBRANCH   4  10
BRANCH   5  12
ATOM     12  O   UNL     1       9.562   1.141  21.399  0.00  0.00    -0.386 OA
ATOM     13  H   UNL     1       8.787   1.164  20.802  0.00  0.00    +0.210 HD
ENDBRANCH   5  12
BRANCH   6  14
ATOM     14  C   UNL     1       6.900   0.633  24.090  0.00  0.00    +0.190 C 
BRANCH  14  15
ATOM     15  O   UNL     1       5.736  -0.182  24.170  0.00  0.00    -0.392 OA
ATOM     16  H   UNL     1       4.976   0.365  24.430  0.00  0.00    +0.210 HD
ENDBRANCH  14  15
ENDBRANCH   6  14
ENDBRANCH   1   2
BRANCH   1  20
ATOM     17  C   UNL     1       8.107  -5.348  25.192  0.00  0.00    +0.178 C 
ATOM     18  C   UNL     1       6.835  -4.948  25.929  0.00  0.00    +0.179 C 
ATOM     19  C   UNL     1       6.252  -3.776  25.141  0.00  0.00    +0.207 C 
ATOM     20  C   UNL     1       7.182  -3.598  23.907  0.00  0.00    +0.225 C 
ATOM     21  O   UNL     1       8.074  -4.728  23.896  0.00  0.00    -0.336 OA
BRANCH  18  22
ATOM     22  O   UNL     1       5.905  -6.045  25.934  0.00  0.00    -0.386 OA
ATOM     23  H   UNL     1       6.224  -6.724  25.317  0.00  0.00    +0.210 HD
ENDBRANCH  18  22
BRANCH  19  24
ATOM     24  O   UNL     1       6.171  -2.620  25.983  0.00  0.00    -0.384 OA
ATOM     25  H   UNL     1       6.987  -2.601  26.516  0.00  0.00    +0.210 HD
ENDBRANCH  19  24
BRANCH  17  26
ATOM     26  C   UNL     1       9.369  -4.912  25.946  0.00  0.00    +0.190 C 
BRANCH  26  27
ATOM     27  O   UNL     1      10.524  -5.318  25.205  0.00  0.00    -0.392 OA
ATOM     28  H   UNL     1      10.833  -6.157  25.586  0.00  0.00    +0.210 HD
ENDBRANCH  26  27
ENDBRANCH  17  26
BRANCH  20  29
ATOM     29  C   UNL     1       6.334  -3.704  22.615  0.00  0.00    +0.223 C 
BRANCH  29  30
ATOM     30  O   UNL     1       5.292  -2.726  22.585  0.00  0.00    -0.390 OA
ATOM     31  H   UNL     1       4.686  -2.971  23.310  0.00  0.00    +0.210 HD
ENDBRANCH  29  30
ENDBRANCH  20  29
ENDBRANCH   1  20
TORSDOF 13
ENDMDL
MODEL 4
REMARK VINA RESULT:      -5.6      1.771      4.012
REMARK  Name = 
REMARK  13 active torsions:
REMARK  status: ('A' for Active; 'I' for Inactive)
REMARK    1  A    between atoms: O_1  and  C_2
REMARK    2  A    between atoms: C_2  and  C_3
REMARK    3  A    between atoms: C_6  and  C_7
REMARK    4  A    between atoms: C_6  and  O_9
REMARK    5  A    between atoms: C_7  and  O_8
REMARK    6  A    between atoms: O_9  and  C_10
REMARK    7  A    between atoms: C_13  and  C_15
REMARK    8  A    between atoms: C_15  and  O_16
REMARK    9  A    between atoms: C_17  and  O_19
REMARK   10  A    between atoms: C_20  and  O_22
REMARK   11  A    between atoms: C_23  and  O_25
REMARK   12  A    between atoms: C_26  and  O_28
REMARK   13  A    between atoms: C_29  and  O_31
REMARK                            x       y       z     vdW  Elec       q    Type
REMARK                         _______ _______ _______ _____ _____    ______ ____
ROOT
ATOM      1  O   UNL     1       8.315  -1.246  24.054  0.00  0.00    -0.313 OA
ENDROOT
BRANCH   1   2
ATOM      2  C   UNL     1       9.025  -0.043  24.368  0.00  0.00    +0.285 C 
ATOM      3  C   UNL     1       8.043   1.166  24.454  0.00  0.00    +0.201 C 
ATOM      4  C   UNL     1       7.717   1.758  23.068  0.00  0.00    +0.179 C 
ATOM      5  C   UNL     1       8.996   1.969  22.250  0.00  0.00    +0.177 C 
ATOM      6  C   UNL     1       9.827   0.683  22.167  0.00  0.00    +0.178 C 
ATOM      7  O   UNL     1      10.124   0.181  23.473  0.00  0.00    -0.340 OA
BRANCH   3   8
ATOM      8  O   UNL     1       8.594   2.172  25.327  0.00  0.00    -0.384 OA
ATOM      9  H   UNL     1       9.055   2.839  24.782  0.00  0.00    +0.210 HD
ENDBRANCH   3   8
BRANCH   4  10
ATOM     10  O   UNL     1       6.767   0.975  22.349  0.00  0.00    -0.386 OA
ATOM     11  H   UNL     1       7.226   0.413  21.700  0.00  0.00    +0.210 HD
ENDBRANCH   4  10
BRANCH   5  12
ATOM     12  O   UNL     1       9.767   3.015  22.878  0.00  0.00    -0.386 OA
ATOM     13  H   UNL     1       9.728   3.812  22.314  0.00  0.00    +0.210 HD
ENDBRANCH   5  12
BRANCH   6  14
ATOM     14  C   UNL     1       9.289  -0.381  21.198  0.00  0.00    +0.190 C 
BRANCH  14  15
ATOM     15  O   UNL     1       9.832  -1.673  21.439  0.00  0.00    -0.392 OA
ATOM     16  H   UNL     1       9.193  -2.204  21.943  0.00  0.00    +0.210 HD
ENDBRANCH  14  15
ENDBRANCH   6  14
ENDBRANCH   1   2
BRANCH   1  20
ATOM     17  C   UNL     1       7.196  -4.247  24.556  0.00  0.00    +0.178 C 
ATOM     18  C   UNL     1       8.678  -4.600  24.578  0.00  0.00    +0.179 C 
ATOM     19  C   UNL     1       9.410  -3.294  24.878  0.00  0.00    +0.207 C 
ATOM     20  C   UNL     1       8.295  -2.233  25.109  0.00  0.00    +0.225 C 
ATOM     21  O   UNL     1       7.048  -2.949  25.158  0.00  0.00    -0.336 OA
BRANCH  18  22
ATOM     22  O   UNL     1       8.939  -5.558  25.618  0.00  0.00    -0.386 OA
ATOM     23  H   UNL     1       9.255  -5.082  26.404  0.00  0.00    +0.210 HD
ENDBRANCH  18  22
BRANCH  19  24
ATOM     24  O   UNL     1      10.300  -2.980  23.801  0.00  0.00    -0.384 OA
ATOM     25  H   UNL     1      10.111  -3.612  23.085  0.00  0.00    +0.210 HD
ENDBRANCH  19  24
BRANCH  17  26
ATOM     26  C   UNL     1       6.630  -4.229  23.132  0.00  0.00    +0.190 C 
BRANCH  26  27
ATOM     27  O   UNL     1       7.601  -3.660  22.248  0.00  0.00    -0.392 OA
ATOM     28  H   UNL     1       8.418  -3.531  22.759  0.00  0.00    +0.210 HD
ENDBRANCH  26  27
ENDBRANCH  17  26
BRANCH  20  29
ATOM     29  C   UNL     1       8.483  -1.598  26.509  0.00  0.00    +0.223 C 
BRANCH  29  30
ATOM     30  O   UNL     1       7.234  -1.222  27.092  0.00  0.00    -0.390 OA
ATOM     31  H   UNL     1       7.419  -0.410  27.603  0.00  0.00    +0.210 HD
ENDBRANCH  29  30
ENDBRANCH  20  29
ENDBRANCH   1  20
TORSDOF 13
ENDMDL
MODEL 5
REMARK VINA RESULT:      -5.6      2.411      6.410
REMARK  Name = 
REMARK  13 active torsions:
REMARK  status: ('A' for Active; 'I' for Inactive)
REMARK    1  A    between atoms: O_1  and  C_2
REMARK    2  A    between atoms: C_2  and  C_3
REMARK    3  A    between atoms: C_6  and  C_7
REMARK    4  A    between atoms: C_6  and  O_9
REMARK    5  A    between atoms: C_7  and  O_8
REMARK    6  A    between atoms: O_9  and  C_10
REMARK    7  A    between atoms: C_13  and  C_15
REMARK    8  A    between atoms: C_15  and  O_16
REMARK    9  A    between atoms: C_17  and  O_19
REMARK   10  A    between atoms: C_20  and  O_22
REMARK   11  A    between atoms: C_23  and  O_25
REMARK   12  A    between atoms: C_26  and  O_28
REMARK   13  A    between atoms: C_29  and  O_31
REMARK                            x       y       z     vdW  Elec       q    Type
REMARK                         _______ _______ _______ _____ _____    ______ ____
ROOT
ATOM      1  O   UNL     1       7.552  -2.298  23.502  0.00  0.00    -0.313 OA
ENDROOT
BRANCH   1   2
ATOM      2  C   UNL     1       7.257  -3.293  22.516  0.00  0.00    +0.285 C 
ATOM      3  C   UNL     1       5.761  -3.210  22.085  0.00  0.00    +0.201 C 
ATOM      4  C   UNL     1       4.825  -3.947  23.064  0.00  0.00    +0.179 C 
ATOM      5  C   UNL     1       5.367  -5.342  23.393  0.00  0.00    +0.177 C 
ATOM      6  C   UNL     1       6.816  -5.276  23.891  0.00  0.00    +0.178 C 
ATOM      7  O   UNL     1       7.653  -4.605  22.944  0.00  0.00    -0.340 OA
BRANCH   3   8
ATOM      8  O   UNL     1       5.617  -3.727  20.747  0.00  0.00    -0.384 OA
ATOM      9  H   UNL     1       6.433  -4.207  20.508  0.00  0.00    +0.210 HD
ENDBRANCH   3   8
BRANCH   4  10
ATOM     10  O   UNL     1       4.574  -3.196  24.249  0.00  0.00    -0.386 OA
ATOM     11  H   UNL     1       3.647  -3.310  24.523  0.00  0.00    +0.210 HD
ENDBRANCH   4  10
BRANCH   5  12
ATOM     12  O   UNL     1       5.291  -6.149  22.199  0.00  0.00    -0.386 OA
ATOM     13  H   UNL     1       4.354  -6.222  21.931  0.00  0.00    +0.210 HD
ENDBRANCH   5  12
BRANCH   6  14
ATOM     14  C   UNL     1       6.988  -4.783  25.335  0.00  0.00    +0.190 C 
BRANCH  14  15
ATOM     15  O   UNL     1       8.300  -4.299  25.601  0.00  0.00    -0.392 OA
ATOM     16  H   UNL     1       8.947  -4.998  25.408  0.00  0.00    +0.210 HD
ENDBRANCH  14  15
ENDBRANCH   6  14
ENDBRANCH   1   2
BRANCH   1  20
ATOM     17  C   UNL     1       7.569   0.934  23.761  0.00  0.00    +0.178 C 
ATOM     18  C   UNL     1       8.858   0.683  24.534  0.00  0.00    +0.179 C 
ATOM     19  C   UNL     1       9.332  -0.705  24.109  0.00  0.00    +0.207 C 
ATOM     20  C   UNL     1       8.325  -1.175  23.020  0.00  0.00    +0.225 C 
ATOM     21  O   UNL     1       7.497  -0.041  22.707  0.00  0.00    -0.336 OA
BRANCH  18  22
ATOM     22  O   UNL     1       9.844   1.667  24.178  0.00  0.00    -0.386 OA
ATOM     23  H   UNL     1      10.271   1.986  24.991  0.00  0.00    +0.210 HD
ENDBRANCH  18  22
BRANCH  19  24
ATOM     24  O   UNL     1       9.398  -1.565  25.253  0.00  0.00    -0.384 OA
ATOM     25  H   UNL     1       9.982  -2.307  25.015  0.00  0.00    +0.210 HD
ENDBRANCH  19  24
BRANCH  17  26
ATOM     26  C   UNL     1       6.331   0.826  24.658  0.00  0.00    +0.190 C 
BRANCH  26  27
ATOM     27  O   UNL     1       5.535  -0.283  24.229  0.00  0.00    -0.392 OA
ATOM     28  H   UNL     1       4.631   0.046  24.088  0.00  0.00    +0.210 HD
ENDBRANCH  26  27
ENDBRANCH  17  26
BRANCH  20  29
ATOM     29  C   UNL     1       9.103  -1.513  21.724  0.00  0.00    +0.223 C 
BRANCH  29  30
ATOM     30  O   UNL     1      10.508  -1.615  21.962  0.00  0.00    -0.390 OA
ATOM     31  H   UNL     1      10.680  -2.566  22.100  0.00  0.00    +0.210 HD
ENDBRANCH  29  30
ENDBRANCH  20  29
ENDBRANCH   1  20
TORSDOF 13
ENDMDL
MODEL 6
REMARK VINA RESULT:      -5.5      2.140      6.376
REMARK  Name = 
REMARK  13 active torsions:
REMARK  status: ('A' for Active; 'I' for Inactive)
REMARK    1  A    between atoms: O_1  and  C_2
REMARK    2  A    between atoms: C_2  and  C_3
REMARK    3  A    between atoms: C_6  and  C_7
REMARK    4  A    between atoms: C_6  and  O_9
REMARK    5  A    between atoms: C_7  and  O_8
REMARK    6  A    between atoms: O_9  and  C_10
REMARK    7  A    between atoms: C_13  and  C_15
REMARK    8  A    between atoms: C_15  and  O_16
REMARK    9  A    between atoms: C_17  and  O_19
REMARK   10  A    between atoms: C_20  and  O_22
REMARK   11  A    between atoms: C_23  and  O_25
REMARK   12  A    between atoms: C_26  and  O_28
REMARK   13  A    between atoms: C_29  and  O_31
REMARK                            x       y       z     vdW  Elec       q    Type
REMARK                         _______ _______ _______ _____ _____    ______ ____
ROOT
ATOM      1  O   UNL     1       8.334  -1.874  24.463  0.00  0.00    -0.313 OA
ENDROOT
BRANCH   1   2
ATOM      2  C   UNL     1       8.978  -2.877  25.257  0.00  0.00    +0.285 C 
ATOM      3  C   UNL     1       9.095  -4.213  24.462  0.00  0.00    +0.201 C 
ATOM      4  C   UNL     1       7.799  -5.046  24.517  0.00  0.00    +0.179 C 
ATOM      5  C   UNL     1       7.275  -5.147  25.954  0.00  0.00    +0.177 C 
ATOM      6  C   UNL     1       7.119  -3.761  26.591  0.00  0.00    +0.178 C 
ATOM      7  O   UNL     1       8.349  -3.032  26.538  0.00  0.00    -0.340 OA
BRANCH   3   8
ATOM      8  O   UNL     1      10.216  -4.972  24.958  0.00  0.00    -0.384 OA
ATOM      9  H   UNL     1      10.222  -4.918  25.933  0.00  0.00    +0.210 HD
ENDBRANCH   3   8
BRANCH   4  10
ATOM     10  O   UNL     1       6.794  -4.553  23.634  0.00  0.00    -0.386 OA
ATOM     11  H   UNL     1       6.216  -5.282  23.351  0.00  0.00    +0.210 HD
ENDBRANCH   4  10
BRANCH   5  12
ATOM     12  O   UNL     1       8.206  -5.941  26.719  0.00  0.00    -0.386 OA
ATOM     13  H   UNL     1       8.228  -5.599  27.634  0.00  0.00    +0.210 HD
ENDBRANCH   5  12
BRANCH   6  14
ATOM     14  C   UNL     1       5.898  -2.958  26.119  0.00  0.00    +0.190 C 
BRANCH  14  15
ATOM     15  O   UNL     1       5.987  -1.575  26.440  0.00  0.00    -0.392 OA
ATOM     16  H   UNL     1       6.901  -1.361  26.694  0.00  0.00    +0.210 HD
ENDBRANCH  14  15
ENDBRANCH   6  14
ENDBRANCH   1   2
BRANCH   1  20
ATOM     17  C   UNL     1       9.631   0.431  22.587  0.00  0.00    +0.178 C 
ATOM     18  C   UNL     1       8.350   1.179  22.936  0.00  0.00    +0.179 C 
ATOM     19  C   UNL     1       7.821   0.522  24.209  0.00  0.00    +0.207 C 
ATOM     20  C   UNL     1       8.884  -0.544  24.602  0.00  0.00    +0.225 C 
ATOM     21  O   UNL     1      10.017  -0.333  23.742  0.00  0.00    -0.336 OA
BRANCH  18  22
ATOM     22  O   UNL     1       8.643   2.564  23.186  0.00  0.00    -0.386 OA
ATOM     23  H   UNL     1       9.541   2.753  22.867  0.00  0.00    +0.210 HD
ENDBRANCH  18  22
BRANCH  19  24
ATOM     24  O   UNL     1       6.515  -0.016  23.969  0.00  0.00    -0.384 OA
ATOM     25  H   UNL     1       6.562  -0.506  23.128  0.00  0.00    +0.210 HD
ENDBRANCH  19  24
BRANCH  17  26
ATOM     26  C   UNL     1       9.442  -0.501  21.385  0.00  0.00    +0.190 C 
BRANCH  26  27
ATOM     27  O   UNL     1      10.026  -1.774  21.680  0.00  0.00    -0.392 OA
ATOM     28  H   UNL     1       9.423  -2.456  21.341  0.00  0.00    +0.210 HD
ENDBRANCH  26  27
ENDBRANCH  17  26
BRANCH  20  29
ATOM     29  C   UNL     1       9.375  -0.261  26.044  0.00  0.00    +0.223 C 
BRANCH  29  30
ATOM     30  O   UNL     1       8.292   0.056  26.920  0.00  0.00    -0.390 OA
ATOM     31  H   UNL     1       8.675   0.630  27.610  0.00  0.00    +0.210 HD
ENDBRANCH  29  30
ENDBRANCH  20  29
ENDBRANCH   1  20
TORSDOF 13
ENDMDL
MODEL 7
REMARK VINA RESULT:      -5.5      1.828      3.919
REMARK  Name = 
REMARK  13 active torsions:
REMARK  status: ('A' for Active; 'I' for Inactive)
REMARK    1  A    between atoms: O_1  and  C_2
REMARK    2  A    between atoms: C_2  and  C_3
REMARK    3  A    between atoms: C_6  and  C_7
REMARK    4  A    between atoms: C_6  and  O_9
REMARK    5  A    between atoms: C_7  and  O_8
REMARK    6  A    between atoms: O_9  and  C_10
REMARK    7  A    between atoms: C_13  and  C_15
REMARK    8  A    between atoms: C_15  and  O_16
REMARK    9  A    between atoms: C_17  and  O_19
REMARK   10  A    between atoms: C_20  and  O_22
REMARK   11  A    between atoms: C_23  and  O_25
REMARK   12  A    between atoms: C_26  and  O_28
REMARK   13  A    between atoms: C_29  and  O_31
REMARK                            x       y       z     vdW  Elec       q    Type
REMARK                         _______ _______ _______ _____ _____    ______ ____
ROOT
ATOM      1  O   UNL     1       8.572  -0.805  24.202  0.00  0.00    -0.313 OA
ENDROOT
BRANCH   1   2
ATOM      2  C   UNL     1       7.738   0.358  24.157  0.00  0.00    +0.285 C 
ATOM      3  C   UNL     1       7.271   0.642  22.696  0.00  0.00    +0.201 C 
ATOM      4  C   UNL     1       8.330   1.408  21.878  0.00  0.00    +0.179 C 
ATOM      5  C   UNL     1       8.871   2.604  22.670  0.00  0.00    +0.177 C 
ATOM      6  C   UNL     1       9.381   2.177  24.052  0.00  0.00    +0.178 C 
ATOM      7  O   UNL     1       8.361   1.490  24.783  0.00  0.00    -0.340 OA
BRANCH   3   8
ATOM      8  O   UNL     1       6.022   1.360  22.721  0.00  0.00    -0.384 OA
ATOM      9  H   UNL     1       5.375   0.844  23.240  0.00  0.00    +0.210 HD
ENDBRANCH   3   8
BRANCH   4  10
ATOM     10  O   UNL     1       9.388   0.565  21.428  0.00  0.00    -0.386 OA
ATOM     11  H   UNL     1       9.437  -0.230  21.987  0.00  0.00    +0.210 HD
ENDBRANCH   4  10
BRANCH   5  12
ATOM     12  O   UNL     1       7.807   3.569  22.812  0.00  0.00    -0.386 OA
ATOM     13  H   UNL     1       7.306   3.606  21.974  0.00  0.00    +0.210 HD
ENDBRANCH   5  12
BRANCH   6  14
ATOM     14  C   UNL     1      10.740   1.461  24.054  0.00  0.00    +0.190 C 
BRANCH  14  15
ATOM     15  O   UNL     1      10.930   0.640  25.201  0.00  0.00    -0.392 OA
ATOM     16  H   UNL     1      10.128   0.660  25.749  0.00  0.00    +0.210 HD
ENDBRANCH  14  15
ENDBRANCH   6  14
ENDBRANCH   1   2
BRANCH   1  20
ATOM     17  C   UNL     1       6.690  -3.435  23.975  0.00  0.00    +0.178 C 
ATOM     18  C   UNL     1       8.004  -4.171  24.205  0.00  0.00    +0.179 C 
ATOM     19  C   UNL     1       8.941  -3.152  24.851  0.00  0.00    +0.207 C 
ATOM     20  C   UNL     1       8.087  -1.868  25.053  0.00  0.00    +0.225 C 
ATOM     21  O   UNL     1       6.726  -2.226  24.752  0.00  0.00    -0.336 OA
BRANCH  18  22
ATOM     22  O   UNL     1       7.797  -5.280  25.097  0.00  0.00    -0.386 OA
ATOM     23  H   UNL     1       7.003  -5.104  25.629  0.00  0.00    +0.210 HD
ENDBRANCH  18  22
BRANCH  19  24
ATOM     24  O   UNL     1      10.094  -2.963  24.022  0.00  0.00    -0.384 OA
ATOM     25  H   UNL     1       9.887  -3.357  23.156  0.00  0.00    +0.210 HD
ENDBRANCH  19  24
BRANCH  17  26
ATOM     26  C   UNL     1       6.471  -3.099  22.496  0.00  0.00    +0.190 C 
BRANCH  26  27
ATOM     27  O   UNL     1       7.719  -2.712  21.912  0.00  0.00    -0.392 OA
ATOM     28  H   UNL     1       7.535  -1.991  21.286  0.00  0.00    +0.210 HD
ENDBRANCH  26  27
ENDBRANCH  17  26
BRANCH  20  29
ATOM     29  C   UNL     1       8.109  -1.476  26.551  0.00  0.00    +0.223 C 
BRANCH  29  30
ATOM     30  O   UNL     1       9.221  -0.633  26.861  0.00  0.00    -0.390 OA
ATOM     31  H   UNL     1       9.809  -0.682  26.083  0.00  0.00    +0.210 HD
ENDBRANCH  29  30
ENDBRANCH  20  29
ENDBRANCH   1  20
TORSDOF 13
ENDMDL
MODEL 8
REMARK VINA RESULT:      -5.4      2.043      6.348
REMARK  Name = 
REMARK  13 active torsions:
REMARK  status: ('A' for Active; 'I' for Inactive)
REMARK    1  A    between atoms: O_1  and  C_2
REMARK    2  A    between atoms: C_2  and  C_3
REMARK    3  A    between atoms: C_6  and  C_7
REMARK    4  A    between atoms: C_6  and  O_9
REMARK    5  A    between atoms: C_7  and  O_8
REMARK    6  A    between atoms: O_9  and  C_10
REMARK    7  A    between atoms: C_13  and  C_15
REMARK    8  A    between atoms: C_15  and  O_16
REMARK    9  A    between atoms: C_17  and  O_19
REMARK   10  A    between atoms: C_20  and  O_22
REMARK   11  A    between atoms: C_23  and  O_25
REMARK   12  A    between atoms: C_26  and  O_28
REMARK   13  A    between atoms: C_29  and  O_31
REMARK                            x       y       z     vdW  Elec       q    Type
REMARK                         _______ _______ _______ _____ _____    ______ ____
ROOT
ATOM      1  O   UNL     1       8.526  -1.725  24.511  0.00  0.00    -0.313 OA
ENDROOT
BRANCH   1   2
ATOM      2  C   UNL     1       7.601  -2.508  23.750  0.00  0.00    +0.285 C 
ATOM      3  C   UNL     1       6.235  -2.620  24.493  0.00  0.00    +0.201 C 
ATOM      4  C   UNL     1       6.238  -3.726  25.567  0.00  0.00    +0.179 C 
ATOM      5  C   UNL     1       6.823  -5.028  25.008  0.00  0.00    +0.177 C 
ATOM      6  C   UNL     1       8.206  -4.798  24.385  0.00  0.00    +0.178 C 
ATOM      7  O   UNL     1       8.152  -3.781  23.381  0.00  0.00    -0.340 OA
BRANCH   3   8
ATOM      8  O   UNL     1       5.181  -2.837  23.533  0.00  0.00    -0.384 OA
ATOM      9  H   UNL     1       4.620  -3.572  23.847  0.00  0.00    +0.210 HD
ENDBRANCH   3   8
BRANCH   4  10
ATOM     10  O   UNL     1       6.909  -3.327  26.759  0.00  0.00    -0.386 OA
ATOM     11  H   UNL     1       7.123  -2.379  26.717  0.00  0.00    +0.210 HD
ENDBRANCH   4  10
BRANCH   5  12
ATOM     12  O   UNL     1       5.912  -5.541  24.013  0.00  0.00    -0.386 OA
ATOM     13  H   UNL     1       5.055  -5.082  24.109  0.00  0.00    +0.210 HD
ENDBRANCH   5  12
BRANCH   6  14
ATOM     14  C   UNL     1       9.354  -4.622  25.391  0.00  0.00    +0.190 C 
BRANCH  14  15
ATOM     15  O   UNL     1      10.261  -5.718  25.391  0.00  0.00    -0.392 OA
ATOM     16  H   UNL     1      11.049  -5.485  25.910  0.00  0.00    +0.210 HD
ENDBRANCH  14  15
ENDBRANCH   6  14
ENDBRANCH   1   2
BRANCH   1  20
ATOM     17  C   UNL     1       8.393   1.240  23.205  0.00  0.00    +0.178 C 
ATOM     18  C   UNL     1       9.450   1.552  24.257  0.00  0.00    +0.179 C 
ATOM     19  C   UNL     1      10.051   0.205  24.652  0.00  0.00    +0.207 C 
ATOM     20  C   UNL     1       9.366  -0.845  23.730  0.00  0.00    +0.225 C 
ATOM     21  O   UNL     1       8.614  -0.106  22.751  0.00  0.00    -0.336 OA
BRANCH  18  22
ATOM     22  O   UNL     1      10.468   2.397  23.695  0.00  0.00    -0.386 OA
ATOM     23  H   UNL     1      10.465   2.284  22.730  0.00  0.00    +0.210 HD
ENDBRANCH  18  22
BRANCH  19  24
ATOM     24  O   UNL     1       9.848  -0.025  26.051  0.00  0.00    -0.384 OA
ATOM     25  H   UNL     1      10.726  -0.187  26.441  0.00  0.00    +0.210 HD
ENDBRANCH  19  24
BRANCH  17  26
ATOM     26  C   UNL     1       6.971   1.375  23.762  0.00  0.00    +0.190 C 
BRANCH  26  27
ATOM     27  O   UNL     1       6.036   0.918  22.779  0.00  0.00    -0.392 OA
ATOM     28  H   UNL     1       6.115  -0.050  22.732  0.00  0.00    +0.210 HD
ENDBRANCH  26  27
ENDBRANCH  17  26
BRANCH  20  29
ATOM     29  C   UNL     1      10.455  -1.619  22.946  0.00  0.00    +0.223 C 
BRANCH  29  30
ATOM     30  O   UNL     1      10.265  -1.514  21.534  0.00  0.00    -0.390 OA
ATOM     31  H   UNL     1      10.341  -0.562  21.331  0.00  0.00    +0.210 HD
ENDBRANCH  29  30
ENDBRANCH  20  29
ENDBRANCH   1  20
TORSDOF 13
ENDMDL
MODEL 9
REMARK VINA RESULT:      -5.4      2.190      6.210
REMARK  Name = 
REMARK  13 active torsions:
REMARK  status: ('A' for Active; 'I' for Inactive)
REMARK    1  A    between atoms: O_1  and  C_2
REMARK    2  A    between atoms: C_2  and  C_3
REMARK    3  A    between atoms: C_6  and  C_7
REMARK    4  A    between atoms: C_6  and  O_9
REMARK    5  A    between atoms: C_7  and  O_8
REMARK    6  A    between atoms: O_9  and  C_10
REMARK    7  A    between atoms: C_13  and  C_15
REMARK    8  A    between atoms: C_15  and  O_16
REMARK    9  A    between atoms: C_17  and  O_19
REMARK   10  A    between atoms: C_20  and  O_22
REMARK   11  A    between atoms: C_23  and  O_25
REMARK   12  A    between atoms: C_26  and  O_28
REMARK   13  A    between atoms: C_29  and  O_31
REMARK                            x       y       z     vdW  Elec       q    Type
REMARK                         _______ _______ _______ _____ _____    ______ ____
ROOT
ATOM      1  O   UNL     1       8.196  -1.439  23.859  0.00  0.00    -0.313 OA
ENDROOT
BRANCH   1   2
ATOM      2  C   UNL     1       7.214  -2.401  23.459  0.00  0.00    +0.285 C 
ATOM      3  C   UNL     1       6.133  -2.575  24.569  0.00  0.00    +0.201 C 
ATOM      4  C   UNL     1       6.583  -3.544  25.682  0.00  0.00    +0.179 C 
ATOM      5  C   UNL     1       7.165  -4.829  25.084  0.00  0.00    +0.177 C 
ATOM      6  C   UNL     1       8.278  -4.523  24.075  0.00  0.00    +0.178 C 
ATOM      7  O   UNL     1       7.812  -3.640  23.050  0.00  0.00    -0.340 OA
BRANCH   3   8
ATOM      8  O   UNL     1       4.896  -3.015  23.973  0.00  0.00    -0.384 OA
ATOM      9  H   UNL     1       4.196  -2.374  24.198  0.00  0.00    +0.210 HD
ENDBRANCH   3   8
BRANCH   4  10
ATOM     10  O   UNL     1       7.494  -2.939  26.596  0.00  0.00    -0.386 OA
ATOM     11  H   UNL     1       7.936  -2.183  26.171  0.00  0.00    +0.210 HD
ENDBRANCH   4  10
BRANCH   5  12
ATOM     12  O   UNL     1       6.095  -5.550  24.436  0.00  0.00    -0.386 OA
ATOM     13  H   UNL     1       6.394  -5.814  23.543  0.00  0.00    +0.210 HD
ENDBRANCH   5  12
BRANCH   6  14
ATOM     14  C   UNL     1       9.623  -4.109  24.692  0.00  0.00    +0.190 C 
BRANCH  14  15
ATOM     15  O   UNL     1      10.445  -5.221  25.024  0.00  0.00    -0.392 OA
ATOM     16  H   UNL     1       9.965  -5.807  25.633  0.00  0.00    +0.210 HD
ENDBRANCH  14  15
ENDBRANCH   6  14
ENDBRANCH   1   2
BRANCH   1  20
ATOM     17  C   UNL     1       9.826   1.360  23.718  0.00  0.00    +0.178 C 
ATOM     18  C   UNL     1      10.100   0.918  22.285  0.00  0.00    +0.179 C 
ATOM     19  C   UNL     1       9.018  -0.109  21.955  0.00  0.00    +0.207 C 
ATOM     20  C   UNL     1       8.091  -0.155  23.204  0.00  0.00    +0.225 C 
ATOM     21  O   UNL     1       8.499   0.926  24.061  0.00  0.00    -0.336 OA
BRANCH  18  22
ATOM     22  O   UNL     1       9.996   2.042  21.396  0.00  0.00    -0.386 OA
ATOM     23  H   UNL     1       9.243   2.588  21.674  0.00  0.00    +0.210 HD
ENDBRANCH  18  22
BRANCH  19  24
ATOM     24  O   UNL     1       9.626  -1.365  21.632  0.00  0.00    -0.384 OA
ATOM     25  H   UNL     1       9.689  -1.870  22.463  0.00  0.00    +0.210 HD
ENDBRANCH  19  24
BRANCH  17  26
ATOM     26  C   UNL     1      10.839   0.771  24.705  0.00  0.00    +0.190 C 
BRANCH  26  27
ATOM     27  O   UNL     1      10.137   0.202  25.815  0.00  0.00    -0.392 OA
ATOM     28  H   UNL     1      10.497  -0.690  25.959  0.00  0.00    +0.210 HD
ENDBRANCH  26  27
ENDBRANCH  17  26
BRANCH  20  29
ATOM     29  C   UNL     1       6.639   0.163  22.767  0.00  0.00    +0.223 C 
BRANCH  29  30
ATOM     30  O   UNL     1       5.992   1.046  23.686  0.00  0.00    -0.390 OA
ATOM     31  H   UNL     1       5.209   0.558  24.007  0.00  0.00    +0.210 HD
ENDBRANCH  29  30
ENDBRANCH  20  29
ENDBRANCH   1  20
TORSDOF 13
ENDMDL
