MODEL 1
REMARK VINA RESULT:      -7.1      0.000      0.000
REMARK  Name = 
REMARK  14 active torsions:
REMARK  status: ('A' for Active; 'I' for Inactive)
REMARK    1  A    between atoms: N_1  and  C_2
REMARK    2  A    between atoms: C_2  and  C_3
REMARK    3  A    between atoms: C_3  and  C_4
REMARK    4  A    between atoms: C_4  and  C_5
REMARK    5  A    between atoms: C_5  and  C_6
REMARK    6  A    between atoms: C_6  and  C_7
REMARK    7  A    between atoms: C_7  and  S_8
REMARK    8  A    between atoms: S_8  and  C_9
REMARK    9  A    between atoms: C_9  and  C_10
REMARK   10  A    between atoms: C_13  and  N_21
REMARK   11  A    between atoms: C_15  and  O_17
REMARK   12  A    between atoms: C_18  and  O_20
REMARK   13  A    between atoms: C_31  and  C_32
REMARK   14  A    between atoms: C_32  and  N_33
REMARK                            x       y       z     vdW  Elec       q    Type
REMARK                         _______ _______ _______ _____ _____    ______ ____
ROOT
ATOM      1  C   UNL     1       7.881   1.687  21.985  0.00  0.00    +0.162 C 
ATOM      2  C   UNL     1       9.208   2.155  22.592  0.00  0.00    +0.177 C 
ATOM      3  C   UNL     1       9.496   1.187  23.738  0.00  0.00    +0.195 C 
ATOM      4  C   UNL     1       8.387   0.133  23.643  0.00  0.00    +0.253 C 
ATOM      5  O   UNL     1       7.780   0.291  22.349  0.00  0.00    -0.347 OA
ENDROOT
BRANCH   4   6
ATOM      6  N   UNL     1       8.889  -1.223  23.790  0.00  0.00    -0.286 N 
ATOM      7  C   UNL     1       8.410  -2.144  24.684  0.00  0.00    +0.167 A 
ATOM      8  N   UNL     1       7.347  -2.025  25.502  0.00  0.00    -0.216 NA
ATOM      9  C   UNL     1       7.225  -3.128  26.278  0.00  0.00    +0.225 A 
ATOM     10  N   UNL     1       8.032  -4.210  26.337  0.00  0.00    -0.219 NA
ATOM     11  C   UNL     1       9.110  -4.254  25.520  0.00  0.00    +0.147 A 
ATOM     12  N   UNL     1       9.982  -5.326  25.628  0.00  0.00    -0.341 N 
ATOM     13  H   UNL     1      10.589  -5.456  24.826  0.00  0.00    +0.144 HD
ATOM     14  H   UNL     1       9.573  -6.140  26.065  0.00  0.00    +0.144 HD
ATOM     15  C   UNL     1       9.301  -3.202  24.610  0.00  0.00    +0.147 A 
ATOM     16  N   UNL     1      10.242  -2.981  23.626  0.00  0.00    -0.231 NA
ATOM     17  C   UNL     1       9.942  -1.797  23.132  0.00  0.00    +0.203 A 
ENDBRANCH   4   6
BRANCH   2  18
ATOM     18  O   UNL     1      10.254   2.046  21.612  0.00  0.00    -0.386 OA
ATOM     19  H   UNL     1       9.865   1.771  20.763  0.00  0.00    +0.210 HD
ENDBRANCH   2  18
BRANCH   3  20
ATOM     20  O   UNL     1       9.456   1.851  25.004  0.00  0.00    -0.385 OA
ATOM     21  H   UNL     1       9.768   2.766  24.840  0.00  0.00    +0.210 HD
ENDBRANCH   3  20
BRANCH   1  22
ATOM     22  C   UNL     1       6.674   2.502  22.501  0.00  0.00    +0.108 C 
BRANCH  22  23
ATOM     23  S   UNL     1       7.093   4.285  22.569  0.00  0.00    -0.127 S 
BRANCH  23  24
ATOM     24  C   UNL     1       7.313   4.599  24.282  0.00  0.00    -0.017 C 
ATOM     25  C   UNL     1       6.532   3.944  25.169  0.00  0.00    -0.002 C 
BRANCH  24  26
ATOM     26  C   UNL     1       8.528   5.402  24.725  0.00  0.00    +0.042 C 
BRANCH  26  27
ATOM     27  C   UNL     1       9.481   5.970  23.662  0.00  0.00    +0.005 C 
BRANCH  27  28
ATOM     28  C   UNL     1      10.970   5.945  24.020  0.00  0.00    +0.002 C 
BRANCH  28  29
ATOM     29  C   UNL     1      11.732   4.790  23.369  0.00  0.00    +0.015 C 
BRANCH  29  30
ATOM     30  C   UNL     1      12.865   5.302  22.484  0.00  0.00    +0.077 C 
BRANCH  30  31
ATOM     31  N   UNL     1      14.141   5.122  23.165  0.00  0.00    -0.330 NA
ATOM     32  H   UNL     1      14.904   5.341  22.526  0.00  0.00    +0.118 HD
ATOM     33  H   UNL     1      14.212   5.792  23.930  0.00  0.00    +0.118 HD
ENDBRANCH  30  31
ENDBRANCH  29  30
ENDBRANCH  28  29
ENDBRANCH  27  28
ENDBRANCH  26  27
ENDBRANCH  24  26
BRANCH  25  34
ATOM     34  C   UNL     1       6.716   3.860  26.654  0.00  0.00    +0.106 C 
BRANCH  34  35
ATOM     35  N   UNL     1       7.442   2.653  27.012  0.00  0.00    -0.327 NA
ATOM     36  H   UNL     1       6.909   2.148  27.718  0.00  0.00    +0.119 HD
ATOM     37  H   UNL     1       7.474   2.034  26.201  0.00  0.00    +0.119 HD
ENDBRANCH  34  35
ENDBRANCH  25  34
ENDBRANCH  23  24
ENDBRANCH  22  23
ENDBRANCH   1  22
TORSDOF 14
ENDMDL
MODEL 2
REMARK VINA RESULT:      -6.8      2.813      3.356
REMARK  Name = 
REMARK  14 active torsions:
REMARK  status: ('A' for Active; 'I' for Inactive)
REMARK    1  A    between atoms: N_1  and  C_2
REMARK    2  A    between atoms: C_2  and  C_3
REMARK    3  A    between atoms: C_3  and  C_4
REMARK    4  A    between atoms: C_4  and  C_5
REMARK    5  A    between atoms: C_5  and  C_6
REMARK    6  A    between atoms: C_6  and  C_7
REMARK    7  A    between atoms: C_7  and  S_8
REMARK    8  A    between atoms: S_8  and  C_9
REMARK    9  A    between atoms: C_9  and  C_10
REMARK   10  A    between atoms: C_13  and  N_21
REMARK   11  A    between atoms: C_15  and  O_17
REMARK   12  A    between atoms: C_18  and  O_20
REMARK   13  A    between atoms: C_31  and  C_32
REMARK   14  A    between atoms: C_32  and  N_33
REMARK                            x       y       z     vdW  Elec       q    Type
REMARK                         _______ _______ _______ _____ _____    ______ ____
ROOT
ATOM      1  C   UNL     1       8.646   0.014  22.379  0.00  0.00    +0.162 C 
ATOM      2  C   UNL     1       9.681  -1.062  22.724  0.00  0.00    +0.177 C 
ATOM      3  C   UNL     1       8.929  -2.099  23.556  0.00  0.00    +0.195 C 
ATOM      4  C   UNL     1       7.469  -1.631  23.533  0.00  0.00    +0.253 C 
ATOM      5  O   UNL     1       7.368  -0.654  22.481  0.00  0.00    -0.347 OA
ENDROOT
BRANCH   4   6
ATOM      6  N   UNL     1       6.537  -2.717  23.289  0.00  0.00    -0.286 N 
ATOM      7  C   UNL     1       6.262  -3.729  24.172  0.00  0.00    +0.167 A 
ATOM      8  N   UNL     1       6.698  -3.859  25.439  0.00  0.00    -0.216 NA
ATOM      9  C   UNL     1       6.256  -5.022  25.971  0.00  0.00    +0.225 A 
ATOM     10  N   UNL     1       5.530  -5.997  25.381  0.00  0.00    -0.219 NA
ATOM     11  C   UNL     1       5.156  -5.828  24.092  0.00  0.00    +0.147 A 
ATOM     12  N   UNL     1       4.475  -6.857  23.458  0.00  0.00    -0.341 N 
ATOM     13  H   UNL     1       3.980  -6.577  22.619  0.00  0.00    +0.144 HD
ATOM     14  H   UNL     1       4.027  -7.500  24.094  0.00  0.00    +0.144 HD
ATOM     15  C   UNL     1       5.488  -4.624  23.452  0.00  0.00    +0.147 A 
ATOM     16  N   UNL     1       5.210  -4.129  22.195  0.00  0.00    -0.231 NA
ATOM     17  C   UNL     1       5.829  -2.967  22.145  0.00  0.00    +0.203 A 
ENDBRANCH   4   6
BRANCH   2  18
ATOM     18  O   UNL     1      10.153  -1.683  21.516  0.00  0.00    -0.386 OA
ATOM     19  H   UNL     1       9.505  -1.529  20.806  0.00  0.00    +0.210 HD
ENDBRANCH   2  18
BRANCH   3  20
ATOM     20  O   UNL     1       9.423  -2.149  24.897  0.00  0.00    -0.385 OA
ATOM     21  H   UNL     1       9.997  -1.361  25.004  0.00  0.00    +0.210 HD
ENDBRANCH   3  20
BRANCH   1  22
ATOM     22  C   UNL     1       8.728   1.236  23.322  0.00  0.00    +0.108 C 
BRANCH  22  23
ATOM     23  S   UNL     1       7.234   2.282  23.138  0.00  0.00    -0.127 S 
BRANCH  23  24
ATOM     24  C   UNL     1       7.870   3.918  23.090  0.00  0.00    -0.017 C 
ATOM     25  C   UNL     1       7.314   4.806  22.236  0.00  0.00    -0.002 C 
BRANCH  24  26
ATOM     26  C   UNL     1       8.848   4.351  24.172  0.00  0.00    +0.042 C 
BRANCH  26  27
ATOM     27  C   UNL     1      10.299   4.677  23.785  0.00  0.00    +0.005 C 
BRANCH  27  28
ATOM     28  C   UNL     1      10.841   6.015  24.296  0.00  0.00    +0.002 C 
BRANCH  28  29
ATOM     29  C   UNL     1      12.358   6.150  24.153  0.00  0.00    +0.015 C 
BRANCH  29  30
ATOM     30  C   UNL     1      12.866   5.416  22.914  0.00  0.00    +0.077 C 
BRANCH  30  31
ATOM     31  N   UNL     1      14.272   5.072  23.087  0.00  0.00    -0.330 NA
ATOM     32  H   UNL     1      14.785   5.290  22.234  0.00  0.00    +0.118 HD
ATOM     33  H   UNL     1      14.674   5.659  23.817  0.00  0.00    +0.118 HD
ENDBRANCH  30  31
ENDBRANCH  29  30
ENDBRANCH  28  29
ENDBRANCH  27  28
ENDBRANCH  26  27
ENDBRANCH  24  26
BRANCH  25  34
ATOM     34  C   UNL     1       7.517   6.291  22.211  0.00  0.00    +0.106 C 
BRANCH  34  35
ATOM     35  N   UNL     1       6.684   6.903  21.189  0.00  0.00    -0.327 NA
ATOM     36  H   UNL     1       5.717   6.618  21.341  0.00  0.00    +0.119 HD
ATOM     37  H   UNL     1       6.693   7.915  21.319  0.00  0.00    +0.119 HD
ENDBRANCH  34  35
ENDBRANCH  25  34
ENDBRANCH  23  24
ENDBRANCH  22  23
ENDBRANCH   1  22
TORSDOF 14
ENDMDL
MODEL 3
REMARK VINA RESULT:      -6.7      2.753      3.735
REMARK  Name = 
REMARK  14 active torsions:
REMARK  status: ('A' for Active; 'I' for Inactive)
REMARK    1  A    between atoms: N_1  and  C_2
REMARK    2  A    between atoms: C_2  and  C_3
REMARK    3  A    between atoms: C_3  and  C_4
REMARK    4  A    between atoms: C_4  and  C_5
REMARK    5  A    between atoms: C_5  and  C_6
REMARK    6  A    between atoms: C_6  and  C_7
REMARK    7  A    between atoms: C_7  and  S_8
REMARK    8  A    between atoms: S_8  and  C_9
REMARK    9  A    between atoms: C_9  and  C_10
REMARK   10  A    between atoms: C_13  and  N_21
REMARK   11  A    between atoms: C_15  and  O_17
REMARK   12  A    between atoms: C_18  and  O_20
REMARK   13  A    between atoms: C_31  and  C_32
REMARK   14  A    between atoms: C_32  and  N_33
REMARK                            x       y       z     vdW  Elec       q    Type
REMARK                         _______ _______ _______ _____ _____    ______ ____
ROOT
ATOM      1  C   UNL     1       9.967  -0.669  24.690  0.00  0.00    +0.162 C 
ATOM      2  C   UNL     1       8.892  -0.145  25.649  0.00  0.00    +0.177 C 
ATOM      3  C   UNL     1       7.603  -0.855  25.242  0.00  0.00    +0.195 C 
ATOM      4  C   UNL     1       8.034  -1.851  24.157  0.00  0.00    +0.253 C 
ATOM      5  O   UNL     1       9.467  -1.946  24.234  0.00  0.00    -0.347 OA
ENDROOT
BRANCH   4   6
ATOM      6  N   UNL     1       7.441  -3.165  24.337  0.00  0.00    -0.286 N 
ATOM      7  C   UNL     1       6.878  -3.915  23.337  0.00  0.00    +0.167 A 
ATOM      8  N   UNL     1       6.856  -3.647  22.018  0.00  0.00    -0.216 NA
ATOM      9  C   UNL     1       6.156  -4.599  21.357  0.00  0.00    +0.225 A 
ATOM     10  N   UNL     1       5.493  -5.662  21.863  0.00  0.00    -0.219 NA
ATOM     11  C   UNL     1       5.516  -5.855  23.202  0.00  0.00    +0.147 A 
ATOM     12  N   UNL     1       4.778  -6.901  23.734  0.00  0.00    -0.341 N 
ATOM     13  H   UNL     1       5.051  -7.172  24.672  0.00  0.00    +0.144 HD
ATOM     14  H   UNL     1       4.556  -7.624  23.065  0.00  0.00    +0.144 HD
ATOM     15  C   UNL     1       6.276  -4.977  23.991  0.00  0.00    +0.147 A 
ATOM     16  N   UNL     1       6.550  -4.938  25.342  0.00  0.00    -0.231 NA
ATOM     17  C   UNL     1       7.279  -3.853  25.508  0.00  0.00    +0.203 A 
ENDBRANCH   4   6
BRANCH   2  18
ATOM     18  O   UNL     1       9.226  -0.514  26.998  0.00  0.00    -0.386 OA
ATOM     19  H   UNL     1       9.060   0.246  27.584  0.00  0.00    +0.210 HD
ENDBRANCH   2  18
BRANCH   3  20
ATOM     20  O   UNL     1       6.638   0.067  24.728  0.00  0.00    -0.385 OA
ATOM     21  H   UNL     1       6.527  -0.159  23.780  0.00  0.00    +0.210 HD
ENDBRANCH   3  20
BRANCH   1  22
ATOM     22  C   UNL     1      10.230   0.296  23.512  0.00  0.00    +0.108 C 
BRANCH  22  23
ATOM     23  S   UNL     1      10.253   2.031  24.104  0.00  0.00    -0.127 S 
BRANCH  23  24
ATOM     24  C   UNL     1       8.954   2.798  23.206  0.00  0.00    -0.017 C 
ATOM     25  C   UNL     1       8.131   2.023  22.464  0.00  0.00    -0.002 C 
BRANCH  24  26
ATOM     26  C   UNL     1       8.641   4.261  23.483  0.00  0.00    +0.042 C 
BRANCH  26  27
ATOM     27  C   UNL     1       9.574   5.068  24.400  0.00  0.00    +0.005 C 
BRANCH  27  28
ATOM     28  C   UNL     1      10.493   6.072  23.698  0.00  0.00    +0.002 C 
BRANCH  28  29
ATOM     29  C   UNL     1      11.969   5.900  24.060  0.00  0.00    +0.015 C 
BRANCH  29  30
ATOM     30  C   UNL     1      12.661   4.917  23.119  0.00  0.00    +0.077 C 
BRANCH  30  31
ATOM     31  N   UNL     1      14.097   5.165  23.117  0.00  0.00    -0.330 NA
ATOM     32  H   UNL     1      14.497   4.860  24.004  0.00  0.00    +0.118 HD
ATOM     33  H   UNL     1      14.537   4.594  22.397  0.00  0.00    +0.118 HD
ENDBRANCH  30  31
ENDBRANCH  29  30
ENDBRANCH  28  29
ENDBRANCH  27  28
ENDBRANCH  26  27
ENDBRANCH  24  26
BRANCH  25  34
ATOM     34  C   UNL     1       6.828   2.420  21.840  0.00  0.00    +0.106 C 
BRANCH  34  35
ATOM     35  N   UNL     1       5.721   2.123  22.734  0.00  0.00    -0.327 NA
ATOM     36  H   UNL     1       4.924   1.818  22.178  0.00  0.00    +0.119 HD
ATOM     37  H   UNL     1       5.971   1.321  23.314  0.00  0.00    +0.119 HD
ENDBRANCH  34  35
ENDBRANCH  25  34
ENDBRANCH  23  24
ENDBRANCH  22  23
ENDBRANCH   1  22
TORSDOF 14
ENDMDL
MODEL 4
REMARK VINA RESULT:      -6.6      2.582      3.175
REMARK  Name = 
REMARK  14 active torsions:
REMARK  status: ('A' for Active; 'I' for Inactive)
REMARK    1  A    between atoms: N_1  and  C_2
REMARK    2  A    between atoms: C_2  and  C_3
REMARK    3  A    between atoms: C_3  and  C_4
REMARK    4  A    between atoms: C_4  and  C_5
REMARK    5  A    between atoms: C_5  and  C_6
REMARK    6  A    between atoms: C_6  and  C_7
REMARK    7  A    between atoms: C_7  and  S_8
REMARK    8  A    between atoms: S_8  and  C_9
REMARK    9  A    between atoms: C_9  and  C_10
REMARK   10  A    between atoms: C_13  and  N_21
REMARK   11  A    between atoms: C_15  and  O_17
REMARK   12  A    between atoms: C_18  and  O_20
REMARK   13  A    between atoms: C_31  and  C_32
REMARK   14  A    between atoms: C_32  and  N_33
REMARK                            x       y       z     vdW  Elec       q    Type
REMARK                         _______ _______ _______ _____ _____    ______ ____
ROOT
ATOM      1  C   UNL     1       8.737   0.012  23.065  0.00  0.00    +0.162 C 
ATOM      2  C   UNL     1       9.648  -1.061  22.459  0.00  0.00    +0.177 C 
ATOM      3  C   UNL     1       9.083  -2.396  22.944  0.00  0.00    +0.195 C 
ATOM      4  C   UNL     1       7.798  -2.024  23.693  0.00  0.00    +0.253 C 
ATOM      5  O   UNL     1       7.488  -0.667  23.328  0.00  0.00    -0.347 OA
ENDROOT
BRANCH   4   6
ATOM      6  N   UNL     1       6.683  -2.891  23.356  0.00  0.00    -0.286 N 
ATOM      7  C   UNL     1       6.275  -3.969  24.100  0.00  0.00    +0.167 A 
ATOM      8  N   UNL     1       6.735  -4.363  25.301  0.00  0.00    -0.216 NA
ATOM      9  C   UNL     1       6.121  -5.507  25.687  0.00  0.00    +0.225 A 
ATOM     10  N   UNL     1       5.214  -6.246  25.011  0.00  0.00    -0.219 NA
ATOM     11  C   UNL     1       4.821  -5.821  23.789  0.00  0.00    +0.147 A 
ATOM     12  N   UNL     1       3.948  -6.612  23.060  0.00  0.00    -0.341 N 
ATOM     13  H   UNL     1       3.474  -6.129  22.305  0.00  0.00    +0.144 HD
ATOM     14  H   UNL     1       3.422  -7.265  23.624  0.00  0.00    +0.144 HD
ATOM     15  C   UNL     1       5.329  -4.603  23.310  0.00  0.00    +0.147 A 
ATOM     16  N   UNL     1       5.088  -3.880  22.160  0.00  0.00    -0.231 NA
ATOM     17  C   UNL     1       5.896  -2.841  22.239  0.00  0.00    +0.203 A 
ENDBRANCH   4   6
BRANCH   2  18
ATOM     18  O   UNL     1       9.567  -1.011  21.025  0.00  0.00    -0.386 OA
ATOM     19  H   UNL     1      10.362  -1.429  20.648  0.00  0.00    +0.210 HD
ENDBRANCH   2  18
BRANCH   3  20
ATOM     20  O   UNL     1      10.000  -3.065  23.813  0.00  0.00    -0.385 OA
ATOM     21  H   UNL     1      10.320  -3.849  23.317  0.00  0.00    +0.210 HD
ENDBRANCH   3  20
BRANCH   1  22
ATOM     22  C   UNL     1       9.331   0.635  24.349  0.00  0.00    +0.108 C 
BRANCH  22  23
ATOM     23  S   UNL     1       9.888   2.351  24.024  0.00  0.00    -0.127 S 
BRANCH  23  24
ATOM     24  C   UNL     1       8.670   3.342  24.810  0.00  0.00    -0.017 C 
ATOM     25  C   UNL     1       7.764   2.744  25.614  0.00  0.00    -0.002 C 
BRANCH  24  26
ATOM     26  C   UNL     1       8.821   4.856  24.762  0.00  0.00    +0.042 C 
BRANCH  26  27
ATOM     27  C   UNL     1       9.892   5.475  23.851  0.00  0.00    +0.005 C 
BRANCH  27  28
ATOM     28  C   UNL     1      10.785   6.538  24.498  0.00  0.00    +0.002 C 
BRANCH  28  29
ATOM     29  C   UNL     1      12.275   6.196  24.441  0.00  0.00    +0.015 C 
BRANCH  29  30
ATOM     30  C   UNL     1      12.586   5.266  23.271  0.00  0.00    +0.077 C 
BRANCH  30  31
ATOM     31  N   UNL     1      14.029   5.108  23.138  0.00  0.00    -0.330 NA
ATOM     32  H   UNL     1      14.303   4.182  23.463  0.00  0.00    +0.118 HD
ATOM     33  H   UNL     1      14.283   5.149  22.152  0.00  0.00    +0.118 HD
ENDBRANCH  30  31
ENDBRANCH  29  30
ENDBRANCH  28  29
ENDBRANCH  27  28
ENDBRANCH  26  27
ENDBRANCH  24  26
BRANCH  25  34
ATOM     34  C   UNL     1       6.820   3.407  26.570  0.00  0.00    +0.106 C 
BRANCH  34  35
ATOM     35  N   UNL     1       7.350   3.367  27.923  0.00  0.00    -0.327 NA
ATOM     36  H   UNL     1       7.832   4.245  28.111  0.00  0.00    +0.119 HD
ATOM     37  H   UNL     1       6.572   3.336  28.582  0.00  0.00    +0.119 HD
ENDBRANCH  34  35
ENDBRANCH  25  34
ENDBRANCH  23  24
ENDBRANCH  22  23
ENDBRANCH   1  22
TORSDOF 14
ENDMDL
MODEL 5
REMARK VINA RESULT:      -6.5      2.079      2.995
REMARK  Name = 
REMARK  14 active torsions:
REMARK  status: ('A' for Active; 'I' for Inactive)
REMARK    1  A    between atoms: N_1  and  C_2
REMARK    2  A    between atoms: C_2  and  C_3
REMARK    3  A    between atoms: C_3  and  C_4
REMARK    4  A    between atoms: C_4  and  C_5
REMARK    5  A    between atoms: C_5  and  C_6
REMARK    6  A    between atoms: C_6  and  C_7
REMARK    7  A    between atoms: C_7  and  S_8
REMARK    8  A    between atoms: S_8  and  C_9
REMARK    9  A    between atoms: C_9  and  C_10
REMARK   10  A    between atoms: C_13  and  N_21
REMARK   11  A    between atoms: C_15  and  O_17
REMARK   12  A    between atoms: C_18  and  O_20
REMARK   13  A    between atoms: C_31  and  C_32
REMARK   14  A    between atoms: C_32  and  N_33
REMARK                            x       y       z     vdW  Elec       q    Type
REMARK                         _______ _______ _______ _____ _____    ______ ____
ROOT
ATOM      1  C   UNL     1       8.661   0.291  24.214  0.00  0.00    +0.162 C 
ATOM      2  C   UNL     1       8.231  -0.152  22.810  0.00  0.00    +0.177 C 
ATOM      3  C   UNL     1       8.623  -1.625  22.709  0.00  0.00    +0.195 C 
ATOM      4  C   UNL     1       9.136  -1.986  24.109  0.00  0.00    +0.253 C 
ATOM      5  O   UNL     1       8.710  -0.930  24.988  0.00  0.00    -0.347 OA
ENDROOT
BRANCH   4   6
ATOM      6  N   UNL     1       8.619  -3.259  24.583  0.00  0.00    -0.286 N 
ATOM      7  C   UNL     1       7.292  -3.549  24.763  0.00  0.00    +0.167 A 
ATOM      8  N   UNL     1       6.230  -2.784  24.448  0.00  0.00    -0.216 NA
ATOM      9  C   UNL     1       5.082  -3.391  24.832  0.00  0.00    +0.225 A 
ATOM     10  N   UNL     1       4.928  -4.561  25.490  0.00  0.00    -0.219 NA
ATOM     11  C   UNL     1       6.035  -5.266  25.817  0.00  0.00    +0.147 A 
ATOM     12  N   UNL     1       5.887  -6.429  26.557  0.00  0.00    -0.341 N 
ATOM     13  H   UNL     1       6.688  -7.050  26.526  0.00  0.00    +0.144 HD
ATOM     14  H   UNL     1       4.960  -6.828  26.506  0.00  0.00    +0.144 HD
ATOM     15  C   UNL     1       7.284  -4.777  25.404  0.00  0.00    +0.147 A 
ATOM     16  N   UNL     1       8.565  -5.275  25.521  0.00  0.00    -0.231 NA
ATOM     17  C   UNL     1       9.338  -4.351  24.987  0.00  0.00    +0.203 A 
ENDBRANCH   4   6
BRANCH   2  18
ATOM     18  O   UNL     1       6.804  -0.037  22.682  0.00  0.00    -0.386 OA
ATOM     19  H   UNL     1       6.439   0.318  23.513  0.00  0.00    +0.210 HD
ENDBRANCH   2  18
BRANCH   3  20
ATOM     20  O   UNL     1       9.644  -1.827  21.729  0.00  0.00    -0.385 OA
ATOM     21  H   UNL     1       9.879  -2.779  21.775  0.00  0.00    +0.210 HD
ENDBRANCH   3  20
BRANCH   1  22
ATOM     22  C   UNL     1      10.022   1.022  24.212  0.00  0.00    +0.108 C 
BRANCH  22  23
ATOM     23  S   UNL     1      10.084   2.246  22.849  0.00  0.00    -0.127 S 
BRANCH  23  24
ATOM     24  C   UNL     1       8.856   3.423  23.286  0.00  0.00    -0.017 C 
ATOM     25  C   UNL     1       7.753   3.529  22.512  0.00  0.00    -0.002 C 
BRANCH  24  26
ATOM     26  C   UNL     1       8.951   4.105  24.643  0.00  0.00    +0.042 C 
BRANCH  26  27
ATOM     27  C   UNL     1       9.469   5.550  24.723  0.00  0.00    +0.005 C 
BRANCH  27  28
ATOM     28  C   UNL     1      10.441   5.971  23.617  0.00  0.00    +0.002 C 
BRANCH  28  29
ATOM     29  C   UNL     1      11.910   5.836  24.018  0.00  0.00    +0.015 C 
BRANCH  29  30
ATOM     30  C   UNL     1      12.658   4.898  23.073  0.00  0.00    +0.077 C 
BRANCH  30  31
ATOM     31  N   UNL     1      14.084   5.201  23.106  0.00  0.00    -0.330 NA
ATOM     32  H   UNL     1      14.482   5.077  22.176  0.00  0.00    +0.118 HD
ATOM     33  H   UNL     1      14.214   6.184  23.341  0.00  0.00    +0.118 HD
ENDBRANCH  30  31
ENDBRANCH  29  30
ENDBRANCH  28  29
ENDBRANCH  27  28
ENDBRANCH  26  27
ENDBRANCH  24  26
BRANCH  25  34
ATOM     34  C   UNL     1       6.486   4.262  22.832  0.00  0.00    +0.106 C 
BRANCH  34  35
ATOM     35  N   UNL     1       5.376   3.725  22.062  0.00  0.00    -0.327 NA
ATOM     36  H   UNL     1       5.452   2.709  22.043  0.00  0.00    +0.119 HD
ATOM     37  H   UNL     1       4.505   3.925  22.554  0.00  0.00    +0.119 HD
ENDBRANCH  34  35
ENDBRANCH  25  34
ENDBRANCH  23  24
ENDBRANCH  22  23
ENDBRANCH   1  22
TORSDOF 14
ENDMDL
MODEL 6
REMARK VINA RESULT:      -6.4      3.585      5.593
REMARK  Name = 
REMARK  14 active torsions:
REMARK  status: ('A' for Active; 'I' for Inactive)
REMARK    1  A    between atoms: N_1  and  C_2
REMARK    2  A    between atoms: C_2  and  C_3
REMARK    3  A    between atoms: C_3  and  C_4
REMARK    4  A    between atoms: C_4  and  C_5
REMARK    5  A    between atoms: C_5  and  C_6
REMARK    6  A    between atoms: C_6  and  C_7
REMARK    7  A    between atoms: C_7  and  S_8
REMARK    8  A    between atoms: S_8  and  C_9
REMARK    9  A    between atoms: C_9  and  C_10
REMARK   10  A    between atoms: C_13  and  N_21
REMARK   11  A    between atoms: C_15  and  O_17
REMARK   12  A    between atoms: C_18  and  O_20
REMARK   13  A    between atoms: C_31  and  C_32
REMARK   14  A    between atoms: C_32  and  N_33
REMARK                            x       y       z     vdW  Elec       q    Type
REMARK                         _______ _______ _______ _____ _____    ______ ____
ROOT
ATOM      1  C   UNL     1       8.103  -2.362  25.413  0.00  0.00    +0.162 C 
ATOM      2  C   UNL     1       9.101  -3.429  24.952  0.00  0.00    +0.177 C 
ATOM      3  C   UNL     1       8.851  -4.637  25.854  0.00  0.00    +0.195 C 
ATOM      4  C   UNL     1       7.631  -4.246  26.697  0.00  0.00    +0.253 C 
ATOM      5  O   UNL     1       7.040  -3.101  26.056  0.00  0.00    -0.347 OA
ENDROOT
BRANCH   4   6
ATOM      6  N   UNL     1       6.653  -5.315  26.795  0.00  0.00    -0.286 N 
ATOM      7  C   UNL     1       5.954  -5.839  25.739  0.00  0.00    +0.167 A 
ATOM      8  N   UNL     1       6.102  -5.558  24.431  0.00  0.00    -0.216 NA
ATOM      9  C   UNL     1       5.188  -6.236  23.698  0.00  0.00    +0.225 A 
ATOM     10  N   UNL     1       4.199  -7.050  24.128  0.00  0.00    -0.219 NA
ATOM     11  C   UNL     1       4.073  -7.261  25.458  0.00  0.00    +0.147 A 
ATOM     12  N   UNL     1       3.015  -8.036  25.910  0.00  0.00    -0.341 N 
ATOM     13  H   UNL     1       3.129  -8.391  26.852  0.00  0.00    +0.144 HD
ATOM     14  H   UNL     1       2.626  -8.644  25.204  0.00  0.00    +0.144 HD
ATOM     15  C   UNL     1       5.012  -6.673  26.320  0.00  0.00    +0.147 A 
ATOM     16  N   UNL     1       5.194  -6.741  27.685  0.00  0.00    -0.231 NA
ATOM     17  C   UNL     1       6.210  -5.937  27.931  0.00  0.00    +0.203 A 
ENDBRANCH   4   6
BRANCH   2  18
ATOM     18  O   UNL     1       8.823  -3.796  23.590  0.00  0.00    -0.386 OA
ATOM     19  H   UNL     1       9.463  -4.476  23.309  0.00  0.00    +0.210 HD
ENDBRANCH   2  18
BRANCH   3  20
ATOM     20  O   UNL     1       9.979  -4.905  26.691  0.00  0.00    -0.385 OA
ATOM     21  H   UNL     1      10.603  -5.430  26.145  0.00  0.00    +0.210 HD
ENDBRANCH   3  20
BRANCH   1  22
ATOM     22  C   UNL     1       8.741  -1.329  26.369  0.00  0.00    +0.108 C 
BRANCH  22  23
ATOM     23  S   UNL     1       7.575   0.051  26.684  0.00  0.00    -0.127 S 
BRANCH  23  24
ATOM     24  C   UNL     1       7.591   0.963  25.184  0.00  0.00    -0.017 C 
ATOM     25  C   UNL     1       6.521   0.881  24.362  0.00  0.00    -0.002 C 
BRANCH  24  26
ATOM     26  C   UNL     1       8.684   2.002  24.974  0.00  0.00    +0.042 C 
BRANCH  26  27
ATOM     27  C   UNL     1       9.966   1.601  24.229  0.00  0.00    +0.005 C 
BRANCH  27  28
ATOM     28  C   UNL     1      10.010   1.957  22.740  0.00  0.00    +0.002 C 
BRANCH  28  29
ATOM     29  C   UNL     1       9.657   0.783  21.825  0.00  0.00    +0.015 C 
BRANCH  29  30
ATOM     30  C   UNL     1       9.776  -0.549  22.561  0.00  0.00    +0.077 C 
BRANCH  30  31
ATOM     31  N   UNL     1      10.126  -1.603  21.617  0.00  0.00    -0.330 NA
ATOM     32  H   UNL     1      10.390  -2.445  22.127  0.00  0.00    +0.118 HD
ATOM     33  H   UNL     1       9.303  -1.851  21.069  0.00  0.00    +0.118 HD
ENDBRANCH  30  31
ENDBRANCH  29  30
ENDBRANCH  28  29
ENDBRANCH  27  28
ENDBRANCH  26  27
ENDBRANCH  24  26
BRANCH  25  34
ATOM     34  C   UNL     1       6.211   1.755  23.185  0.00  0.00    +0.106 C 
BRANCH  34  35
ATOM     35  N   UNL     1       4.837   2.226  23.246  0.00  0.00    -0.327 NA
ATOM     36  H   UNL     1       4.344   1.906  22.413  0.00  0.00    +0.119 HD
ATOM     37  H   UNL     1       4.367   1.774  24.031  0.00  0.00    +0.119 HD
ENDBRANCH  34  35
ENDBRANCH  25  34
ENDBRANCH  23  24
ENDBRANCH  22  23
ENDBRANCH   1  22
TORSDOF 14
ENDMDL
MODEL 7
REMARK VINA RESULT:      -6.4      3.296      5.330
REMARK  Name = 
REMARK  14 active torsions:
REMARK  status: ('A' for Active; 'I' for Inactive)
REMARK    1  A    between atoms: N_1  and  C_2
REMARK    2  A    between atoms: C_2  and  C_3
REMARK    3  A    between atoms: C_3  and  C_4
REMARK    4  A    between atoms: C_4  and  C_5
REMARK    5  A    between atoms: C_5  and  C_6
REMARK    6  A    between atoms: C_6  and  C_7
REMARK    7  A    between atoms: C_7  and  S_8
REMARK    8  A    between atoms: S_8  and  C_9
REMARK    9  A    between atoms: C_9  and  C_10
REMARK   10  A    between atoms: C_13  and  N_21
REMARK   11  A    between atoms: C_15  and  O_17
REMARK   12  A    between atoms: C_18  and  O_20
REMARK   13  A    between atoms: C_31  and  C_32
REMARK   14  A    between atoms: C_32  and  N_33
REMARK                            x       y       z     vdW  Elec       q    Type
REMARK                         _______ _______ _______ _____ _____    ______ ____
ROOT
ATOM      1  C   UNL     1       7.718  -1.556  24.326  0.00  0.00    +0.162 C 
ATOM      2  C   UNL     1       8.506  -2.488  23.399  0.00  0.00    +0.177 C 
ATOM      3  C   UNL     1       8.666  -3.795  24.174  0.00  0.00    +0.195 C 
ATOM      4  C   UNL     1       7.845  -3.590  25.453  0.00  0.00    +0.253 C 
ATOM      5  O   UNL     1       7.011  -2.440  25.225  0.00  0.00    -0.347 OA
ENDROOT
BRANCH   4   6
ATOM      6  N   UNL     1       7.020  -4.740  25.779  0.00  0.00    -0.286 N 
ATOM      7  C   UNL     1       6.087  -5.299  24.944  0.00  0.00    +0.167 A 
ATOM      8  N   UNL     1       5.831  -4.979  23.662  0.00  0.00    -0.216 NA
ATOM      9  C   UNL     1       4.798  -5.718  23.191  0.00  0.00    +0.225 A 
ATOM     10  N   UNL     1       4.039  -6.621  23.849  0.00  0.00    -0.219 NA
ATOM     11  C   UNL     1       4.318  -6.870  25.149  0.00  0.00    +0.147 A 
ATOM     12  N   UNL     1       3.497  -7.741  25.849  0.00  0.00    -0.341 N 
ATOM     13  H   UNL     1       3.905  -8.105  26.703  0.00  0.00    +0.144 HD
ATOM     14  H   UNL     1       2.968  -8.365  25.258  0.00  0.00    +0.144 HD
ATOM     15  C   UNL     1       5.419  -6.223  25.732  0.00  0.00    +0.147 A 
ATOM     16  N   UNL     1       5.992  -6.303  26.984  0.00  0.00    -0.231 NA
ATOM     17  C   UNL     1       6.971  -5.421  26.965  0.00  0.00    +0.203 A 
ENDBRANCH   4   6
BRANCH   2  18
ATOM     18  O   UNL     1       7.744  -2.741  22.206  0.00  0.00    -0.386 OA
ATOM     19  H   UNL     1       7.650  -1.909  21.708  0.00  0.00    +0.210 HD
ENDBRANCH   2  18
BRANCH   3  20
ATOM     20  O   UNL     1      10.037  -4.051  24.488  0.00  0.00    -0.385 OA
ATOM     21  H   UNL     1      10.030  -4.585  25.311  0.00  0.00    +0.210 HD
ENDBRANCH   3  20
BRANCH   1  22
ATOM     22  C   UNL     1       8.633  -0.574  25.092  0.00  0.00    +0.108 C 
BRANCH  22  23
ATOM     23  S   UNL     1      10.281  -0.487  24.295  0.00  0.00    -0.127 S 
BRANCH  23  24
ATOM     24  C   UNL     1      10.234   1.021  23.397  0.00  0.00    -0.017 C 
ATOM     25  C   UNL     1      10.626   2.158  24.013  0.00  0.00    -0.002 C 
BRANCH  24  26
ATOM     26  C   UNL     1       9.993   0.967  21.895  0.00  0.00    +0.042 C 
BRANCH  26  27
ATOM     27  C   UNL     1       8.554   0.857  21.368  0.00  0.00    +0.005 C 
BRANCH  27  28
ATOM     28  C   UNL     1       7.715   2.135  21.450  0.00  0.00    +0.002 C 
BRANCH  28  29
ATOM     29  C   UNL     1       6.724   2.137  22.615  0.00  0.00    +0.015 C 
BRANCH  29  30
ATOM     30  C   UNL     1       6.069   3.505  22.784  0.00  0.00    +0.077 C 
BRANCH  30  31
ATOM     31  N   UNL     1       6.794   4.498  22.000  0.00  0.00    -0.330 NA
ATOM     32  H   UNL     1       7.549   4.890  22.560  0.00  0.00    +0.118 HD
ATOM     33  H   UNL     1       7.238   4.041  21.206  0.00  0.00    +0.118 HD
ENDBRANCH  30  31
ENDBRANCH  29  30
ENDBRANCH  28  29
ENDBRANCH  27  28
ENDBRANCH  26  27
ENDBRANCH  24  26
BRANCH  25  34
ATOM     34  C   UNL     1      10.910   3.485  23.377  0.00  0.00    +0.106 C 
BRANCH  34  35
ATOM     35  N   UNL     1       9.733   4.336  23.424  0.00  0.00    -0.327 NA
ATOM     36  H   UNL     1       9.718   4.825  24.318  0.00  0.00    +0.119 HD
ATOM     37  H   UNL     1       9.825   5.066  22.716  0.00  0.00    +0.119 HD
ENDBRANCH  34  35
ENDBRANCH  25  34
ENDBRANCH  23  24
ENDBRANCH  22  23
ENDBRANCH   1  22
TORSDOF 14
ENDMDL
MODEL 8
REMARK VINA RESULT:      -6.3      3.230      4.858
REMARK  Name = 
REMARK  14 active torsions:
REMARK  status: ('A' for Active; 'I' for Inactive)
REMARK    1  A    between atoms: N_1  and  C_2
REMARK    2  A    between atoms: C_2  and  C_3
REMARK    3  A    between atoms: C_3  and  C_4
REMARK    4  A    between atoms: C_4  and  C_5
REMARK    5  A    between atoms: C_5  and  C_6
REMARK    6  A    between atoms: C_6  and  C_7
REMARK    7  A    between atoms: C_7  and  S_8
REMARK    8  A    between atoms: S_8  and  C_9
REMARK    9  A    between atoms: C_9  and  C_10
REMARK   10  A    between atoms: C_13  and  N_21
REMARK   11  A    between atoms: C_15  and  O_17
REMARK   12  A    between atoms: C_18  and  O_20
REMARK   13  A    between atoms: C_31  and  C_32
REMARK   14  A    between atoms: C_32  and  N_33
REMARK                            x       y       z     vdW  Elec       q    Type
REMARK                         _______ _______ _______ _____ _____    ______ ____
ROOT
ATOM      1  C   UNL     1       5.976  -1.734  23.537  0.00  0.00    +0.162 C 
ATOM      2  C   UNL     1       6.342  -2.823  22.522  0.00  0.00    +0.177 C 
ATOM      3  C   UNL     1       7.259  -3.788  23.272  0.00  0.00    +0.195 C 
ATOM      4  C   UNL     1       7.263  -3.274  24.717  0.00  0.00    +0.253 C 
ATOM      5  O   UNL     1       6.163  -2.355  24.830  0.00  0.00    -0.347 OA
ENDROOT
BRANCH   4   6
ATOM      6  N   UNL     1       7.115  -4.342  25.691  0.00  0.00    -0.286 N 
ATOM      7  C   UNL     1       6.040  -5.189  25.770  0.00  0.00    +0.167 A 
ATOM      8  N   UNL     1       4.993  -5.273  24.928  0.00  0.00    -0.216 NA
ATOM      9  C   UNL     1       4.105  -6.193  25.373  0.00  0.00    +0.225 A 
ATOM     10  N   UNL     1       4.147  -6.925  26.508  0.00  0.00    -0.219 NA
ATOM     11  C   UNL     1       5.205  -6.766  27.337  0.00  0.00    +0.147 A 
ATOM     12  N   UNL     1       5.217  -7.458  28.538  0.00  0.00    -0.341 N 
ATOM     13  H   UNL     1       6.131  -7.528  28.972  0.00  0.00    +0.144 HD
ATOM     14  H   UNL     1       4.611  -8.266  28.548  0.00  0.00    +0.144 HD
ATOM     15  C   UNL     1       6.234  -5.894  26.946  0.00  0.00    +0.147 A 
ATOM     16  N   UNL     1       7.444  -5.565  27.520  0.00  0.00    -0.231 NA
ATOM     17  C   UNL     1       7.961  -4.653  26.721  0.00  0.00    +0.203 A 
ENDBRANCH   4   6
BRANCH   2  18
ATOM     18  O   UNL     1       5.154  -3.525  22.117  0.00  0.00    -0.386 OA
ATOM     19  H   UNL     1       5.341  -4.481  22.100  0.00  0.00    +0.210 HD
ENDBRANCH   2  18
BRANCH   3  20
ATOM     20  O   UNL     1       8.581  -3.780  22.728  0.00  0.00    -0.385 OA
ATOM     21  H   UNL     1       9.160  -4.164  23.420  0.00  0.00    +0.210 HD
ENDBRANCH   3  20
BRANCH   1  22
ATOM     22  C   UNL     1       6.845  -0.466  23.382  0.00  0.00    +0.108 C 
BRANCH  22  23
ATOM     23  S   UNL     1       6.234   0.862  24.488  0.00  0.00    -0.127 S 
BRANCH  23  24
ATOM     24  C   UNL     1       7.292   2.219  24.139  0.00  0.00    -0.017 C 
ATOM     25  C   UNL     1       6.822   3.231  23.377  0.00  0.00    -0.002 C 
BRANCH  24  26
ATOM     26  C   UNL     1       8.606   2.333  24.900  0.00  0.00    +0.042 C 
BRANCH  26  27
ATOM     27  C   UNL     1       9.872   1.693  24.311  0.00  0.00    +0.005 C 
BRANCH  27  28
ATOM     28  C   UNL     1      10.195   2.064  22.861  0.00  0.00    +0.002 C 
BRANCH  28  29
ATOM     29  C   UNL     1       9.894   0.942  21.866  0.00  0.00    +0.015 C 
BRANCH  29  30
ATOM     30  C   UNL     1      10.226  -0.426  22.456  0.00  0.00    +0.077 C 
BRANCH  30  31
ATOM     31  N   UNL     1      10.003  -1.461  21.454  0.00  0.00    -0.330 NA
ATOM     32  H   UNL     1       9.725  -1.030  20.574  0.00  0.00    +0.118 HD
ATOM     33  H   UNL     1      10.881  -1.945  21.268  0.00  0.00    +0.118 HD
ENDBRANCH  30  31
ENDBRANCH  29  30
ENDBRANCH  28  29
ENDBRANCH  27  28
ENDBRANCH  26  27
ENDBRANCH  24  26
BRANCH  25  34
ATOM     34  C   UNL     1       7.444   4.579  23.172  0.00  0.00    +0.106 C 
BRANCH  34  35
ATOM     35  N   UNL     1       7.280   5.014  21.795  0.00  0.00    -0.327 NA
ATOM     36  H   UNL     1       6.509   5.679  21.751  0.00  0.00    +0.119 HD
ATOM     37  H   UNL     1       8.109   5.539  21.514  0.00  0.00    +0.119 HD
ENDBRANCH  34  35
ENDBRANCH  25  34
ENDBRANCH  23  24
ENDBRANCH  22  23
ENDBRANCH   1  22
TORSDOF 14
ENDMDL
MODEL 9
REMARK VINA RESULT:      -6.3      3.542      8.650
REMARK  Name = 
REMARK  14 active torsions:
REMARK  status: ('A' for Active; 'I' for Inactive)
REMARK    1  A    between atoms: N_1  and  C_2
REMARK    2  A    between atoms: C_2  and  C_3
REMARK    3  A    between atoms: C_3  and  C_4
REMARK    4  A    between atoms: C_4  and  C_5
REMARK    5  A    between atoms: C_5  and  C_6
REMARK    6  A    between atoms: C_6  and  C_7
REMARK    7  A    between atoms: C_7  and  S_8
REMARK    8  A    between atoms: S_8  and  C_9
REMARK    9  A    between atoms: C_9  and  C_10
REMARK   10  A    between atoms: C_13  and  N_21
REMARK   11  A    between atoms: C_15  and  O_17
REMARK   12  A    between atoms: C_18  and  O_20
REMARK   13  A    between atoms: C_31  and  C_32
REMARK   14  A    between atoms: C_32  and  N_33
REMARK                            x       y       z     vdW  Elec       q    Type
REMARK                         _______ _______ _______ _____ _____    ______ ____
ROOT
ATOM      1  C   UNL     1       9.594  -2.032  23.980  0.00  0.00    +0.162 C 
ATOM      2  C   UNL     1       8.792  -1.804  22.694  0.00  0.00    +0.177 C 
ATOM      3  C   UNL     1       8.183  -0.410  22.835  0.00  0.00    +0.195 C 
ATOM      4  C   UNL     1       8.778   0.143  24.136  0.00  0.00    +0.253 C 
ATOM      5  O   UNL     1       9.890  -0.705  24.472  0.00  0.00    -0.347 OA
ENDROOT
BRANCH   4   6
ATOM      6  N   UNL     1       9.228   1.518  24.006  0.00  0.00    -0.286 N 
ATOM      7  C   UNL     1       8.405   2.615  23.994  0.00  0.00    +0.167 A 
ATOM      8  N   UNL     1       7.076   2.651  24.202  0.00  0.00    -0.216 NA
ATOM      9  C   UNL     1       6.611   3.914  24.053  0.00  0.00    +0.225 A 
ATOM     10  N   UNL     1       7.292   5.025  23.693  0.00  0.00    -0.219 NA
ATOM     11  C   UNL     1       8.619   4.918  23.456  0.00  0.00    +0.147 A 
ATOM     12  N   UNL     1       9.307   6.037  23.015  0.00  0.00    -0.341 N 
ATOM     13  H   UNL     1      10.313   5.982  23.129  0.00  0.00    +0.144 HD
ATOM     14  H   UNL     1       8.842   6.909  23.224  0.00  0.00    +0.144 HD
ATOM     15  C   UNL     1       9.234   3.671  23.654  0.00  0.00    +0.147 A 
ATOM     16  N   UNL     1      10.545   3.254  23.560  0.00  0.00    -0.231 NA
ATOM     17  C   UNL     1      10.507   1.961  23.810  0.00  0.00    +0.203 A 
ENDBRANCH   4   6
BRANCH   2  18
ATOM     18  O   UNL     1       9.678  -1.816  21.562  0.00  0.00    -0.386 OA
ATOM     19  H   UNL     1      10.434  -2.398  21.758  0.00  0.00    +0.210 HD
ENDBRANCH   2  18
BRANCH   3  20
ATOM     20  O   UNL     1       6.757  -0.469  22.915  0.00  0.00    -0.385 OA
ATOM     21  H   UNL     1       6.552  -1.136  23.605  0.00  0.00    +0.210 HD
ENDBRANCH   3  20
BRANCH   1  22
ATOM     22  C   UNL     1       8.816  -2.868  25.021  0.00  0.00    +0.108 C 
BRANCH  22  23
ATOM     23  S   UNL     1       8.163  -4.398  24.250  0.00  0.00    -0.127 S 
BRANCH  23  24
ATOM     24  C   UNL     1       6.636  -4.664  25.074  0.00  0.00    -0.017 C 
ATOM     25  C   UNL     1       6.600  -5.530  26.112  0.00  0.00    -0.002 C 
BRANCH  24  26
ATOM     26  C   UNL     1       5.469  -3.739  24.762  0.00  0.00    +0.042 C 
BRANCH  26  27
ATOM     27  C   UNL     1       4.811  -3.803  23.375  0.00  0.00    +0.005 C 
BRANCH  27  28
ATOM     28  C   UNL     1       4.488  -5.206  22.853  0.00  0.00    +0.002 C 
BRANCH  28  29
ATOM     29  C   UNL     1       3.078  -5.677  23.212  0.00  0.00    +0.015 C 
BRANCH  29  30
ATOM     30  C   UNL     1       3.102  -6.660  24.380  0.00  0.00    +0.077 C 
BRANCH  30  31
ATOM     31  N   UNL     1       4.221  -7.582  24.224  0.00  0.00    -0.330 NA
ATOM     32  H   UNL     1       4.840  -7.507  25.030  0.00  0.00    +0.118 HD
ATOM     33  H   UNL     1       3.872  -8.539  24.224  0.00  0.00    +0.118 HD
ENDBRANCH  30  31
ENDBRANCH  29  30
ENDBRANCH  28  29
ENDBRANCH  27  28
ENDBRANCH  26  27
ENDBRANCH  24  26
BRANCH  25  34
ATOM     34  C   UNL     1       5.492  -5.711  27.104  0.00  0.00    +0.106 C 
BRANCH  34  35
ATOM     35  N   UNL     1       5.219  -7.124  27.313  0.00  0.00    -0.327 NA
ATOM     36  H   UNL     1       4.676  -7.472  26.524  0.00  0.00    +0.119 HD
ATOM     37  H   UNL     1       6.100  -7.638  27.286  0.00  0.00    +0.119 HD
ENDBRANCH  34  35
ENDBRANCH  25  34
ENDBRANCH  23  24
ENDBRANCH  22  23
ENDBRANCH   1  22
TORSDOF 14
ENDMDL
