MODEL 1
REMARK VINA RESULT:      -4.8      0.000      0.000
REMARK  Name = 
REMARK  6 active torsions:
REMARK  status: ('A' for Active; 'I' for Inactive)
REMARK    1  A    between atoms: C_1  and  C_2
REMARK    2  A    between atoms: C_2  and  C_4
REMARK    3  A    between atoms: C_2  and  C_6
REMARK    4  A    between atoms: C_4  and  S_5
REMARK    5  A    between atoms: C_12  and  C_14
REMARK    6  A    between atoms: C_14  and  O_15
REMARK                            x       y       z     vdW  Elec       q    Type
REMARK                         _______ _______ _______ _____ _____    ______ ____
ROOT
ATOM      1  C   UNL     1       8.550  -2.466  23.716  0.00  0.00    +0.220 C 
ATOM      2  N   UNL     1       7.791  -3.603  23.622  0.00  0.00    -0.288 N 
ATOM      3  C   UNL     1       7.425  -4.405  24.812  0.00  0.00    +0.184 C 
ATOM      4  C   UNL     1       6.262  -5.288  24.332  0.00  0.00    +0.035 C 
ATOM      5  C   UNL     1       5.947  -4.833  22.909  0.00  0.00    +0.021 C 
ATOM      6  C   UNL     1       7.233  -4.197  22.422  0.00  0.00    +0.109 C 
ATOM      7  O   UNL     1       9.067  -2.197  24.804  0.00  0.00    -0.275 OA
ENDROOT
BRANCH   1   9
ATOM      8  C   UNL     1      10.283  -1.412  22.280  0.00  0.00    +0.018 C 
ATOM      9  C   UNL     1       8.773  -1.591  22.486  0.00  0.00    +0.082 C 
BRANCH   9  10
ATOM     10  C   UNL     1       8.037  -0.259  22.685  0.00  0.00    +0.078 C 
BRANCH  10  11
ATOM     11  S   UNL     1       8.785   1.135  21.773  0.00  0.00    -0.178 S 
ATOM     12  H   UNL     1       9.964   0.546  21.514  0.00  0.00    +0.102 HD
ENDBRANCH  10  11
ENDBRANCH   9  10
ENDBRANCH   1   9
BRANCH   3  13
ATOM     13  C   UNL     1       8.559  -5.276  25.401  0.00  0.00    +0.325 C 
ATOM     14  O   UNL     1       9.594  -5.543  24.800  0.00  0.00    -0.249 OA
BRANCH  13  15
ATOM     15  O   UNL     1       8.292  -5.817  26.610  0.00  0.00    -0.479 OA
ATOM     16  H   UNL     1       8.389  -5.155  27.330  0.00  0.00    +0.295 HD
ENDBRANCH  13  15
ENDBRANCH   3  13
TORSDOF 5
ENDMDL
MODEL 2
REMARK VINA RESULT:      -4.8      1.888      2.489
REMARK  Name = 
REMARK  6 active torsions:
REMARK  status: ('A' for Active; 'I' for Inactive)
REMARK    1  A    between atoms: C_1  and  C_2
REMARK    2  A    between atoms: C_2  and  C_4
REMARK    3  A    between atoms: C_2  and  C_6
REMARK    4  A    between atoms: C_4  and  S_5
REMARK    5  A    between atoms: C_12  and  C_14
REMARK    6  A    between atoms: C_14  and  O_15
REMARK                            x       y       z     vdW  Elec       q    Type
REMARK                         _______ _______ _______ _____ _____    ______ ____
ROOT
ATOM      1  C   UNL     1       9.558  -2.016  23.928  0.00  0.00    +0.220 C 
ATOM      2  N   UNL     1       8.568  -2.440  24.776  0.00  0.00    -0.288 N 
ATOM      3  C   UNL     1       8.645  -3.735  25.490  0.00  0.00    +0.184 C 
ATOM      4  C   UNL     1       7.602  -3.613  26.612  0.00  0.00    +0.035 C 
ATOM      5  C   UNL     1       7.077  -2.181  26.546  0.00  0.00    +0.021 C 
ATOM      6  C   UNL     1       7.339  -1.748  25.118  0.00  0.00    +0.109 C 
ATOM      7  O   UNL     1      10.459  -2.808  23.640  0.00  0.00    -0.275 OA
ENDROOT
BRANCH   1   9
ATOM      8  C   UNL     1       9.763  -0.708  21.825  0.00  0.00    +0.018 C 
ATOM      9  C   UNL     1       9.507  -0.611  23.335  0.00  0.00    +0.082 C 
BRANCH   9  10
ATOM     10  C   UNL     1      10.535   0.271  24.058  0.00  0.00    +0.078 C 
BRANCH  10  11
ATOM     11  S   UNL     1      10.346   2.053  23.708  0.00  0.00    -0.178 S 
ATOM     12  H   UNL     1       9.742   1.922  22.516  0.00  0.00    +0.102 HD
ENDBRANCH  10  11
ENDBRANCH   9  10
ENDBRANCH   1   9
BRANCH   3  13
ATOM     13  C   UNL     1       8.369  -4.987  24.627  0.00  0.00    +0.325 C 
ATOM     14  O   UNL     1       7.249  -5.329  24.261  0.00  0.00    -0.249 OA
BRANCH  13  15
ATOM     15  O   UNL     1       9.451  -5.755  24.375  0.00  0.00    -0.479 OA
ATOM     16  H   UNL     1       9.303  -6.688  24.646  0.00  0.00    +0.295 HD
ENDBRANCH  13  15
ENDBRANCH   3  13
TORSDOF 5
ENDMDL
MODEL 3
REMARK VINA RESULT:      -4.8      3.542      6.058
REMARK  Name = 
REMARK  6 active torsions:
REMARK  status: ('A' for Active; 'I' for Inactive)
REMARK    1  A    between atoms: C_1  and  C_2
REMARK    2  A    between atoms: C_2  and  C_4
REMARK    3  A    between atoms: C_2  and  C_6
REMARK    4  A    between atoms: C_4  and  S_5
REMARK    5  A    between atoms: C_12  and  C_14
REMARK    6  A    between atoms: C_14  and  O_15
REMARK                            x       y       z     vdW  Elec       q    Type
REMARK                         _______ _______ _______ _____ _____    ______ ____
ROOT
ATOM      1  C   UNL     1       8.020  -1.077  23.175  0.00  0.00    +0.220 C 
ATOM      2  N   UNL     1       9.019  -0.171  23.417  0.00  0.00    -0.288 N 
ATOM      3  C   UNL     1       8.762   1.286  23.476  0.00  0.00    +0.184 C 
ATOM      4  C   UNL     1      10.003   1.863  24.176  0.00  0.00    +0.035 C 
ATOM      5  C   UNL     1      10.846   0.661  24.597  0.00  0.00    +0.021 C 
ATOM      6  C   UNL     1      10.424  -0.446  23.652  0.00  0.00    +0.109 C 
ATOM      7  O   UNL     1       6.910  -0.649  22.845  0.00  0.00    -0.275 OA
ENDROOT
BRANCH   1   9
ATOM      8  C   UNL     1       7.378  -3.313  22.298  0.00  0.00    +0.018 C 
ATOM      9  C   UNL     1       8.303  -2.574  23.275  0.00  0.00    +0.082 C 
BRANCH   9  10
ATOM     10  C   UNL     1       8.110  -3.019  24.731  0.00  0.00    +0.078 C 
BRANCH  10  11
ATOM     11  S   UNL     1       8.335  -4.812  24.985  0.00  0.00    -0.178 S 
ATOM     12  H   UNL     1       7.643  -4.903  26.132  0.00  0.00    +0.102 HD
ENDBRANCH  10  11
ENDBRANCH   9  10
ENDBRANCH   1   9
BRANCH   3  13
ATOM     13  C   UNL     1       8.541   1.977  22.111  0.00  0.00    +0.325 C 
ATOM     14  O   UNL     1       7.446   2.353  21.708  0.00  0.00    -0.249 OA
BRANCH  13  15
ATOM     15  O   UNL     1       9.640   2.057  21.329  0.00  0.00    -0.479 OA
ATOM     16  H   UNL     1      10.288   2.706  21.683  0.00  0.00    +0.295 HD
ENDBRANCH  13  15
ENDBRANCH   3  13
TORSDOF 5
ENDMDL
MODEL 4
REMARK VINA RESULT:      -4.7      3.222      4.928
REMARK  Name = 
REMARK  6 active torsions:
REMARK  status: ('A' for Active; 'I' for Inactive)
REMARK    1  A    between atoms: C_1  and  C_2
REMARK    2  A    between atoms: C_2  and  C_4
REMARK    3  A    between atoms: C_2  and  C_6
REMARK    4  A    between atoms: C_4  and  S_5
REMARK    5  A    between atoms: C_12  and  C_14
REMARK    6  A    between atoms: C_14  and  O_15
REMARK                            x       y       z     vdW  Elec       q    Type
REMARK                         _______ _______ _______ _____ _____    ______ ____
ROOT
ATOM      1  C   UNL     1       7.405  -3.927  22.801  0.00  0.00    +0.220 C 
ATOM      2  N   UNL     1       8.186  -3.202  23.662  0.00  0.00    -0.288 N 
ATOM      3  C   UNL     1       8.575  -1.801  23.382  0.00  0.00    +0.184 C 
ATOM      4  C   UNL     1       9.046  -1.258  24.741  0.00  0.00    +0.035 C 
ATOM      5  C   UNL     1       8.769  -2.365  25.756  0.00  0.00    +0.021 C 
ATOM      6  C   UNL     1       8.741  -3.635  24.931  0.00  0.00    +0.109 C 
ATOM      7  O   UNL     1       7.153  -3.443  21.694  0.00  0.00    -0.275 OA
ENDROOT
BRANCH   1   9
ATOM      8  C   UNL     1       6.838  -6.191  21.947  0.00  0.00    +0.018 C 
ATOM      9  C   UNL     1       6.904  -5.311  23.203  0.00  0.00    +0.082 C 
BRANCH   9  10
ATOM     10  C   UNL     1       5.544  -5.164  23.899  0.00  0.00    +0.078 C 
BRANCH  10  11
ATOM     11  S   UNL     1       5.537  -5.756  25.626  0.00  0.00    -0.178 S 
ATOM     12  H   UNL     1       6.792  -6.235  25.639  0.00  0.00    +0.102 HD
ENDBRANCH  10  11
ENDBRANCH   9  10
ENDBRANCH   1   9
BRANCH   3  13
ATOM     13  C   UNL     1       9.679  -1.619  22.315  0.00  0.00    +0.325 C 
ATOM     14  O   UNL     1      10.863  -1.868  22.510  0.00  0.00    -0.249 OA
BRANCH  13  15
ATOM     15  O   UNL     1       9.262  -1.064  21.155  0.00  0.00    -0.479 OA
ATOM     16  H   UNL     1       9.674  -1.503  20.377  0.00  0.00    +0.295 HD
ENDBRANCH  13  15
ENDBRANCH   3  13
TORSDOF 5
ENDMDL
MODEL 5
REMARK VINA RESULT:      -4.7      1.925      2.128
REMARK  Name = 
REMARK  6 active torsions:
REMARK  status: ('A' for Active; 'I' for Inactive)
REMARK    1  A    between atoms: C_1  and  C_2
REMARK    2  A    between atoms: C_2  and  C_4
REMARK    3  A    between atoms: C_2  and  C_6
REMARK    4  A    between atoms: C_4  and  S_5
REMARK    5  A    between atoms: C_12  and  C_14
REMARK    6  A    between atoms: C_14  and  O_15
REMARK                            x       y       z     vdW  Elec       q    Type
REMARK                         _______ _______ _______ _____ _____    ______ ____
ROOT
ATOM      1  C   UNL     1       8.719  -1.451  25.284  0.00  0.00    +0.220 C 
ATOM      2  N   UNL     1       8.511  -2.543  24.482  0.00  0.00    -0.288 N 
ATOM      3  C   UNL     1       8.172  -3.873  25.036  0.00  0.00    +0.184 C 
ATOM      4  C   UNL     1       7.615  -4.655  23.836  0.00  0.00    +0.035 C 
ATOM      5  C   UNL     1       7.549  -3.660  22.679  0.00  0.00    +0.021 C 
ATOM      6  C   UNL     1       8.572  -2.601  23.033  0.00  0.00    +0.109 C 
ATOM      7  O   UNL     1       8.776  -1.625  26.504  0.00  0.00    -0.275 OA
ENDROOT
BRANCH   1   9
ATOM      8  C   UNL     1      10.364   0.372  24.901  0.00  0.00    +0.018 C 
ATOM      9  C   UNL     1       8.914  -0.071  24.662  0.00  0.00    +0.082 C 
BRANCH   9  10
ATOM     10  C   UNL     1       7.888   0.896  25.270  0.00  0.00    +0.078 C 
BRANCH  10  11
ATOM     11  S   UNL     1       8.293   2.656  25.001  0.00  0.00    -0.178 S 
ATOM     12  H   UNL     1       7.153   3.162  25.498  0.00  0.00    +0.102 HD
ENDBRANCH  10  11
ENDBRANCH   9  10
ENDBRANCH   1   9
BRANCH   3  13
ATOM     13  C   UNL     1       9.347  -4.642  25.684  0.00  0.00    +0.325 C 
ATOM     14  O   UNL     1      10.233  -5.198  25.045  0.00  0.00    -0.249 OA
BRANCH  13  15
ATOM     15  O   UNL     1       9.285  -4.747  27.030  0.00  0.00    -0.479 OA
ATOM     16  H   UNL     1       8.362  -4.892  27.338  0.00  0.00    +0.295 HD
ENDBRANCH  13  15
ENDBRANCH   3  13
TORSDOF 5
ENDMDL
MODEL 6
REMARK VINA RESULT:      -4.6      3.089      5.460
REMARK  Name = 
REMARK  6 active torsions:
REMARK  status: ('A' for Active; 'I' for Inactive)
REMARK    1  A    between atoms: C_1  and  C_2
REMARK    2  A    between atoms: C_2  and  C_4
REMARK    3  A    between atoms: C_2  and  C_6
REMARK    4  A    between atoms: C_4  and  S_5
REMARK    5  A    between atoms: C_12  and  C_14
REMARK    6  A    between atoms: C_14  and  O_15
REMARK                            x       y       z     vdW  Elec       q    Type
REMARK                         _______ _______ _______ _____ _____    ______ ____
ROOT
ATOM      1  C   UNL     1       8.610  -1.627  22.873  0.00  0.00    +0.220 C 
ATOM      2  N   UNL     1       8.106  -0.387  23.170  0.00  0.00    -0.288 N 
ATOM      3  C   UNL     1       8.384   0.798  22.327  0.00  0.00    +0.184 C 
ATOM      4  C   UNL     1       7.319   1.823  22.749  0.00  0.00    +0.035 C 
ATOM      5  C   UNL     1       6.403   1.099  23.732  0.00  0.00    +0.021 C 
ATOM      6  C   UNL     1       7.257  -0.022  24.289  0.00  0.00    +0.109 C 
ATOM      7  O   UNL     1       9.440  -1.717  21.965  0.00  0.00    -0.275 OA
ENDROOT
BRANCH   1   9
ATOM      8  C   UNL     1       9.406  -3.439  24.375  0.00  0.00    +0.018 C 
ATOM      9  C   UNL     1       8.173  -2.844  23.683  0.00  0.00    +0.082 C 
BRANCH   9  10
ATOM     10  C   UNL     1       7.478  -3.840  22.745  0.00  0.00    +0.078 C 
BRANCH  10  11
ATOM     11  S   UNL     1       5.863  -3.257  22.123  0.00  0.00    -0.178 S 
ATOM     12  H   UNL     1       5.277  -4.462  22.036  0.00  0.00    +0.102 HD
ENDBRANCH  10  11
ENDBRANCH   9  10
ENDBRANCH   1   9
BRANCH   3  13
ATOM     13  C   UNL     1       9.801   1.399  22.471  0.00  0.00    +0.325 C 
ATOM     14  O   UNL     1      10.521   1.218  23.447  0.00  0.00    -0.249 OA
BRANCH  13  15
ATOM     15  O   UNL     1      10.169   2.234  21.475  0.00  0.00    -0.479 OA
ATOM     16  H   UNL     1      10.263   3.158  21.796  0.00  0.00    +0.295 HD
ENDBRANCH  13  15
ENDBRANCH   3  13
TORSDOF 5
ENDMDL
MODEL 7
REMARK VINA RESULT:      -4.5      2.945      4.042
REMARK  Name = 
REMARK  6 active torsions:
REMARK  status: ('A' for Active; 'I' for Inactive)
REMARK    1  A    between atoms: C_1  and  C_2
REMARK    2  A    between atoms: C_2  and  C_4
REMARK    3  A    between atoms: C_2  and  C_6
REMARK    4  A    between atoms: C_4  and  S_5
REMARK    5  A    between atoms: C_12  and  C_14
REMARK    6  A    between atoms: C_14  and  O_15
REMARK                            x       y       z     vdW  Elec       q    Type
REMARK                         _______ _______ _______ _____ _____    ______ ____
ROOT
ATOM      1  C   UNL     1       9.673   0.979  24.121  0.00  0.00    +0.220 C 
ATOM      2  N   UNL     1       8.769   0.019  23.751  0.00  0.00    -0.288 N 
ATOM      3  C   UNL     1       8.870  -1.381  24.222  0.00  0.00    +0.184 C 
ATOM      4  C   UNL     1       7.481  -1.977  23.946  0.00  0.00    +0.035 C 
ATOM      5  C   UNL     1       6.618  -0.821  23.446  0.00  0.00    +0.021 C 
ATOM      6  C   UNL     1       7.612   0.179  22.890  0.00  0.00    +0.109 C 
ATOM      7  O   UNL     1      10.682   0.625  24.738  0.00  0.00    -0.275 OA
ENDROOT
BRANCH   1   9
ATOM      8  C   UNL     1      10.801   3.088  23.442  0.00  0.00    +0.018 C 
ATOM      9  C   UNL     1       9.442   2.438  23.736  0.00  0.00    +0.082 C 
BRANCH   9  10
ATOM     10  C   UNL     1       8.681   3.136  24.872  0.00  0.00    +0.078 C 
BRANCH  10  11
ATOM     11  S   UNL     1       8.769   4.958  24.801  0.00  0.00    -0.178 S 
ATOM     12  H   UNL     1       8.982   5.162  26.111  0.00  0.00    +0.102 HD
ENDBRANCH  10  11
ENDBRANCH   9  10
ENDBRANCH   1   9
BRANCH   3  13
ATOM     13  C   UNL     1       9.969  -2.232  23.543  0.00  0.00    +0.325 C 
ATOM     14  O   UNL     1      10.549  -1.901  22.515  0.00  0.00    -0.249 OA
BRANCH  13  15
ATOM     15  O   UNL     1      10.188  -3.437  24.114  0.00  0.00    -0.479 OA
ATOM     16  H   UNL     1      10.089  -3.397  25.091  0.00  0.00    +0.295 HD
ENDBRANCH  13  15
ENDBRANCH   3  13
TORSDOF 5
ENDMDL
MODEL 8
REMARK VINA RESULT:      -4.5      3.907      5.369
REMARK  Name = 
REMARK  6 active torsions:
REMARK  status: ('A' for Active; 'I' for Inactive)
REMARK    1  A    between atoms: C_1  and  C_2
REMARK    2  A    between atoms: C_2  and  C_4
REMARK    3  A    between atoms: C_2  and  C_6
REMARK    4  A    between atoms: C_4  and  S_5
REMARK    5  A    between atoms: C_12  and  C_14
REMARK    6  A    between atoms: C_14  and  O_15
REMARK                            x       y       z     vdW  Elec       q    Type
REMARK                         _______ _______ _______ _____ _____    ______ ____
ROOT
ATOM      1  C   UNL     1       9.232   1.947  22.947  0.00  0.00    +0.220 C 
ATOM      2  N   UNL     1       9.109   0.791  23.674  0.00  0.00    -0.288 N 
ATOM      3  C   UNL     1       9.788  -0.463  23.277  0.00  0.00    +0.184 C 
ATOM      4  C   UNL     1       9.745  -1.336  24.541  0.00  0.00    +0.035 C 
ATOM      5  C   UNL     1       9.148  -0.458  25.639  0.00  0.00    +0.021 C 
ATOM      6  C   UNL     1       8.347   0.589  24.892  0.00  0.00    +0.109 C 
ATOM      7  O   UNL     1       9.799   1.891  21.853  0.00  0.00    -0.275 OA
ENDROOT
BRANCH   1   9
ATOM      8  C   UNL     1       7.594   3.756  22.474  0.00  0.00    +0.018 C 
ATOM      9  C   UNL     1       8.640   3.250  23.477  0.00  0.00    +0.082 C 
BRANCH   9  10
ATOM     10  C   UNL     1       9.778   4.254  23.708  0.00  0.00    +0.078 C 
BRANCH  10  11
ATOM     11  S   UNL     1       9.236   5.997  23.672  0.00  0.00    -0.178 S 
ATOM     12  H   UNL     1       8.885   6.032  22.376  0.00  0.00    +0.102 HD
ENDBRANCH  10  11
ENDBRANCH   9  10
ENDBRANCH   1   9
BRANCH   3  13
ATOM     13  C   UNL     1       9.154  -1.212  22.081  0.00  0.00    +0.325 C 
ATOM     14  O   UNL     1       8.349  -2.128  22.200  0.00  0.00    -0.249 OA
BRANCH  13  15
ATOM     15  O   UNL     1       9.627  -0.849  20.868  0.00  0.00    -0.479 OA
ATOM     16  H   UNL     1       8.990  -1.069  20.152  0.00  0.00    +0.295 HD
ENDBRANCH  13  15
ENDBRANCH   3  13
TORSDOF 5
ENDMDL
MODEL 9
REMARK VINA RESULT:      -4.5      3.189      5.418
REMARK  Name = 
REMARK  6 active torsions:
REMARK  status: ('A' for Active; 'I' for Inactive)
REMARK    1  A    between atoms: C_1  and  C_2
REMARK    2  A    between atoms: C_2  and  C_4
REMARK    3  A    between atoms: C_2  and  C_6
REMARK    4  A    between atoms: C_4  and  S_5
REMARK    5  A    between atoms: C_12  and  C_14
REMARK    6  A    between atoms: C_14  and  O_15
REMARK                            x       y       z     vdW  Elec       q    Type
REMARK                         _______ _______ _______ _____ _____    ______ ____
ROOT
ATOM      1  C   UNL     1       7.976  -1.270  23.371  0.00  0.00    +0.220 C 
ATOM      2  N   UNL     1       8.352  -0.025  22.939  0.00  0.00    -0.288 N 
ATOM      3  C   UNL     1       9.751   0.451  23.031  0.00  0.00    +0.184 C 
ATOM      4  C   UNL     1       9.807   1.654  22.077  0.00  0.00    +0.035 C 
ATOM      5  C   UNL     1       8.445   1.710  21.389  0.00  0.00    +0.021 C 
ATOM      6  C   UNL     1       7.510   0.996  22.343  0.00  0.00    +0.109 C 
ATOM      7  O   UNL     1       8.801  -1.946  23.993  0.00  0.00    -0.275 OA
ENDROOT
BRANCH   1   9
ATOM      8  C   UNL     1       5.879  -2.027  24.469  0.00  0.00    +0.018 C 
ATOM      9  C   UNL     1       6.558  -1.773  23.116  0.00  0.00    +0.082 C 
BRANCH   9  10
ATOM     10  C   UNL     1       6.628  -3.031  22.239  0.00  0.00    +0.078 C 
BRANCH  10  11
ATOM     11  S   UNL     1       6.442  -4.587  23.175  0.00  0.00    -0.178 S 
ATOM     12  H   UNL     1       5.181  -4.854  22.797  0.00  0.00    +0.102 HD
ENDBRANCH  10  11
ENDBRANCH   9  10
ENDBRANCH   1   9
BRANCH   3  13
ATOM     13  C   UNL     1      10.221   0.860  24.446  0.00  0.00    +0.325 C 
ATOM     14  O   UNL     1      11.308   0.546  24.920  0.00  0.00    -0.249 OA
BRANCH  13  15
ATOM     15  O   UNL     1       9.301   1.520  25.183  0.00  0.00    -0.479 OA
ATOM     16  H   UNL     1       9.338   2.489  25.023  0.00  0.00    +0.295 HD
ENDBRANCH  13  15
ENDBRANCH   3  13
TORSDOF 5
ENDMDL
