MODEL 1
REMARK VINA RESULT:      -7.4      0.000      0.000
REMARK  Name = 
REMARK  9 active torsions:
REMARK  status: ('A' for Active; 'I' for Inactive)
REMARK    1  A    between atoms: C_2  and  N_3
REMARK    2  A    between atoms: C_2  and  C_4
REMARK    3  A    between atoms: C_2  and  C_13
REMARK    4  A    between atoms: C_13  and  C_15
REMARK    5  A    between atoms: C_13  and  C_19
REMARK    6  A    between atoms: C_15  and  C_16
REMARK    7  A    between atoms: C_22  and  C_26
REMARK    8  A    between atoms: C_29  and  S_33
REMARK    9  A    between atoms: S_33  and  C_34
REMARK                            x       y       z     vdW  Elec       q    Type
REMARK                         _______ _______ _______ _____ _____    ______ ____
ROOT
ATOM      1  C   UNL     1       9.734  -2.387  23.626  0.00  0.00    +0.216 C 
ATOM      2  O   UNL     1       9.612  -2.114  22.231  0.00  0.00    -0.279 OA
ATOM      3  N   UNL     1       8.942  -0.821  22.092  0.00  0.00    -0.178 NA
ATOM      4  H   UNL     1       9.646  -0.303  21.562  0.00  0.00    +0.156 HD
ATOM      5  C   UNL     1       8.845  -0.298  23.448  0.00  0.00    +0.183 C 
ATOM      6  N   UNL     1       9.777  -1.072  24.261  0.00  0.00    -0.269 NA
ATOM      7  H   UNL     1      10.703  -0.706  24.064  0.00  0.00    +0.126 HD
ENDROOT
BRANCH   5   8
ATOM      8  C   UNL     1       9.111   1.186  23.529  0.00  0.00    +0.021 A 
ATOM      9  C   UNL     1       8.069   2.058  23.869  0.00  0.00    +0.131 A 
ATOM     10  F   UNL     1       6.839   1.580  24.093  0.00  0.00    -0.205 F 
ATOM     11  C   UNL     1       8.276   3.427  24.003  0.00  0.00    +0.065 A 
ATOM     12  C   UNL     1       9.554   3.943  23.790  0.00  0.00    +0.091 A 
ATOM     13  C   UNL     1      10.615   3.102  23.442  0.00  0.00    +0.027 A 
ATOM     14  C   UNL     1      10.390   1.730  23.307  0.00  0.00    +0.011 A 
BRANCH  12  15
ATOM     15  S   UNL     1       9.861   5.670  24.072  0.00  0.00    -0.006 S 
ATOM     16  O   UNL     1       9.576   5.930  25.467  0.00  0.00    -0.170 OA
ATOM     17  O   UNL     1       9.189   6.403  23.021  0.00  0.00    -0.170 OA
ATOM     18  C   UNL     1      11.609   5.827  23.828  0.00  0.00    +0.200 C 
ENDBRANCH  12  15
ENDBRANCH   5   8
BRANCH   1  19
ATOM     19  C   UNL     1       8.595  -3.309  24.139  0.00  0.00    +0.061 C 
BRANCH  19  20
ATOM     20  C   UNL     1       9.100  -4.189  25.330  0.00  0.00    +0.145 C 
BRANCH  20  21
ATOM     21  C   UNL     1       7.888  -4.618  26.202  0.00  0.00    +0.233 C 
ATOM     22  N   UNL     1       6.970  -3.625  26.482  0.00  0.00    -0.297 N 
ATOM     23  C   UNL     1       7.262  -2.216  26.706  0.00  0.00    +0.144 C 
ATOM     24  C   UNL     1       5.899  -1.541  26.825  0.00  0.00    +0.185 C 
ATOM     25  F   UNL     1       5.751  -0.621  25.837  0.00  0.00    -0.244 F 
ATOM     26  C   UNL     1       4.876  -2.654  26.623  0.00  0.00    +0.057 C 
ATOM     27  C   UNL     1       5.638  -3.924  26.956  0.00  0.00    +0.111 C 
ATOM     28  O   UNL     1       7.698  -5.782  26.554  0.00  0.00    -0.274 OA
ENDBRANCH  20  21
BRANCH  20  29
ATOM     29  N   UNL     1       9.898  -5.359  24.904  0.00  0.00    -0.320 NA
ATOM     30  H   UNL     1      10.611  -5.062  24.241  0.00  0.00    +0.119 HD
ATOM     31  H   UNL     1      10.400  -5.720  25.717  0.00  0.00    +0.119 HD
ENDBRANCH  20  29
ENDBRANCH  19  20
BRANCH  19  32
ATOM     32  C   UNL     1       7.976  -4.188  23.004  0.00  0.00    +0.013 C 
BRANCH  32  33
ATOM     33  C   UNL     1       6.683  -3.666  22.423  0.00  0.00    -0.010 C 
ATOM     34  C   UNL     1       5.905  -2.578  23.113  0.00  0.00    +0.004 C 
ATOM     35  C   UNL     1       5.357  -3.978  23.066  0.00  0.00    +0.004 C 
ENDBRANCH  32  33
ENDBRANCH  19  32
ENDBRANCH   1  19
TORSDOF 8
ENDMDL
MODEL 2
REMARK VINA RESULT:      -7.4      2.971      5.711
REMARK  Name = 
REMARK  9 active torsions:
REMARK  status: ('A' for Active; 'I' for Inactive)
REMARK    1  A    between atoms: C_2  and  N_3
REMARK    2  A    between atoms: C_2  and  C_4
REMARK    3  A    between atoms: C_2  and  C_13
REMARK    4  A    between atoms: C_13  and  C_15
REMARK    5  A    between atoms: C_13  and  C_19
REMARK    6  A    between atoms: C_15  and  C_16
REMARK    7  A    between atoms: C_22  and  C_26
REMARK    8  A    between atoms: C_29  and  S_33
REMARK    9  A    between atoms: S_33  and  C_34
REMARK                            x       y       z     vdW  Elec       q    Type
REMARK                         _______ _______ _______ _____ _____    ______ ____
ROOT
ATOM      1  C   UNL     1       6.235  -5.289  27.718  0.00  0.00    +0.216 C 
ATOM      2  O   UNL     1       7.550  -5.824  27.854  0.00  0.00    -0.279 OA
ATOM      3  N   UNL     1       8.351  -5.315  26.741  0.00  0.00    -0.178 NA
ATOM      4  H   UNL     1       9.098  -4.838  27.252  0.00  0.00    +0.156 HD
ATOM      5  C   UNL     1       7.496  -4.344  26.073  0.00  0.00    +0.183 C 
ATOM      6  N   UNL     1       6.419  -4.026  27.005  0.00  0.00    -0.269 NA
ATOM      7  H   UNL     1       6.809  -3.385  27.687  0.00  0.00    +0.126 HD
ENDROOT
BRANCH   5   8
ATOM      8  C   UNL     1       8.243  -3.111  25.621  0.00  0.00    +0.021 A 
ATOM      9  C   UNL     1       9.007  -3.157  24.448  0.00  0.00    +0.131 A 
ATOM     10  F   UNL     1       9.097  -4.295  23.748  0.00  0.00    -0.205 F 
ATOM     11  C   UNL     1       9.673  -2.035  23.965  0.00  0.00    +0.065 A 
ATOM     12  C   UNL     1       9.578  -0.836  24.670  0.00  0.00    +0.091 A 
ATOM     13  C   UNL     1       8.830  -0.757  25.849  0.00  0.00    +0.027 A 
ATOM     14  C   UNL     1       8.171  -1.893  26.323  0.00  0.00    +0.011 A 
BRANCH  12  15
ATOM     15  S   UNL     1      10.325   0.633  24.007  0.00  0.00    -0.006 S 
ATOM     16  O   UNL     1      10.199   0.559  22.567  0.00  0.00    -0.170 OA
ATOM     17  O   UNL     1      11.618   0.781  24.639  0.00  0.00    -0.170 OA
ATOM     18  C   UNL     1       9.270   1.934  24.587  0.00  0.00    +0.200 C 
ENDBRANCH  12  15
ENDBRANCH   5   8
BRANCH   1  19
ATOM     19  C   UNL     1       5.272  -6.285  27.018  0.00  0.00    +0.061 C 
BRANCH  19  20
ATOM     20  C   UNL     1       4.397  -5.542  25.955  0.00  0.00    +0.145 C 
BRANCH  20  21
ATOM     21  C   UNL     1       4.635  -6.178  24.557  0.00  0.00    +0.233 C 
ATOM     22  N   UNL     1       5.076  -5.313  23.573  0.00  0.00    -0.297 N 
ATOM     23  C   UNL     1       4.699  -3.915  23.419  0.00  0.00    +0.144 C 
ATOM     24  C   UNL     1       5.570  -3.392  22.281  0.00  0.00    +0.185 C 
ATOM     25  F   UNL     1       6.368  -2.390  22.732  0.00  0.00    -0.244 F 
ATOM     26  C   UNL     1       6.443  -4.571  21.863  0.00  0.00    +0.057 C 
ATOM     27  C   UNL     1       5.680  -5.789  22.350  0.00  0.00    +0.111 C 
ATOM     28  O   UNL     1       4.528  -7.385  24.346  0.00  0.00    -0.274 OA
ENDBRANCH  20  21
BRANCH  20  29
ATOM     29  N   UNL     1       2.958  -5.509  26.293  0.00  0.00    -0.320 NA
ATOM     30  H   UNL     1       2.829  -5.788  27.263  0.00  0.00    +0.119 HD
ATOM     31  H   UNL     1       2.634  -4.542  26.232  0.00  0.00    +0.119 HD
ENDBRANCH  20  29
ENDBRANCH  19  20
BRANCH  19  32
ATOM     32  C   UNL     1       4.386  -7.077  28.032  0.00  0.00    +0.013 C 
BRANCH  32  33
ATOM     33  C   UNL     1       4.386  -6.535  29.442  0.00  0.00    -0.010 C 
ATOM     34  C   UNL     1       3.448  -7.081  30.485  0.00  0.00    +0.004 C 
ATOM     35  C   UNL     1       3.251  -5.688  29.953  0.00  0.00    +0.004 C 
ENDBRANCH  32  33
ENDBRANCH  19  32
ENDBRANCH   1  19
TORSDOF 8
ENDMDL
MODEL 3
REMARK VINA RESULT:      -7.0      2.294      4.099
REMARK  Name = 
REMARK  9 active torsions:
REMARK  status: ('A' for Active; 'I' for Inactive)
REMARK    1  A    between atoms: C_2  and  N_3
REMARK    2  A    between atoms: C_2  and  C_4
REMARK    3  A    between atoms: C_2  and  C_13
REMARK    4  A    between atoms: C_13  and  C_15
REMARK    5  A    between atoms: C_13  and  C_19
REMARK    6  A    between atoms: C_15  and  C_16
REMARK    7  A    between atoms: C_22  and  C_26
REMARK    8  A    between atoms: C_29  and  S_33
REMARK    9  A    between atoms: S_33  and  C_34
REMARK                            x       y       z     vdW  Elec       q    Type
REMARK                         _______ _______ _______ _____ _____    ______ ____
ROOT
ATOM      1  C   UNL     1       5.725  -1.879  23.815  0.00  0.00    +0.216 C 
ATOM      2  O   UNL     1       4.900  -1.382  24.867  0.00  0.00    -0.279 OA
ATOM      3  N   UNL     1       5.508  -0.145  25.357  0.00  0.00    -0.178 NA
ATOM      4  H   UNL     1       4.740   0.513  25.201  0.00  0.00    +0.156 HD
ATOM      5  C   UNL     1       6.602   0.129  24.437  0.00  0.00    +0.183 C 
ATOM      6  N   UNL     1       6.368  -0.693  23.254  0.00  0.00    -0.269 NA
ATOM      7  H   UNL     1       5.647  -0.223  22.716  0.00  0.00    +0.126 HD
ENDROOT
BRANCH   5   8
ATOM      8  C   UNL     1       6.737   1.594  24.099  0.00  0.00    +0.021 A 
ATOM      9  C   UNL     1       7.719   2.364  24.736  0.00  0.00    +0.131 A 
ATOM     10  F   UNL     1       8.513   1.809  25.661  0.00  0.00    -0.205 F 
ATOM     11  C   UNL     1       7.913   3.705  24.423  0.00  0.00    +0.065 A 
ATOM     12  C   UNL     1       7.107   4.297  23.452  0.00  0.00    +0.091 A 
ATOM     13  C   UNL     1       6.113   3.561  22.801  0.00  0.00    +0.027 A 
ATOM     14  C   UNL     1       5.928   2.216  23.129  0.00  0.00    +0.011 A 
BRANCH  12  15
ATOM     15  S   UNL     1       7.419   5.975  22.957  0.00  0.00    -0.006 S 
ATOM     16  O   UNL     1       6.572   6.822  23.769  0.00  0.00    -0.170 OA
ATOM     17  O   UNL     1       7.355   6.016  21.512  0.00  0.00    -0.170 OA
ATOM     18  C   UNL     1       9.101   6.247  23.446  0.00  0.00    +0.200 C 
ENDBRANCH  12  15
ENDBRANCH   5   8
BRANCH   1  19
ATOM     19  C   UNL     1       6.713  -2.966  24.315  0.00  0.00    +0.061 C 
BRANCH  19  20
ATOM     20  C   UNL     1       7.704  -3.370  23.174  0.00  0.00    +0.145 C 
BRANCH  20  21
ATOM     21  C   UNL     1       9.131  -2.867  23.530  0.00  0.00    +0.233 C 
ATOM     22  N   UNL     1       9.495  -1.656  22.972  0.00  0.00    -0.297 N 
ATOM     23  C   UNL     1       9.112  -1.160  21.657  0.00  0.00    +0.144 C 
ATOM     24  C   UNL     1       9.652   0.266  21.598  0.00  0.00    +0.185 C 
ATOM     25  F   UNL     1       8.626   1.143  21.443  0.00  0.00    -0.244 F 
ATOM     26  C   UNL     1      10.310   0.508  22.953  0.00  0.00    +0.057 C 
ATOM     27  C   UNL     1      10.610  -0.886  23.474  0.00  0.00    +0.111 C 
ATOM     28  O   UNL     1       9.866  -3.451  24.323  0.00  0.00    -0.274 OA
ENDBRANCH  20  21
BRANCH  20  29
ATOM     29  N   UNL     1       7.703  -4.818  22.875  0.00  0.00    -0.320 NA
ATOM     30  H   UNL     1       8.628  -5.204  23.056  0.00  0.00    +0.119 HD
ATOM     31  H   UNL     1       7.070  -5.282  23.528  0.00  0.00    +0.119 HD
ENDBRANCH  20  29
ENDBRANCH  19  20
BRANCH  19  32
ATOM     32  C   UNL     1       5.983  -4.217  24.904  0.00  0.00    +0.013 C 
BRANCH  32  33
ATOM     33  C   UNL     1       6.233  -4.472  26.372  0.00  0.00    -0.010 C 
ATOM     34  C   UNL     1       7.456  -5.215  26.834  0.00  0.00    +0.004 C 
ATOM     35  C   UNL     1       6.100  -5.853  26.957  0.00  0.00    +0.004 C 
ENDBRANCH  32  33
ENDBRANCH  19  32
ENDBRANCH   1  19
TORSDOF 8
ENDMDL
MODEL 4
REMARK VINA RESULT:      -6.9      3.462      7.805
REMARK  Name = 
REMARK  9 active torsions:
REMARK  status: ('A' for Active; 'I' for Inactive)
REMARK    1  A    between atoms: C_2  and  N_3
REMARK    2  A    between atoms: C_2  and  C_4
REMARK    3  A    between atoms: C_2  and  C_13
REMARK    4  A    between atoms: C_13  and  C_15
REMARK    5  A    between atoms: C_13  and  C_19
REMARK    6  A    between atoms: C_15  and  C_16
REMARK    7  A    between atoms: C_22  and  C_26
REMARK    8  A    between atoms: C_29  and  S_33
REMARK    9  A    between atoms: S_33  and  C_34
REMARK                            x       y       z     vdW  Elec       q    Type
REMARK                         _______ _______ _______ _____ _____    ______ ____
ROOT
ATOM      1  C   UNL     1       7.171   2.190  24.956  0.00  0.00    +0.216 C 
ATOM      2  O   UNL     1       5.746   2.199  24.910  0.00  0.00    -0.279 OA
ATOM      3  N   UNL     1       5.309   0.861  24.508  0.00  0.00    -0.178 NA
ATOM      4  H   UNL     1       4.724   0.609  25.307  0.00  0.00    +0.156 HD
ATOM      5  C   UNL     1       6.522   0.056  24.495  0.00  0.00    +0.183 C 
ATOM      6  N   UNL     1       7.527   0.803  25.246  0.00  0.00    -0.269 NA
ATOM      7  H   UNL     1       7.310   0.668  26.228  0.00  0.00    +0.126 HD
ENDROOT
BRANCH   5   8
ATOM      8  C   UNL     1       6.314  -1.334  25.045  0.00  0.00    +0.021 A 
ATOM      9  C   UNL     1       5.906  -2.364  24.187  0.00  0.00    +0.131 A 
ATOM     10  F   UNL     1       5.675  -2.109  22.893  0.00  0.00    -0.205 F 
ATOM     11  C   UNL     1       5.747  -3.671  24.637  0.00  0.00    +0.065 A 
ATOM     12  C   UNL     1       5.998  -3.960  25.978  0.00  0.00    +0.091 A 
ATOM     13  C   UNL     1       6.400  -2.955  26.863  0.00  0.00    +0.027 A 
ATOM     14  C   UNL     1       6.551  -1.648  26.397  0.00  0.00    +0.011 A 
BRANCH  12  15
ATOM     15  S   UNL     1       5.915  -5.643  26.542  0.00  0.00    -0.006 S 
ATOM     16  O   UNL     1       7.236  -5.999  27.013  0.00  0.00    -0.170 OA
ATOM     17  O   UNL     1       5.256  -6.411  25.507  0.00  0.00    -0.170 OA
ATOM     18  C   UNL     1       4.833  -5.558  27.943  0.00  0.00    +0.200 C 
ENDBRANCH  12  15
ENDBRANCH   5   8
BRANCH   1  19
ATOM     19  C   UNL     1       7.797   2.752  23.651  0.00  0.00    +0.061 C 
BRANCH  19  20
ATOM     20  C   UNL     1       9.252   2.206  23.465  0.00  0.00    +0.145 C 
BRANCH  20  21
ATOM     21  C   UNL     1       9.282   1.224  22.261  0.00  0.00    +0.233 C 
ATOM     22  N   UNL     1       9.453  -0.109  22.580  0.00  0.00    -0.297 N 
ATOM     23  C   UNL     1      10.261  -0.641  23.668  0.00  0.00    +0.144 C 
ATOM     24  C   UNL     1       9.989  -2.142  23.668  0.00  0.00    +0.185 C 
ATOM     25  F   UNL     1       9.431  -2.512  24.850  0.00  0.00    -0.244 F 
ATOM     26  C   UNL     1       8.978  -2.372  22.549  0.00  0.00    +0.057 C 
ATOM     27  C   UNL     1       9.147  -1.166  21.643  0.00  0.00    +0.111 C 
ATOM     28  O   UNL     1       9.081   1.583  21.101  0.00  0.00    -0.274 OA
ENDBRANCH  20  21
BRANCH  20  29
ATOM     29  N   UNL     1      10.268   3.270  23.317  0.00  0.00    -0.320 NA
ATOM     30  H   UNL     1       9.927   4.129  23.744  0.00  0.00    +0.119 HD
ATOM     31  H   UNL     1      11.097   2.999  23.848  0.00  0.00    +0.119 HD
ENDBRANCH  20  29
ENDBRANCH  19  20
BRANCH  19  32
ATOM     32  C   UNL     1       7.763   4.314  23.592  0.00  0.00    +0.013 C 
BRANCH  32  33
ATOM     33  C   UNL     1       7.043   4.894  22.398  0.00  0.00    -0.010 C 
ATOM     34  C   UNL     1       7.354   6.279  21.900  0.00  0.00    +0.004 C 
ATOM     35  C   UNL     1       6.032   5.998  22.558  0.00  0.00    +0.004 C 
ENDBRANCH  32  33
ENDBRANCH  19  32
ENDBRANCH   1  19
TORSDOF 8
ENDMDL
MODEL 5
REMARK VINA RESULT:      -6.8      1.406      1.868
REMARK  Name = 
REMARK  9 active torsions:
REMARK  status: ('A' for Active; 'I' for Inactive)
REMARK    1  A    between atoms: C_2  and  N_3
REMARK    2  A    between atoms: C_2  and  C_4
REMARK    3  A    between atoms: C_2  and  C_13
REMARK    4  A    between atoms: C_13  and  C_15
REMARK    5  A    between atoms: C_13  and  C_19
REMARK    6  A    between atoms: C_15  and  C_16
REMARK    7  A    between atoms: C_22  and  C_26
REMARK    8  A    between atoms: C_29  and  S_33
REMARK    9  A    between atoms: S_33  and  C_34
REMARK                            x       y       z     vdW  Elec       q    Type
REMARK                         _______ _______ _______ _____ _____    ______ ____
ROOT
ATOM      1  C   UNL     1       9.392  -2.758  24.170  0.00  0.00    +0.216 C 
ATOM      2  O   UNL     1       9.273  -2.454  22.782  0.00  0.00    -0.279 OA
ATOM      3  N   UNL     1       8.584  -1.168  22.670  0.00  0.00    -0.178 NA
ATOM      4  H   UNL     1       9.283  -0.627  22.156  0.00  0.00    +0.156 HD
ATOM      5  C   UNL     1       8.472  -0.679  24.036  0.00  0.00    +0.183 C 
ATOM      6  N   UNL     1       9.411  -1.458  24.837  0.00  0.00    -0.269 NA
ATOM      7  H   UNL     1      10.332  -1.074  24.654  0.00  0.00    +0.126 HD
ENDROOT
BRANCH   5   8
ATOM      8  C   UNL     1       8.714   0.807  24.155  0.00  0.00    +0.021 A 
ATOM      9  C   UNL     1       9.978   1.328  23.847  0.00  0.00    +0.131 A 
ATOM     10  F   UNL     1      10.971   0.509  23.479  0.00  0.00    -0.205 F 
ATOM     11  C   UNL     1      10.236   2.694  23.895  0.00  0.00    +0.065 A 
ATOM     12  C   UNL     1       9.210   3.564  24.261  0.00  0.00    +0.091 A 
ATOM     13  C   UNL     1       7.940   3.078  24.581  0.00  0.00    +0.027 A 
ATOM     14  C   UNL     1       7.697   1.703  24.532  0.00  0.00    +0.011 A 
BRANCH  12  15
ATOM     15  S   UNL     1       9.490   5.318  24.213  0.00  0.00    -0.006 S 
ATOM     16  O   UNL     1      10.771   5.527  23.573  0.00  0.00    -0.170 OA
ATOM     17  O   UNL     1       9.224   5.832  25.540  0.00  0.00    -0.170 OA
ATOM     18  C   UNL     1       8.225   5.912  23.123  0.00  0.00    +0.200 C 
ENDBRANCH  12  15
ENDBRANCH   5   8
BRANCH   1  19
ATOM     19  C   UNL     1       8.264  -3.709  24.654  0.00  0.00    +0.061 C 
BRANCH  19  20
ATOM     20  C   UNL     1       8.531  -4.166  26.127  0.00  0.00    +0.145 C 
BRANCH  20  21
ATOM     21  C   UNL     1       7.245  -4.821  26.703  0.00  0.00    +0.233 C 
ATOM     22  N   UNL     1       6.122  -4.016  26.727  0.00  0.00    -0.297 N 
ATOM     23  C   UNL     1       6.093  -2.580  26.969  0.00  0.00    +0.144 C 
ATOM     24  C   UNL     1       4.642  -2.168  26.741  0.00  0.00    +0.185 C 
ATOM     25  F   UNL     1       4.568  -1.279  25.717  0.00  0.00    -0.244 F 
ATOM     26  C   UNL     1       3.915  -3.448  26.340  0.00  0.00    +0.057 C 
ATOM     27  C   UNL     1       4.793  -4.560  26.884  0.00  0.00    +0.111 C 
ATOM     28  O   UNL     1       7.190  -6.004  27.038  0.00  0.00    -0.274 OA
ENDBRANCH  20  21
BRANCH  20  29
ATOM     29  N   UNL     1       9.699  -5.062  26.265  0.00  0.00    -0.320 NA
ATOM     30  H   UNL     1      10.527  -4.604  25.888  0.00  0.00    +0.119 HD
ATOM     31  H   UNL     1       9.882  -5.202  27.260  0.00  0.00    +0.119 HD
ENDBRANCH  20  29
ENDBRANCH  19  20
BRANCH  19  32
ATOM     32  C   UNL     1       8.063  -4.935  23.705  0.00  0.00    +0.013 C 
BRANCH  32  33
ATOM     33  C   UNL     1       6.772  -4.931  22.920  0.00  0.00    -0.010 C 
ATOM     34  C   UNL     1       5.789  -6.063  23.036  0.00  0.00    +0.004 C 
ATOM     35  C   UNL     1       6.562  -5.869  21.761  0.00  0.00    +0.004 C 
ENDBRANCH  32  33
ENDBRANCH  19  32
ENDBRANCH   1  19
TORSDOF 8
ENDMDL
MODEL 6
REMARK VINA RESULT:      -6.8      3.070      7.652
REMARK  Name = 
REMARK  9 active torsions:
REMARK  status: ('A' for Active; 'I' for Inactive)
REMARK    1  A    between atoms: C_2  and  N_3
REMARK    2  A    between atoms: C_2  and  C_4
REMARK    3  A    between atoms: C_2  and  C_13
REMARK    4  A    between atoms: C_13  and  C_15
REMARK    5  A    between atoms: C_13  and  C_19
REMARK    6  A    between atoms: C_15  and  C_16
REMARK    7  A    between atoms: C_22  and  C_26
REMARK    8  A    between atoms: C_29  and  S_33
REMARK    9  A    between atoms: S_33  and  C_34
REMARK                            x       y       z     vdW  Elec       q    Type
REMARK                         _______ _______ _______ _____ _____    ______ ____
ROOT
ATOM      1  C   UNL     1      10.374   1.692  23.340  0.00  0.00    +0.216 C 
ATOM      2  O   UNL     1      11.414   1.190  24.177  0.00  0.00    -0.279 OA
ATOM      3  N   UNL     1      10.787   0.370  25.214  0.00  0.00    -0.178 NA
ATOM      4  H   UNL     1      11.253  -0.526  25.049  0.00  0.00    +0.156 HD
ATOM      5  C   UNL     1       9.385   0.288  24.835  0.00  0.00    +0.183 C 
ATOM      6  N   UNL     1       9.305   0.701  23.437  0.00  0.00    -0.269 NA
ATOM      7  H   UNL     1       9.619  -0.091  22.885  0.00  0.00    +0.126 HD
ENDROOT
BRANCH   5   8
ATOM      8  C   UNL     1       8.791  -1.082  25.061  0.00  0.00    +0.021 A 
ATOM      9  C   UNL     1       8.509  -1.508  26.365  0.00  0.00    +0.131 A 
ATOM     10  F   UNL     1       8.792  -0.715  27.406  0.00  0.00    -0.205 F 
ATOM     11  C   UNL     1       7.918  -2.741  26.621  0.00  0.00    +0.065 A 
ATOM     12  C   UNL     1       7.601  -3.574  25.549  0.00  0.00    +0.091 A 
ATOM     13  C   UNL     1       7.875  -3.184  24.235  0.00  0.00    +0.027 A 
ATOM     14  C   UNL     1       8.472  -1.945  23.995  0.00  0.00    +0.011 A 
BRANCH  12  15
ATOM     15  S   UNL     1       6.740  -5.099  25.849  0.00  0.00    -0.006 S 
ATOM     16  O   UNL     1       7.652  -5.969  26.559  0.00  0.00    -0.170 OA
ATOM     17  O   UNL     1       6.139  -5.506  24.597  0.00  0.00    -0.170 OA
ATOM     18  C   UNL     1       5.442  -4.632  26.962  0.00  0.00    +0.200 C 
ENDBRANCH  12  15
ENDBRANCH   5   8
BRANCH   1  19
ATOM     19  C   UNL     1       9.951   3.131  23.740  0.00  0.00    +0.061 C 
BRANCH  19  20
ATOM     20  C   UNL     1       8.409   3.319  23.550  0.00  0.00    +0.145 C 
BRANCH  20  21
ATOM     21  C   UNL     1       7.748   3.569  24.934  0.00  0.00    +0.233 C 
ATOM     22  N   UNL     1       6.852   2.604  25.353  0.00  0.00    -0.297 N 
ATOM     23  C   UNL     1       5.946   1.840  24.506  0.00  0.00    +0.144 C 
ATOM     24  C   UNL     1       5.294   0.823  25.438  0.00  0.00    +0.185 C 
ATOM     25  F   UNL     1       5.598  -0.438  25.032  0.00  0.00    -0.244 F 
ATOM     26  C   UNL     1       5.920   1.067  26.808  0.00  0.00    +0.057 C 
ATOM     27  C   UNL     1       6.435   2.493  26.732  0.00  0.00    +0.111 C 
ATOM     28  O   UNL     1       8.056   4.513  25.660  0.00  0.00    -0.274 OA
ENDBRANCH  20  21
BRANCH  20  29
ATOM     29  N   UNL     1       8.057   4.383  22.586  0.00  0.00    -0.320 NA
ATOM     30  H   UNL     1       7.602   5.150  23.075  0.00  0.00    +0.119 HD
ATOM     31  H   UNL     1       8.921   4.766  22.199  0.00  0.00    +0.119 HD
ENDBRANCH  20  29
ENDBRANCH  19  20
BRANCH  19  32
ATOM     32  C   UNL     1      10.757   4.229  22.973  0.00  0.00    +0.013 C 
BRANCH  32  33
ATOM     33  C   UNL     1      12.110   4.556  23.558  0.00  0.00    -0.010 C 
ATOM     34  C   UNL     1      12.461   5.961  23.969  0.00  0.00    +0.004 C 
ATOM     35  C   UNL     1      13.131   5.339  22.775  0.00  0.00    +0.004 C 
ENDBRANCH  32  33
ENDBRANCH  19  32
ENDBRANCH   1  19
TORSDOF 8
ENDMDL
MODEL 7
REMARK VINA RESULT:      -6.5      3.260      7.941
REMARK  Name = 
REMARK  9 active torsions:
REMARK  status: ('A' for Active; 'I' for Inactive)
REMARK    1  A    between atoms: C_2  and  N_3
REMARK    2  A    between atoms: C_2  and  C_4
REMARK    3  A    between atoms: C_2  and  C_13
REMARK    4  A    between atoms: C_13  and  C_15
REMARK    5  A    between atoms: C_13  and  C_19
REMARK    6  A    between atoms: C_15  and  C_16
REMARK    7  A    between atoms: C_22  and  C_26
REMARK    8  A    between atoms: C_29  and  S_33
REMARK    9  A    between atoms: S_33  and  C_34
REMARK                            x       y       z     vdW  Elec       q    Type
REMARK                         _______ _______ _______ _____ _____    ______ ____
ROOT
ATOM      1  C   UNL     1      10.385   0.767  23.587  0.00  0.00    +0.216 C 
ATOM      2  O   UNL     1      10.573   0.269  24.910  0.00  0.00    -0.279 OA
ATOM      3  N   UNL     1       9.333  -0.396  25.311  0.00  0.00    -0.178 NA
ATOM      4  H   UNL     1       9.683  -1.337  25.509  0.00  0.00    +0.156 HD
ATOM      5  C   UNL     1       8.506  -0.407  24.113  0.00  0.00    +0.183 C 
ATOM      6  N   UNL     1       9.394  -0.126  22.990  0.00  0.00    -0.269 NA
ATOM      7  H   UNL     1       9.890  -0.989  22.793  0.00  0.00    +0.126 HD
ENDROOT
BRANCH   5   8
ATOM      8  C   UNL     1       7.745  -1.699  23.932  0.00  0.00    +0.021 A 
ATOM      9  C   UNL     1       6.352  -1.708  24.075  0.00  0.00    +0.131 A 
ATOM     10  F   UNL     1       5.703  -0.582  24.398  0.00  0.00    -0.205 F 
ATOM     11  C   UNL     1       5.603  -2.862  23.870  0.00  0.00    +0.065 A 
ATOM     12  C   UNL     1       6.260  -4.040  23.517  0.00  0.00    +0.091 A 
ATOM     13  C   UNL     1       7.650  -4.069  23.373  0.00  0.00    +0.027 A 
ATOM     14  C   UNL     1       8.388  -2.903  23.586  0.00  0.00    +0.011 A 
BRANCH  12  15
ATOM     15  S   UNL     1       5.310  -5.493  23.138  0.00  0.00    -0.006 S 
ATOM     16  O   UNL     1       6.176  -6.387  22.400  0.00  0.00    -0.170 OA
ATOM     17  O   UNL     1       4.047  -5.050  22.587  0.00  0.00    -0.170 OA
ATOM     18  C   UNL     1       4.999  -6.214  24.728  0.00  0.00    +0.200 C 
ENDBRANCH  12  15
ENDBRANCH   5   8
BRANCH   1  19
ATOM     19  C   UNL     1       9.982   2.266  23.581  0.00  0.00    +0.061 C 
BRANCH  19  20
ATOM     20  C   UNL     1       8.559   2.446  22.956  0.00  0.00    +0.145 C 
BRANCH  20  21
ATOM     21  C   UNL     1       7.938   3.776  23.466  0.00  0.00    +0.233 C 
ATOM     22  N   UNL     1       7.461   3.756  24.762  0.00  0.00    -0.297 N 
ATOM     23  C   UNL     1       6.826   2.630  25.432  0.00  0.00    +0.144 C 
ATOM     24  C   UNL     1       6.627   3.086  26.875  0.00  0.00    +0.185 C 
ATOM     25  F   UNL     1       7.324   2.279  27.716  0.00  0.00    -0.244 F 
ATOM     26  C   UNL     1       7.212   4.493  26.940  0.00  0.00    +0.057 C 
ATOM     27  C   UNL     1       7.193   4.970  25.499  0.00  0.00    +0.111 C 
ATOM     28  O   UNL     1       7.944   4.812  22.803  0.00  0.00    -0.274 OA
ENDBRANCH  20  21
BRANCH  20  29
ATOM     29  N   UNL     1       8.549   2.378  21.479  0.00  0.00    -0.320 NA
ATOM     30  H   UNL     1       9.484   2.158  21.142  0.00  0.00    +0.119 HD
ATOM     31  H   UNL     1       7.954   1.598  21.196  0.00  0.00    +0.119 HD
ENDBRANCH  20  29
ENDBRANCH  19  20
BRANCH  19  32
ATOM     32  C   UNL     1      11.037   3.169  22.864  0.00  0.00    +0.013 C 
BRANCH  32  33
ATOM     33  C   UNL     1      11.619   4.273  23.716  0.00  0.00    -0.010 C 
ATOM     34  C   UNL     1      11.399   5.720  23.370  0.00  0.00    +0.004 C 
ATOM     35  C   UNL     1      12.767   5.114  23.225  0.00  0.00    +0.004 C 
ENDBRANCH  32  33
ENDBRANCH  19  32
ENDBRANCH   1  19
TORSDOF 8
ENDMDL
MODEL 8
REMARK VINA RESULT:      -6.3      3.387      7.536
REMARK  Name = 
REMARK  9 active torsions:
REMARK  status: ('A' for Active; 'I' for Inactive)
REMARK    1  A    between atoms: C_2  and  N_3
REMARK    2  A    between atoms: C_2  and  C_4
REMARK    3  A    between atoms: C_2  and  C_13
REMARK    4  A    between atoms: C_13  and  C_15
REMARK    5  A    between atoms: C_13  and  C_19
REMARK    6  A    between atoms: C_15  and  C_16
REMARK    7  A    between atoms: C_22  and  C_26
REMARK    8  A    between atoms: C_29  and  S_33
REMARK    9  A    between atoms: S_33  and  C_34
REMARK                            x       y       z     vdW  Elec       q    Type
REMARK                         _______ _______ _______ _____ _____    ______ ____
ROOT
ATOM      1  C   UNL     1       7.523   2.822  22.245  0.00  0.00    +0.216 C 
ATOM      2  O   UNL     1       8.859   2.607  21.795  0.00  0.00    -0.279 OA
ATOM      3  N   UNL     1       9.423   1.516  22.591  0.00  0.00    -0.178 NA
ATOM      4  H   UNL     1       9.662   0.852  21.851  0.00  0.00    +0.156 HD
ATOM      5  C   UNL     1       8.310   1.012  23.382  0.00  0.00    +0.183 C 
ATOM      6  N   UNL     1       7.091   1.526  22.764  0.00  0.00    -0.269 NA
ATOM      7  H   UNL     1       6.919   0.951  21.946  0.00  0.00    +0.126 HD
ENDROOT
BRANCH   5   8
ATOM      8  C   UNL     1       8.301  -0.493  23.498  0.00  0.00    +0.021 A 
ATOM      9  C   UNL     1       9.013  -1.112  24.533  0.00  0.00    +0.131 A 
ATOM     10  F   UNL     1       9.720  -0.373  25.398  0.00  0.00    -0.205 F 
ATOM     11  C   UNL     1       8.997  -2.492  24.709  0.00  0.00    +0.065 A 
ATOM     12  C   UNL     1       8.253  -3.277  23.829  0.00  0.00    +0.091 A 
ATOM     13  C   UNL     1       7.537  -2.694  22.781  0.00  0.00    +0.027 A 
ATOM     14  C   UNL     1       7.567  -1.307  22.615  0.00  0.00    +0.011 A 
BRANCH  12  15
ATOM     15  S   UNL     1       8.126  -5.027  24.110  0.00  0.00    -0.006 S 
ATOM     16  O   UNL     1       9.443  -5.493  24.488  0.00  0.00    -0.170 OA
ATOM     17  O   UNL     1       7.427  -5.594  22.977  0.00  0.00    -0.170 OA
ATOM     18  C   UNL     1       7.071  -5.145  25.529  0.00  0.00    +0.200 C 
ENDBRANCH  12  15
ENDBRANCH   5   8
BRANCH   1  19
ATOM     19  C   UNL     1       7.436   3.984  23.271  0.00  0.00    +0.061 C 
BRANCH  19  20
ATOM     20  C   UNL     1       6.135   3.856  24.131  0.00  0.00    +0.145 C 
BRANCH  20  21
ATOM     21  C   UNL     1       6.521   3.640  25.620  0.00  0.00    +0.233 C 
ATOM     22  N   UNL     1       6.331   2.361  26.109  0.00  0.00    -0.297 N 
ATOM     23  C   UNL     1       5.259   1.446  25.741  0.00  0.00    +0.144 C 
ATOM     24  C   UNL     1       5.595   0.137  26.448  0.00  0.00    +0.185 C 
ATOM     25  F   UNL     1       5.787  -0.848  25.532  0.00  0.00    -0.244 F 
ATOM     26  C   UNL     1       6.908   0.395  27.181  0.00  0.00    +0.057 C 
ATOM     27  C   UNL     1       6.960   1.905  27.327  0.00  0.00    +0.111 C 
ATOM     28  O   UNL     1       7.046   4.515  26.308  0.00  0.00    -0.274 OA
ENDBRANCH  20  21
BRANCH  20  29
ATOM     29  N   UNL     1       5.209   4.999  23.976  0.00  0.00    -0.320 NA
ATOM     30  H   UNL     1       5.091   5.466  24.872  0.00  0.00    +0.119 HD
ATOM     31  H   UNL     1       5.644   5.683  23.355  0.00  0.00    +0.119 HD
ENDBRANCH  20  29
ENDBRANCH  19  20
BRANCH  19  32
ATOM     32  C   UNL     1       7.537   5.390  22.597  0.00  0.00    +0.013 C 
BRANCH  32  33
ATOM     33  C   UNL     1       8.738   6.211  23.005  0.00  0.00    -0.010 C 
ATOM     34  C   UNL     1       9.538   5.862  24.230  0.00  0.00    +0.004 C 
ATOM     35  C   UNL     1       8.696   7.108  24.213  0.00  0.00    +0.004 C 
ENDBRANCH  32  33
ENDBRANCH  19  32
ENDBRANCH   1  19
TORSDOF 8
ENDMDL
MODEL 9
REMARK VINA RESULT:      -6.3      3.426      7.808
REMARK  Name = 
REMARK  9 active torsions:
REMARK  status: ('A' for Active; 'I' for Inactive)
REMARK    1  A    between atoms: C_2  and  N_3
REMARK    2  A    between atoms: C_2  and  C_4
REMARK    3  A    between atoms: C_2  and  C_13
REMARK    4  A    between atoms: C_13  and  C_15
REMARK    5  A    between atoms: C_13  and  C_19
REMARK    6  A    between atoms: C_15  and  C_16
REMARK    7  A    between atoms: C_22  and  C_26
REMARK    8  A    between atoms: C_29  and  S_33
REMARK    9  A    between atoms: S_33  and  C_34
REMARK                            x       y       z     vdW  Elec       q    Type
REMARK                         _______ _______ _______ _____ _____    ______ ____
ROOT
ATOM      1  C   UNL     1       7.465  -0.287  22.274  0.00  0.00    +0.216 C 
ATOM      2  O   UNL     1       8.565  -1.176  22.090  0.00  0.00    -0.279 OA
ATOM      3  N   UNL     1       8.565  -2.114  23.213  0.00  0.00    -0.178 NA
ATOM      4  H   UNL     1       8.487  -3.003  22.713  0.00  0.00    +0.156 HD
ATOM      5  C   UNL     1       7.336  -1.833  23.941  0.00  0.00    +0.183 C 
ATOM      6  N   UNL     1       6.489  -1.055  23.043  0.00  0.00    -0.269 NA
ATOM      7  H   UNL     1       6.084  -1.714  22.386  0.00  0.00    +0.126 HD
ENDROOT
BRANCH   5   8
ATOM      8  C   UNL     1       6.647  -3.080  24.440  0.00  0.00    +0.021 A 
ATOM      9  C   UNL     1       7.209  -3.805  25.498  0.00  0.00    +0.131 A 
ATOM     10  F   UNL     1       8.366  -3.409  26.045  0.00  0.00    -0.205 F 
ATOM     11  C   UNL     1       6.587  -4.933  26.024  0.00  0.00    +0.065 A 
ATOM     12  C   UNL     1       5.374  -5.352  25.480  0.00  0.00    +0.091 A 
ATOM     13  C   UNL     1       4.788  -4.657  24.418  0.00  0.00    +0.027 A 
ATOM     14  C   UNL     1       5.427  -3.529  23.899  0.00  0.00    +0.011 A 
BRANCH  12  15
ATOM     15  S   UNL     1       4.509  -6.719  26.215  0.00  0.00    -0.006 S 
ATOM     16  O   UNL     1       5.297  -7.163  27.344  0.00  0.00    -0.170 OA
ATOM     17  O   UNL     1       4.153  -7.627  25.146  0.00  0.00    -0.170 OA
ATOM     18  C   UNL     1       3.021  -5.983  26.836  0.00  0.00    +0.200 C 
ENDBRANCH  12  15
ENDBRANCH   5   8
BRANCH   1  19
ATOM     19  C   UNL     1       7.901   1.045  22.941  0.00  0.00    +0.061 C 
BRANCH  19  20
ATOM     20  C   UNL     1       6.647   1.870  23.382  0.00  0.00    +0.145 C 
BRANCH  20  21
ATOM     21  C   UNL     1       6.902   2.480  24.789  0.00  0.00    +0.233 C 
ATOM     22  N   UNL     1       6.538   1.688  25.860  0.00  0.00    -0.297 N 
ATOM     23  C   UNL     1       5.401   0.780  25.917  0.00  0.00    +0.144 C 
ATOM     24  C   UNL     1       5.541   0.051  27.251  0.00  0.00    +0.185 C 
ATOM     25  F   UNL     1       5.688  -1.282  27.036  0.00  0.00    -0.244 F 
ATOM     26  C   UNL     1       6.820   0.596  27.879  0.00  0.00    +0.057 C 
ATOM     27  C   UNL     1       7.027   1.936  27.197  0.00  0.00    +0.111 C 
ATOM     28  O   UNL     1       7.469   3.559  24.955  0.00  0.00    -0.274 OA
ENDBRANCH  20  21
BRANCH  20  29
ATOM     29  N   UNL     1       6.250   2.910  22.409  0.00  0.00    -0.320 NA
ATOM     30  H   UNL     1       6.196   3.813  22.876  0.00  0.00    +0.119 HD
ATOM     31  H   UNL     1       6.990   2.996  21.710  0.00  0.00    +0.119 HD
ENDBRANCH  20  29
ENDBRANCH  19  20
BRANCH  19  32
ATOM     32  C   UNL     1       8.847   1.892  22.029  0.00  0.00    +0.013 C 
BRANCH  32  33
ATOM     33  C   UNL     1      10.275   1.999  22.512  0.00  0.00    -0.010 C 
ATOM     34  C   UNL     1      10.628   1.750  23.953  0.00  0.00    +0.004 C 
ATOM     35  C   UNL     1      10.718   3.140  23.388  0.00  0.00    +0.004 C 
ENDBRANCH  32  33
ENDBRANCH  19  32
ENDBRANCH   1  19
TORSDOF 8
ENDMDL
