MODEL 1
REMARK VINA RESULT:      -6.6      0.000      0.000
REMARK  Name = 
REMARK  7 active torsions:
REMARK  status: ('A' for Active; 'I' for Inactive)
REMARK    1  A    between atoms: C_15  and  C_20
REMARK    2  A    between atoms: N_18  and  C_19
REMARK    3  A    between atoms: N_22  and  CA_23
REMARK    4  A    between atoms: CA_23  and  C_25
REMARK    5  A    between atoms: CA_23  and  C_27
REMARK    6  A    between atoms: C_25  and  C_26
REMARK    7  A    between atoms: C_27  and  O_28
REMARK                            x       y       z     vdW  Elec       q    Type
REMARK                         _______ _______ _______ _____ _____    ______ ____
ROOT
ATOM      1  C   UNL     1       5.741  -1.582  24.920  0.00  0.00    +0.091 C 
ATOM      2  N   UNL     1       4.864  -0.531  25.494  0.00  0.00    -0.297 NA
ATOM      3  C   UNL     1       4.267  -0.904  26.776  0.00  0.00    +0.105 C 
ATOM      4  C   UNL     1       5.645   0.734  25.566  0.00  0.00    +0.101 C 
ATOM      5  C   UNL     1       7.202   0.601  25.675  0.00  0.00    +0.112 C 
ATOM      6  C   UNL     1       7.626  -0.738  26.277  0.00  0.00    -0.007 C 
ATOM      7  C   UNL     1       6.982  -1.840  25.831  0.00  0.00    -0.025 C 
ATOM      8  C   UNL     1       7.641  -3.164  25.792  0.00  0.00    -0.011 A 
ATOM      9  C   UNL     1       7.242  -3.913  24.677  0.00  0.00    +0.010 A 
ATOM     10  C   UNL     1       8.016  -4.945  24.176  0.00  0.00    +0.047 A 
ATOM     11  C   UNL     1       9.111  -5.436  24.888  0.00  0.00    +0.026 A 
ATOM     12  C   UNL     1       9.403  -4.807  26.112  0.00  0.00    +0.003 A 
ATOM     13  N   UNL     1       7.489  -5.234  22.935  0.00  0.00    -0.360 N 
ATOM     14  H   UNL     1       7.909  -5.863  22.267  0.00  0.00    +0.165 HD
ATOM     15  C   UNL     1       6.341  -4.497  22.716  0.00  0.00    +0.087 A 
ATOM     16  C   UNL     1       6.110  -3.755  23.845  0.00  0.00    -0.020 A 
ATOM     17  C   UNL     1       8.708  -3.665  26.547  0.00  0.00    +0.009 A 
ATOM     18  C   UNL     1       5.040  -2.805  24.277  0.00  0.00    +0.061 C 
ENDROOT
BRANCH   5  19
ATOM     19  C   UNL     1       7.867   0.682  24.262  0.00  0.00    +0.221 C 
ATOM     20  N   UNL     1       9.247   0.748  24.270  0.00  0.00    -0.310 N 
ATOM     21  H   UNL     1       9.730   0.748  25.160  0.00  0.00    +0.149 HD
ATOM     22  O   UNL     1       7.227   0.639  23.210  0.00  0.00    -0.275 OA
BRANCH  20  23
ATOM     23  CA  UNL     1      10.077   0.440  23.101  0.00  0.00    +0.098 C 
BRANCH  23  24
ATOM     24  C   UNL     1       9.700  -0.912  22.469  0.00  0.00    +0.021 C 
ATOM     25  C   UNL     1      10.147  -2.124  23.270  0.00  0.00    +0.006 C 
ENDBRANCH  23  24
BRANCH  23  26
ATOM     26  C   UNL     1       9.920   1.576  22.060  0.00  0.00    +0.178 C 
BRANCH  26  27
ATOM     27  O   UNL     1       9.036   1.193  21.003  0.00  0.00    -0.393 OA
ATOM     28  H   UNL     1       8.561   1.994  20.714  0.00  0.00    +0.209 HD
ENDBRANCH  26  27
ENDBRANCH  23  26
ENDBRANCH  20  23
ENDBRANCH   5  19
TORSDOF 5
ENDMDL
MODEL 2
REMARK VINA RESULT:      -6.5      2.679      4.934
REMARK  Name = 
REMARK  7 active torsions:
REMARK  status: ('A' for Active; 'I' for Inactive)
REMARK    1  A    between atoms: C_15  and  C_20
REMARK    2  A    between atoms: N_18  and  C_19
REMARK    3  A    between atoms: N_22  and  CA_23
REMARK    4  A    between atoms: CA_23  and  C_25
REMARK    5  A    between atoms: CA_23  and  C_27
REMARK    6  A    between atoms: C_25  and  C_26
REMARK    7  A    between atoms: C_27  and  O_28
REMARK                            x       y       z     vdW  Elec       q    Type
REMARK                         _______ _______ _______ _____ _____    ______ ____
ROOT
ATOM      1  C   UNL     1       7.168  -2.301  23.463  0.00  0.00    +0.091 C 
ATOM      2  N   UNL     1       7.657  -0.902  23.559  0.00  0.00    -0.297 NA
ATOM      3  C   UNL     1       6.838   0.055  22.816  0.00  0.00    +0.105 C 
ATOM      4  C   UNL     1       7.786  -0.556  25.001  0.00  0.00    +0.101 C 
ATOM      5  C   UNL     1       6.868  -1.336  26.002  0.00  0.00    +0.112 C 
ATOM      6  C   UNL     1       5.605  -1.873  25.330  0.00  0.00    -0.007 C 
ATOM      7  C   UNL     1       5.758  -2.451  24.117  0.00  0.00    -0.025 C 
ATOM      8  C   UNL     1       4.859  -3.529  23.649  0.00  0.00    -0.011 A 
ATOM      9  C   UNL     1       5.544  -4.487  22.889  0.00  0.00    +0.010 A 
ATOM     10  C   UNL     1       5.061  -5.774  22.731  0.00  0.00    +0.047 A 
ATOM     11  C   UNL     1       3.767  -6.112  23.126  0.00  0.00    +0.026 A 
ATOM     12  C   UNL     1       3.000  -5.093  23.721  0.00  0.00    +0.003 A 
ATOM     13  N   UNL     1       6.111  -6.501  22.210  0.00  0.00    -0.360 N 
ATOM     14  H   UNL     1       6.111  -7.503  22.093  0.00  0.00    +0.165 HD
ATOM     15  C   UNL     1       7.179  -5.671  21.929  0.00  0.00    +0.087 A 
ATOM     16  C   UNL     1       6.795  -4.392  22.239  0.00  0.00    -0.020 A 
ATOM     17  C   UNL     1       3.543  -3.830  24.016  0.00  0.00    +0.009 A 
ATOM     18  C   UNL     1       7.440  -3.047  22.134  0.00  0.00    +0.061 C 
ENDROOT
BRANCH   5  19
ATOM     19  C   UNL     1       7.617  -2.574  26.593  0.00  0.00    +0.221 C 
ATOM     20  N   UNL     1       6.802  -3.625  26.968  0.00  0.00    -0.310 N 
ATOM     21  H   UNL     1       5.800  -3.531  26.849  0.00  0.00    +0.149 HD
ATOM     22  O   UNL     1       8.844  -2.645  26.678  0.00  0.00    -0.275 OA
BRANCH  20  23
ATOM     23  CA  UNL     1       7.288  -4.993  27.169  0.00  0.00    +0.098 C 
BRANCH  23  24
ATOM     24  C   UNL     1       6.167  -5.938  27.638  0.00  0.00    +0.021 C 
ATOM     25  C   UNL     1       5.198  -6.352  26.543  0.00  0.00    +0.006 C 
ENDBRANCH  23  24
BRANCH  23  26
ATOM     26  C   UNL     1       7.897  -5.509  25.841  0.00  0.00    +0.178 C 
BRANCH  26  27
ATOM     27  O   UNL     1       9.322  -5.601  25.924  0.00  0.00    -0.393 OA
ATOM     28  H   UNL     1       9.663  -5.695  25.016  0.00  0.00    +0.209 HD
ENDBRANCH  26  27
ENDBRANCH  23  26
ENDBRANCH  20  23
ENDBRANCH   5  19
TORSDOF 5
ENDMDL
MODEL 3
REMARK VINA RESULT:      -6.4      2.568      4.838
REMARK  Name = 
REMARK  7 active torsions:
REMARK  status: ('A' for Active; 'I' for Inactive)
REMARK    1  A    between atoms: C_15  and  C_20
REMARK    2  A    between atoms: N_18  and  C_19
REMARK    3  A    between atoms: N_22  and  CA_23
REMARK    4  A    between atoms: CA_23  and  C_25
REMARK    5  A    between atoms: CA_23  and  C_27
REMARK    6  A    between atoms: C_25  and  C_26
REMARK    7  A    between atoms: C_27  and  O_28
REMARK                            x       y       z     vdW  Elec       q    Type
REMARK                         _______ _______ _______ _____ _____    ______ ____
ROOT
ATOM      1  C   UNL     1       8.999   0.701  24.408  0.00  0.00    +0.091 C 
ATOM      2  N   UNL     1      10.280   1.448  24.490  0.00  0.00    -0.297 NA
ATOM      3  C   UNL     1      11.445   0.588  24.690  0.00  0.00    +0.105 C 
ATOM      4  C   UNL     1      10.394   2.303  23.277  0.00  0.00    +0.101 C 
ATOM      5  C   UNL     1       9.627   1.825  21.998  0.00  0.00    +0.112 C 
ATOM      6  C   UNL     1       9.387   0.315  21.998  0.00  0.00    -0.007 C 
ATOM      7  C   UNL     1       8.972  -0.237  23.160  0.00  0.00    -0.025 C 
ATOM      8  C   UNL     1       8.119  -1.445  23.188  0.00  0.00    -0.011 A 
ATOM      9  C   UNL     1       7.187  -1.404  24.234  0.00  0.00    +0.010 A 
ATOM     10  C   UNL     1       6.024  -2.152  24.204  0.00  0.00    +0.047 A 
ATOM     11  C   UNL     1       5.832  -3.150  23.248  0.00  0.00    +0.026 A 
ATOM     12  C   UNL     1       6.860  -3.326  22.303  0.00  0.00    +0.003 A 
ATOM     13  N   UNL     1       5.228  -1.639  25.206  0.00  0.00    -0.360 N 
ATOM     14  H   UNL     1       4.264  -1.895  25.360  0.00  0.00    +0.165 HD
ATOM     15  C   UNL     1       5.919  -0.684  25.927  0.00  0.00    +0.087 A 
ATOM     16  C   UNL     1       7.184  -0.612  25.404  0.00  0.00    -0.020 A 
ATOM     17  C   UNL     1       7.971  -2.468  22.243  0.00  0.00    +0.009 A 
ATOM     18  C   UNL     1       8.417   0.163  25.739  0.00  0.00    +0.061 C 
ENDROOT
BRANCH   5  19
ATOM     19  C   UNL     1       8.218   2.497  21.910  0.00  0.00    +0.221 C 
ATOM     20  N   UNL     1       8.104   3.705  22.572  0.00  0.00    -0.310 N 
ATOM     21  H   UNL     1       8.912   4.067  23.065  0.00  0.00    +0.149 HD
ATOM     22  O   UNL     1       7.283   2.024  21.262  0.00  0.00    -0.275 OA
BRANCH  20  23
ATOM     23  CA  UNL     1       7.038   4.675  22.306  0.00  0.00    +0.098 C 
BRANCH  23  24
ATOM     24  C   UNL     1       5.962   4.660  23.405  0.00  0.00    +0.021 C 
ATOM     25  C   UNL     1       6.336   3.853  24.637  0.00  0.00    +0.006 C 
ENDBRANCH  23  24
BRANCH  23  26
ATOM     26  C   UNL     1       7.663   6.088  22.192  0.00  0.00    +0.178 C 
BRANCH  26  27
ATOM     27  O   UNL     1       7.042   6.847  21.151  0.00  0.00    -0.393 OA
ATOM     28  H   UNL     1       6.138   7.062  21.444  0.00  0.00    +0.209 HD
ENDBRANCH  26  27
ENDBRANCH  23  26
ENDBRANCH  20  23
ENDBRANCH   5  19
TORSDOF 5
ENDMDL
MODEL 4
REMARK VINA RESULT:      -6.2      1.883      4.587
REMARK  Name = 
REMARK  7 active torsions:
REMARK  status: ('A' for Active; 'I' for Inactive)
REMARK    1  A    between atoms: C_15  and  C_20
REMARK    2  A    between atoms: N_18  and  C_19
REMARK    3  A    between atoms: N_22  and  CA_23
REMARK    4  A    between atoms: CA_23  and  C_25
REMARK    5  A    between atoms: CA_23  and  C_27
REMARK    6  A    between atoms: C_25  and  C_26
REMARK    7  A    between atoms: C_27  and  O_28
REMARK                            x       y       z     vdW  Elec       q    Type
REMARK                         _______ _______ _______ _____ _____    ______ ____
ROOT
ATOM      1  C   UNL     1       8.952  -0.971  23.704  0.00  0.00    +0.091 C 
ATOM      2  N   UNL     1       9.392   0.408  23.373  0.00  0.00    -0.297 NA
ATOM      3  C   UNL     1       9.818   0.568  21.984  0.00  0.00    +0.105 C 
ATOM      4  C   UNL     1       8.299   1.344  23.753  0.00  0.00    +0.101 C 
ATOM      5  C   UNL     1       6.844   0.766  23.772  0.00  0.00    +0.112 C 
ATOM      6  C   UNL     1       6.692  -0.446  22.853  0.00  0.00    -0.007 C 
ATOM      7  C   UNL     1       7.680  -1.368  22.890  0.00  0.00    -0.025 C 
ATOM      8  C   UNL     1       7.423  -2.797  22.610  0.00  0.00    -0.011 A 
ATOM      9  C   UNL     1       8.208  -3.637  23.411  0.00  0.00    +0.010 A 
ATOM     10  C   UNL     1       7.848  -4.948  23.667  0.00  0.00    +0.047 A 
ATOM     11  C   UNL     1       6.814  -5.562  22.961  0.00  0.00    +0.026 A 
ATOM     12  C   UNL     1       6.141  -4.773  22.010  0.00  0.00    +0.003 A 
ATOM     13  N   UNL     1       8.654  -5.356  24.709  0.00  0.00    -0.360 N 
ATOM     14  H   UNL     1       8.551  -6.229  25.205  0.00  0.00    +0.165 HD
ATOM     15  C   UNL     1       9.580  -4.377  25.013  0.00  0.00    +0.087 A 
ATOM     16  C   UNL     1       9.389  -3.345  24.132  0.00  0.00    -0.020 A 
ATOM     17  C   UNL     1       6.409  -3.402  21.857  0.00  0.00    +0.009 A 
ATOM     18  C   UNL     1      10.064  -2.034  23.886  0.00  0.00    +0.061 C 
ENDROOT
BRANCH   5  19
ATOM     19  C   UNL     1       6.455   0.284  25.208  0.00  0.00    +0.221 C 
ATOM     20  N   UNL     1       5.720  -0.885  25.253  0.00  0.00    -0.310 N 
ATOM     21  H   UNL     1       5.478  -1.342  24.381  0.00  0.00    +0.149 HD
ATOM     22  O   UNL     1       6.812   0.864  26.235  0.00  0.00    -0.275 OA
BRANCH  20  23
ATOM     23  CA  UNL     1       5.588  -1.711  26.457  0.00  0.00    +0.098 C 
BRANCH  23  24
ATOM     24  C   UNL     1       4.476  -2.765  26.311  0.00  0.00    +0.021 C 
ATOM     25  C   UNL     1       4.201  -3.190  24.878  0.00  0.00    +0.006 C 
ENDBRANCH  23  24
BRANCH  23  26
ATOM     26  C   UNL     1       6.944  -2.403  26.741  0.00  0.00    +0.178 C 
BRANCH  26  27
ATOM     27  O   UNL     1       6.776  -3.808  26.952  0.00  0.00    -0.393 OA
ATOM     28  H   UNL     1       6.915  -4.251  26.095  0.00  0.00    +0.209 HD
ENDBRANCH  26  27
ENDBRANCH  23  26
ENDBRANCH  20  23
ENDBRANCH   5  19
TORSDOF 5
ENDMDL
MODEL 5
REMARK VINA RESULT:      -6.1      1.956      4.246
REMARK  Name = 
REMARK  7 active torsions:
REMARK  status: ('A' for Active; 'I' for Inactive)
REMARK    1  A    between atoms: C_15  and  C_20
REMARK    2  A    between atoms: N_18  and  C_19
REMARK    3  A    between atoms: N_22  and  CA_23
REMARK    4  A    between atoms: CA_23  and  C_25
REMARK    5  A    between atoms: CA_23  and  C_27
REMARK    6  A    between atoms: C_25  and  C_26
REMARK    7  A    between atoms: C_27  and  O_28
REMARK                            x       y       z     vdW  Elec       q    Type
REMARK                         _______ _______ _______ _____ _____    ______ ____
ROOT
ATOM      1  C   UNL     1       7.601  -3.582  25.400  0.00  0.00    +0.091 C 
ATOM      2  N   UNL     1       9.051  -3.883  25.295  0.00  0.00    -0.297 NA
ATOM      3  C   UNL     1       9.354  -5.314  25.313  0.00  0.00    +0.105 C 
ATOM      4  C   UNL     1       9.580  -3.195  24.086  0.00  0.00    +0.101 C 
ATOM      5  C   UNL     1       8.561  -2.908  22.932  0.00  0.00    +0.112 C 
ATOM      6  C   UNL     1       7.374  -3.870  22.956  0.00  0.00    -0.007 C 
ATOM      7  C   UNL     1       6.822  -4.129  24.162  0.00  0.00    -0.025 C 
ATOM      8  C   UNL     1       5.389  -4.465  24.306  0.00  0.00    -0.011 A 
ATOM      9  C   UNL     1       4.841  -3.929  25.480  0.00  0.00    +0.010 A 
ATOM     10  C   UNL     1       3.482  -3.712  25.617  0.00  0.00    +0.047 A 
ATOM     11  C   UNL     1       2.572  -4.224  24.692  0.00  0.00    +0.026 A 
ATOM     12  C   UNL     1       3.110  -4.935  23.604  0.00  0.00    +0.003 A 
ATOM     13  N   UNL     1       3.346  -2.910  26.731  0.00  0.00    -0.360 N 
ATOM     14  H   UNL     1       2.482  -2.479  27.025  0.00  0.00    +0.165 HD
ATOM     15  C   UNL     1       4.569  -2.735  27.349  0.00  0.00    +0.087 A 
ATOM     16  C   UNL     1       5.492  -3.462  26.644  0.00  0.00    -0.020 A 
ATOM     17  C   UNL     1       4.496  -5.027  23.386  0.00  0.00    +0.009 A 
ATOM     18  C   UNL     1       6.953  -3.738  26.798  0.00  0.00    +0.061 C 
ENDROOT
BRANCH   5  19
ATOM     19  C   UNL     1       7.966  -1.468  23.061  0.00  0.00    +0.221 C 
ATOM     20  N   UNL     1       8.872  -0.492  23.431  0.00  0.00    -0.310 N 
ATOM     21  H   UNL     1       9.835  -0.760  23.599  0.00  0.00    +0.149 HD
ATOM     22  O   UNL     1       6.792  -1.196  22.806  0.00  0.00    -0.275 OA
BRANCH  20  23
ATOM     23  CA  UNL     1       8.641   0.942  23.234  0.00  0.00    +0.098 C 
BRANCH  23  24
ATOM     24  C   UNL     1       9.636   1.799  24.037  0.00  0.00    +0.021 C 
ATOM     25  C   UNL     1      10.834   1.032  24.571  0.00  0.00    +0.006 C 
ENDBRANCH  23  24
BRANCH  23  26
ATOM     26  C   UNL     1       8.757   1.266  21.724  0.00  0.00    +0.178 C 
BRANCH  26  27
ATOM     27  O   UNL     1       9.872   2.123  21.461  0.00  0.00    -0.393 OA
ATOM     28  H   UNL     1      10.448   1.666  20.821  0.00  0.00    +0.209 HD
ENDBRANCH  26  27
ENDBRANCH  23  26
ENDBRANCH  20  23
ENDBRANCH   5  19
TORSDOF 5
ENDMDL
MODEL 6
REMARK VINA RESULT:      -6.1      2.468      5.731
REMARK  Name = 
REMARK  7 active torsions:
REMARK  status: ('A' for Active; 'I' for Inactive)
REMARK    1  A    between atoms: C_15  and  C_20
REMARK    2  A    between atoms: N_18  and  C_19
REMARK    3  A    between atoms: N_22  and  CA_23
REMARK    4  A    between atoms: CA_23  and  C_25
REMARK    5  A    between atoms: CA_23  and  C_27
REMARK    6  A    between atoms: C_25  and  C_26
REMARK    7  A    between atoms: C_27  and  O_28
REMARK                            x       y       z     vdW  Elec       q    Type
REMARK                         _______ _______ _______ _____ _____    ______ ____
ROOT
ATOM      1  C   UNL     1       8.681  -3.380  24.809  0.00  0.00    +0.091 C 
ATOM      2  N   UNL     1       8.830  -4.639  25.581  0.00  0.00    -0.297 NA
ATOM      3  C   UNL     1       9.740  -4.521  26.720  0.00  0.00    +0.105 C 
ATOM      4  C   UNL     1       7.471  -5.104  25.972  0.00  0.00    +0.101 C 
ATOM      5  C   UNL     1       6.357  -4.011  26.100  0.00  0.00    +0.112 C 
ATOM      6  C   UNL     1       6.936  -2.627  26.389  0.00  0.00    -0.007 C 
ATOM      7  C   UNL     1       8.025  -2.260  25.678  0.00  0.00    -0.025 C 
ATOM      8  C   UNL     1       8.303  -0.843  25.354  0.00  0.00    -0.011 A 
ATOM      9  C   UNL     1       8.874  -0.700  24.082  0.00  0.00    +0.010 A 
ATOM     10  C   UNL     1       8.806   0.492  23.383  0.00  0.00    +0.047 A 
ATOM     11  C   UNL     1       8.370   1.666  23.998  0.00  0.00    +0.026 A 
ATOM     12  C   UNL     1       7.974   1.565  25.344  0.00  0.00    +0.003 A 
ATOM     13  N   UNL     1       9.178   0.184  22.091  0.00  0.00    -0.360 N 
ATOM     14  H   UNL     1       9.115   0.819  21.310  0.00  0.00    +0.165 HD
ATOM     15  C   UNL     1       9.591  -1.132  22.010  0.00  0.00    +0.087 A 
ATOM     16  C   UNL     1       9.517  -1.662  23.272  0.00  0.00    -0.020 A 
ATOM     17  C   UNL     1       7.902   0.328  26.008  0.00  0.00    +0.009 A 
ATOM     18  C   UNL     1       9.853  -2.988  23.876  0.00  0.00    +0.061 C 
ENDROOT
BRANCH   5  19
ATOM     19  C   UNL     1       5.547  -3.884  24.769  0.00  0.00    +0.221 C 
ATOM     20  N   UNL     1       5.847  -4.832  23.810  0.00  0.00    -0.310 N 
ATOM     21  H   UNL     1       6.556  -5.526  24.015  0.00  0.00    +0.149 HD
ATOM     22  O   UNL     1       4.668  -3.039  24.591  0.00  0.00    -0.275 OA
BRANCH  20  23
ATOM     23  CA  UNL     1       4.967  -5.143  22.679  0.00  0.00    +0.098 C 
BRANCH  23  24
ATOM     24  C   UNL     1       5.747  -5.736  21.492  0.00  0.00    +0.021 C 
ATOM     25  C   UNL     1       7.237  -5.902  21.741  0.00  0.00    +0.006 C 
ENDBRANCH  23  24
BRANCH  23  26
ATOM     26  C   UNL     1       3.878  -6.139  23.151  0.00  0.00    +0.178 C 
BRANCH  26  27
ATOM     27  O   UNL     1       4.460  -7.290  23.769  0.00  0.00    -0.393 OA
ATOM     28  H   UNL     1       5.350  -7.039  24.076  0.00  0.00    +0.209 HD
ENDBRANCH  26  27
ENDBRANCH  23  26
ENDBRANCH  20  23
ENDBRANCH   5  19
TORSDOF 5
ENDMDL
MODEL 7
REMARK VINA RESULT:      -6.0      3.120      6.242
REMARK  Name = 
REMARK  7 active torsions:
REMARK  status: ('A' for Active; 'I' for Inactive)
REMARK    1  A    between atoms: C_15  and  C_20
REMARK    2  A    between atoms: N_18  and  C_19
REMARK    3  A    between atoms: N_22  and  CA_23
REMARK    4  A    between atoms: CA_23  and  C_25
REMARK    5  A    between atoms: CA_23  and  C_27
REMARK    6  A    between atoms: C_25  and  C_26
REMARK    7  A    between atoms: C_27  and  O_28
REMARK                            x       y       z     vdW  Elec       q    Type
REMARK                         _______ _______ _______ _____ _____    ______ ____
ROOT
ATOM      1  C   UNL     1       6.778  -3.214  23.783  0.00  0.00    +0.091 C 
ATOM      2  N   UNL     1       6.474  -4.494  23.096  0.00  0.00    -0.297 NA
ATOM      3  C   UNL     1       6.897  -4.520  21.696  0.00  0.00    +0.105 C 
ATOM      4  C   UNL     1       7.064  -5.600  23.899  0.00  0.00    +0.101 C 
ATOM      5  C   UNL     1       8.300  -5.246  24.794  0.00  0.00    +0.112 C 
ATOM      6  C   UNL     1       9.060  -4.027  24.273  0.00  0.00    -0.007 C 
ATOM      7  C   UNL     1       8.318  -2.971  23.869  0.00  0.00    -0.025 C 
ATOM      8  C   UNL     1       8.824  -1.584  23.959  0.00  0.00    -0.011 A 
ATOM      9  C   UNL     1       7.807  -0.677  24.287  0.00  0.00    +0.010 A 
ATOM     10  C   UNL     1       8.082   0.552  24.861  0.00  0.00    +0.047 A 
ATOM     11  C   UNL     1       9.387   1.039  24.930  0.00  0.00    +0.026 A 
ATOM     12  C   UNL     1      10.401   0.206  24.422  0.00  0.00    +0.003 A 
ATOM     13  N   UNL     1       6.871   1.024  25.321  0.00  0.00    -0.360 N 
ATOM     14  H   UNL     1       6.758   1.847  25.895  0.00  0.00    +0.165 HD
ATOM     15  C   UNL     1       5.847   0.180  24.935  0.00  0.00    +0.087 A 
ATOM     16  C   UNL     1       6.405  -0.824  24.188  0.00  0.00    -0.020 A 
ATOM     17  C   UNL     1      10.138  -1.101  23.978  0.00  0.00    +0.009 A 
ATOM     18  C   UNL     1       5.867  -2.007  23.449  0.00  0.00    +0.061 C 
ENDROOT
BRANCH   5  19
ATOM     19  C   UNL     1       7.851  -4.899  26.250  0.00  0.00    +0.221 C 
ATOM     20  N   UNL     1       6.515  -5.128  26.520  0.00  0.00    -0.310 N 
ATOM     21  H   UNL     1       5.924  -5.489  25.781  0.00  0.00    +0.149 HD
ATOM     22  O   UNL     1       8.626  -4.498  27.119  0.00  0.00    -0.275 OA
BRANCH  20  23
ATOM     23  CA  UNL     1       5.974  -5.250  27.877  0.00  0.00    +0.098 C 
BRANCH  23  24
ATOM     24  C   UNL     1       4.994  -4.111  28.208  0.00  0.00    +0.021 C 
ATOM     25  C   UNL     1       5.106  -2.902  27.294  0.00  0.00    +0.006 C 
ENDBRANCH  23  24
BRANCH  23  26
ATOM     26  C   UNL     1       5.264  -6.620  28.014  0.00  0.00    +0.178 C 
BRANCH  26  27
ATOM     27  O   UNL     1       6.013  -7.514  28.841  0.00  0.00    -0.393 OA
ATOM     28  H   UNL     1       5.838  -7.270  29.769  0.00  0.00    +0.209 HD
ENDBRANCH  26  27
ENDBRANCH  23  26
ENDBRANCH  20  23
ENDBRANCH   5  19
TORSDOF 5
ENDMDL
MODEL 8
REMARK VINA RESULT:      -6.0      2.607      5.994
REMARK  Name = 
REMARK  7 active torsions:
REMARK  status: ('A' for Active; 'I' for Inactive)
REMARK    1  A    between atoms: C_15  and  C_20
REMARK    2  A    between atoms: N_18  and  C_19
REMARK    3  A    between atoms: N_22  and  CA_23
REMARK    4  A    between atoms: CA_23  and  C_25
REMARK    5  A    between atoms: CA_23  and  C_27
REMARK    6  A    between atoms: C_25  and  C_26
REMARK    7  A    between atoms: C_27  and  O_28
REMARK                            x       y       z     vdW  Elec       q    Type
REMARK                         _______ _______ _______ _____ _____    ______ ____
ROOT
ATOM      1  C   UNL     1       8.300  -1.123  24.688  0.00  0.00    +0.091 C 
ATOM      2  N   UNL     1       8.494  -1.935  25.916  0.00  0.00    -0.297 NA
ATOM      3  C   UNL     1       8.753  -1.133  27.112  0.00  0.00    +0.105 C 
ATOM      4  C   UNL     1       7.318  -2.834  26.066  0.00  0.00    +0.101 C 
ATOM      5  C   UNL     1       5.974  -2.357  25.419  0.00  0.00    +0.112 C 
ATOM      6  C   UNL     1       5.914  -0.838  25.264  0.00  0.00    -0.007 C 
ATOM      7  C   UNL     1       7.027  -0.227  24.801  0.00  0.00    -0.025 C 
ATOM      8  C   UNL     1       6.958   1.026  24.017  0.00  0.00    -0.011 A 
ATOM      9  C   UNL     1       7.935   1.070  23.014  0.00  0.00    +0.010 A 
ATOM     10  C   UNL     1       7.801   1.878  21.899  0.00  0.00    +0.047 A 
ATOM     11  C   UNL     1       6.805   2.852  21.831  0.00  0.00    +0.026 A 
ATOM     12  C   UNL     1       5.931   2.942  22.930  0.00  0.00    +0.003 A 
ATOM     13  N   UNL     1       8.758   1.441  21.008  0.00  0.00    -0.360 N 
ATOM     14  H   UNL     1       8.836   1.753  20.052  0.00  0.00    +0.165 HD
ATOM     15  C   UNL     1       9.554   0.475  21.592  0.00  0.00    +0.087 A 
ATOM     16  C   UNL     1       9.125   0.318  22.884  0.00  0.00    -0.020 A 
ATOM     17  C   UNL     1       5.976   2.023  23.993  0.00  0.00    +0.009 A 
ATOM     18  C   UNL     1       9.570  -0.511  24.046  0.00  0.00    +0.061 C 
ENDROOT
BRANCH   5  19
ATOM     19  C   UNL     1       5.806  -2.955  23.984  0.00  0.00    +0.221 C 
ATOM     20  N   UNL     1       5.668  -4.329  23.936  0.00  0.00    -0.310 N 
ATOM     21  H   UNL     1       5.691  -4.852  24.804  0.00  0.00    +0.149 HD
ATOM     22  O   UNL     1       5.747  -2.264  22.966  0.00  0.00    -0.275 OA
BRANCH  20  23
ATOM     23  CA  UNL     1       5.118  -5.047  22.782  0.00  0.00    +0.098 C 
BRANCH  23  24
ATOM     24  C   UNL     1       6.207  -5.817  22.013  0.00  0.00    +0.021 C 
ATOM     25  C   UNL     1       7.598  -5.703  22.615  0.00  0.00    +0.006 C 
ENDBRANCH  23  24
BRANCH  23  26
ATOM     26  C   UNL     1       4.022  -6.024  23.274  0.00  0.00    +0.178 C 
BRANCH  26  27
ATOM     27  O   UNL     1       4.588  -7.263  23.711  0.00  0.00    -0.393 OA
ATOM     28  H   UNL     1       5.423  -7.391  23.223  0.00  0.00    +0.209 HD
ENDBRANCH  26  27
ENDBRANCH  23  26
ENDBRANCH  20  23
ENDBRANCH   5  19
TORSDOF 5
ENDMDL
MODEL 9
REMARK VINA RESULT:      -5.7      1.903      4.467
REMARK  Name = 
REMARK  7 active torsions:
REMARK  status: ('A' for Active; 'I' for Inactive)
REMARK    1  A    between atoms: C_15  and  C_20
REMARK    2  A    between atoms: N_18  and  C_19
REMARK    3  A    between atoms: N_22  and  CA_23
REMARK    4  A    between atoms: CA_23  and  C_25
REMARK    5  A    between atoms: CA_23  and  C_27
REMARK    6  A    between atoms: C_25  and  C_26
REMARK    7  A    between atoms: C_27  and  O_28
REMARK                            x       y       z     vdW  Elec       q    Type
REMARK                         _______ _______ _______ _____ _____    ______ ____
ROOT
ATOM      1  C   UNL     1       8.568  -0.708  24.934  0.00  0.00    +0.091 C 
ATOM      2  N   UNL     1       9.619   0.194  24.400  0.00  0.00    -0.297 NA
ATOM      3  C   UNL     1      10.788   0.309  25.271  0.00  0.00    +0.105 C 
ATOM      4  C   UNL     1       9.965  -0.264  23.026  0.00  0.00    +0.101 C 
ATOM      5  C   UNL     1       9.724  -1.777  22.701  0.00  0.00    +0.112 C 
ATOM      6  C   UNL     1       9.746  -2.648  23.957  0.00  0.00    -0.007 C 
ATOM      7  C   UNL     1       9.084  -2.178  25.038  0.00  0.00    -0.025 C 
ATOM      8  C   UNL     1       8.475  -3.086  26.034  0.00  0.00    -0.011 A 
ATOM      9  C   UNL     1       7.270  -2.577  26.536  0.00  0.00    +0.010 A 
ATOM     10  C   UNL     1       6.312  -3.398  27.104  0.00  0.00    +0.047 A 
ATOM     11  C   UNL     1       6.593  -4.730  27.411  0.00  0.00    +0.026 A 
ATOM     12  C   UNL     1       7.879  -5.197  27.080  0.00  0.00    +0.003 A 
ATOM     13  N   UNL     1       5.171  -2.629  27.192  0.00  0.00    -0.360 N 
ATOM     14  H   UNL     1       4.262  -2.980  27.456  0.00  0.00    +0.165 HD
ATOM     15  C   UNL     1       5.437  -1.328  26.811  0.00  0.00    +0.087 A 
ATOM     16  C   UNL     1       6.772  -1.255  26.511  0.00  0.00    -0.020 A 
ATOM     17  C   UNL     1       8.798  -4.406  26.369  0.00  0.00    +0.009 A 
ATOM     18  C   UNL     1       7.695  -0.157  26.089  0.00  0.00    +0.061 C 
ENDROOT
BRANCH   5  19
ATOM     19  C   UNL     1       8.324  -1.988  22.040  0.00  0.00    +0.221 C 
ATOM     20  N   UNL     1       7.844  -3.283  22.087  0.00  0.00    -0.310 N 
ATOM     21  H   UNL     1       8.413  -3.997  22.526  0.00  0.00    +0.149 HD
ATOM     22  O   UNL     1       7.661  -1.070  21.554  0.00  0.00    -0.275 OA
BRANCH  20  23
ATOM     23  CA  UNL     1       6.433  -3.630  21.894  0.00  0.00    +0.098 C 
BRANCH  23  24
ATOM     24  C   UNL     1       6.263  -5.050  21.327  0.00  0.00    +0.021 C 
ATOM     25  C   UNL     1       7.064  -6.116  22.057  0.00  0.00    +0.006 C 
ENDBRANCH  23  24
BRANCH  23  26
ATOM     26  C   UNL     1       5.696  -3.507  23.251  0.00  0.00    +0.178 C 
BRANCH  26  27
ATOM     27  O   UNL     1       4.341  -3.953  23.149  0.00  0.00    -0.393 OA
ATOM     28  H   UNL     1       4.322  -4.894  23.402  0.00  0.00    +0.209 HD
ENDBRANCH  26  27
ENDBRANCH  23  26
ENDBRANCH  20  23
ENDBRANCH   5  19
TORSDOF 5
ENDMDL
