MODEL 1
REMARK VINA RESULT:      -6.1      0.000      0.000
REMARK  Name = 
REMARK  11 active torsions:
REMARK  status: ('A' for Active; 'I' for Inactive)
REMARK    1  A    between atoms: C_1  and  O_2
REMARK    2  A    between atoms: O_2  and  C_3
REMARK    3  A    between atoms: C_5  and  C_6
REMARK    4  A    between atoms: C_6  and  C_7
REMARK    5  A    between atoms: C_10  and  N_11
REMARK    6  A    between atoms: N_17  and  C_18
REMARK    7  A    between atoms: C_18  and  C_19
REMARK    8  A    between atoms: C_19  and  C_20
REMARK    9  A    between atoms: C_20  and  C_21
REMARK   10  A    between atoms: C_23  and  O_24
REMARK   11  A    between atoms: O_24  and  C_25
REMARK                            x       y       z     vdW  Elec       q    Type
REMARK                         _______ _______ _______ _____ _____    ______ ____
ROOT
ATOM      1  C   UNL     1       9.964  -0.161  23.974  0.00  0.00    +0.116 A 
ATOM      2  N   UNL     1       9.409  -0.599  22.782  0.00  0.00    -0.312 N 
ATOM      3  C   UNL     1       8.804  -1.806  23.017  0.00  0.00    +0.168 A 
ATOM      4  C   UNL     1       9.020  -2.070  24.353  0.00  0.00    +0.148 A 
ATOM      5  C   UNL     1       8.477  -3.271  24.845  0.00  0.00    +0.150 A 
ATOM      6  N   UNL     1       7.754  -4.048  24.008  0.00  0.00    -0.185 NA
ATOM      7  C   UNL     1       7.618  -3.661  22.725  0.00  0.00    +0.313 A 
ATOM      8  F   UNL     1       6.871  -4.453  21.939  0.00  0.00    -0.161 F 
ATOM      9  N   UNL     1       8.120  -2.557  22.140  0.00  0.00    -0.182 NA
ATOM     10  N   UNL     1       9.735  -1.046  24.937  0.00  0.00    -0.227 NA
ENDROOT
BRANCH   5  11
ATOM     11  N   UNL     1       8.620  -3.694  26.159  0.00  0.00    -0.341 N 
ATOM     12  H   UNL     1       8.080  -3.135  26.808  0.00  0.00    +0.144 HD
ATOM     13  H   UNL     1       9.571  -3.930  26.415  0.00  0.00    +0.144 HD
ENDBRANCH   5  11
BRANCH   1  14
ATOM     14  C   UNL     1      10.693   1.150  24.160  0.00  0.00    +0.113 C 
BRANCH  14  19
ATOM     15  C   UNL     1       7.928   3.477  25.467  0.00  0.00    +0.121 A 
ATOM     16  C   UNL     1       8.285   4.683  24.879  0.00  0.00    +0.049 A 
ATOM     17  C   UNL     1       9.420   4.758  24.073  0.00  0.00    +0.049 A 
ATOM     18  C   UNL     1      10.214   3.627  23.850  0.00  0.00    +0.124 A 
ATOM     19  C   UNL     1       9.843   2.385  24.415  0.00  0.00    +0.005 A 
ATOM     20  C   UNL     1       8.674   2.328  25.197  0.00  0.00    +0.053 A 
BRANCH  15  22
ATOM     21  C   UNL     1       5.963   2.271  25.899  0.00  0.00    +0.277 C 
ATOM     22  O   UNL     1       6.856   3.309  26.298  0.00  0.00    -0.495 OA
ENDBRANCH  15  22
BRANCH  18  23
ATOM     23  O   UNL     1      11.368   3.648  23.102  0.00  0.00    -0.495 OA
ATOM     24  C   UNL     1      12.231   4.769  23.282  0.00  0.00    +0.277 C 
ENDBRANCH  18  23
ENDBRANCH  14  19
ENDBRANCH   1  14
BRANCH   2  25
ATOM     25  C   UNL     1       9.417   0.049  21.487  0.00  0.00    +0.126 C 
BRANCH  25  26
ATOM     26  C   UNL     1       8.530   1.302  21.416  0.00  0.00    +0.034 C 
BRANCH  26  27
ATOM     27  C   UNL     1       7.183   1.132  22.118  0.00  0.00    +0.090 C 
BRANCH  27  28
ATOM     28  C   UNL     1       6.521   2.496  22.227  0.00  0.00    -0.106 C 
ATOM     29  C   UNL     1       5.953   3.666  22.322  0.00  0.00    +0.004 C 
ENDBRANCH  27  28
ENDBRANCH  26  27
ENDBRANCH  25  26
ENDBRANCH   2  25
TORSDOF 9
ENDMDL
MODEL 2
REMARK VINA RESULT:      -6.1      3.752      7.150
REMARK  Name = 
REMARK  11 active torsions:
REMARK  status: ('A' for Active; 'I' for Inactive)
REMARK    1  A    between atoms: C_1  and  O_2
REMARK    2  A    between atoms: O_2  and  C_3
REMARK    3  A    between atoms: C_5  and  C_6
REMARK    4  A    between atoms: C_6  and  C_7
REMARK    5  A    between atoms: C_10  and  N_11
REMARK    6  A    between atoms: N_17  and  C_18
REMARK    7  A    between atoms: C_18  and  C_19
REMARK    8  A    between atoms: C_19  and  C_20
REMARK    9  A    between atoms: C_20  and  C_21
REMARK   10  A    between atoms: C_23  and  O_24
REMARK   11  A    between atoms: O_24  and  C_25
REMARK                            x       y       z     vdW  Elec       q    Type
REMARK                         _______ _______ _______ _____ _____    ______ ____
ROOT
ATOM      1  C   UNL     1       9.348  -1.515  24.158  0.00  0.00    +0.116 A 
ATOM      2  N   UNL     1       8.883  -0.733  25.203  0.00  0.00    -0.312 N 
ATOM      3  C   UNL     1       8.865   0.570  24.779  0.00  0.00    +0.168 A 
ATOM      4  C   UNL     1       9.333   0.540  23.482  0.00  0.00    +0.148 A 
ATOM      5  C   UNL     1       9.399   1.777  22.815  0.00  0.00    +0.150 A 
ATOM      6  N   UNL     1       8.966   2.884  23.457  0.00  0.00    -0.185 NA
ATOM      7  C   UNL     1       8.527   2.764  24.725  0.00  0.00    +0.313 A 
ATOM      8  F   UNL     1       8.084   3.888  25.312  0.00  0.00    -0.161 F 
ATOM      9  N   UNL     1       8.452   1.645  25.468  0.00  0.00    -0.182 NA
ATOM     10  N   UNL     1       9.625  -0.754  23.106  0.00  0.00    -0.227 NA
ENDROOT
BRANCH   5  11
ATOM     11  N   UNL     1       9.864   1.922  21.516  0.00  0.00    -0.341 N 
ATOM     12  H   UNL     1      10.651   1.317  21.315  0.00  0.00    +0.144 HD
ATOM     13  H   UNL     1       9.913   2.883  21.200  0.00  0.00    +0.144 HD
ENDBRANCH   5  11
BRANCH   1  14
ATOM     14  C   UNL     1       9.488  -3.020  24.198  0.00  0.00    +0.113 C 
BRANCH  14  19
ATOM     15  C   UNL     1       6.473  -4.620  22.432  0.00  0.00    +0.121 A 
ATOM     16  C   UNL     1       5.913  -5.362  23.463  0.00  0.00    +0.049 A 
ATOM     17  C   UNL     1       6.508  -5.363  24.724  0.00  0.00    +0.049 A 
ATOM     18  C   UNL     1       7.672  -4.625  24.966  0.00  0.00    +0.124 A 
ATOM     19  C   UNL     1       8.232  -3.838  23.934  0.00  0.00    +0.005 A 
ATOM     20  C   UNL     1       7.594  -3.827  22.679  0.00  0.00    +0.053 A 
BRANCH  15  22
ATOM     21  C   UNL     1       6.068  -5.822  20.458  0.00  0.00    +0.277 C 
ATOM     22  O   UNL     1       5.985  -4.580  21.155  0.00  0.00    -0.495 OA
ENDBRANCH  15  22
BRANCH  18  23
ATOM     23  O   UNL     1       8.329  -4.621  26.175  0.00  0.00    -0.495 OA
ATOM     24  C   UNL     1       7.670  -5.262  27.266  0.00  0.00    +0.277 C 
ENDBRANCH  18  23
ENDBRANCH  14  19
ENDBRANCH   1  14
BRANCH   2  25
ATOM     25  C   UNL     1       8.465  -1.145  26.527  0.00  0.00    +0.126 C 
BRANCH  25  26
ATOM     26  C   UNL     1       6.945  -1.326  26.667  0.00  0.00    +0.034 C 
BRANCH  26  27
ATOM     27  C   UNL     1       6.197  -1.225  25.339  0.00  0.00    +0.090 C 
BRANCH  27  28
ATOM     28  C   UNL     1       4.967  -2.115  25.409  0.00  0.00    -0.106 C 
ATOM     29  C   UNL     1       3.912  -2.878  25.469  0.00  0.00    +0.004 C 
ENDBRANCH  27  28
ENDBRANCH  26  27
ENDBRANCH  25  26
ENDBRANCH   2  25
TORSDOF 9
ENDMDL
MODEL 3
REMARK VINA RESULT:      -6.0      1.763      3.037
REMARK  Name = 
REMARK  11 active torsions:
REMARK  status: ('A' for Active; 'I' for Inactive)
REMARK    1  A    between atoms: C_1  and  O_2
REMARK    2  A    between atoms: O_2  and  C_3
REMARK    3  A    between atoms: C_5  and  C_6
REMARK    4  A    between atoms: C_6  and  C_7
REMARK    5  A    between atoms: C_10  and  N_11
REMARK    6  A    between atoms: N_17  and  C_18
REMARK    7  A    between atoms: C_18  and  C_19
REMARK    8  A    between atoms: C_19  and  C_20
REMARK    9  A    between atoms: C_20  and  C_21
REMARK   10  A    between atoms: C_23  and  O_24
REMARK   11  A    between atoms: O_24  and  C_25
REMARK                            x       y       z     vdW  Elec       q    Type
REMARK                         _______ _______ _______ _____ _____    ______ ____
ROOT
ATOM      1  C   UNL     1       8.875  -0.942  22.266  0.00  0.00    +0.116 A 
ATOM      2  N   UNL     1       9.454  -1.388  23.443  0.00  0.00    -0.312 N 
ATOM      3  C   UNL     1       8.973  -2.646  23.699  0.00  0.00    +0.168 A 
ATOM      4  C   UNL     1       8.104  -2.923  22.665  0.00  0.00    +0.148 A 
ATOM      5  C   UNL     1       7.479  -4.183  22.698  0.00  0.00    +0.150 A 
ATOM      6  N   UNL     1       7.799  -5.041  23.692  0.00  0.00    -0.185 NA
ATOM      7  C   UNL     1       8.674  -4.637  24.635  0.00  0.00    +0.313 A 
ATOM      8  F   UNL     1       8.979  -5.534  25.587  0.00  0.00    -0.161 F 
ATOM      9  N   UNL     1       9.301  -3.450  24.722  0.00  0.00    -0.182 NA
ATOM     10  N   UNL     1       8.052  -1.865  21.782  0.00  0.00    -0.227 NA
ENDROOT
BRANCH   5  11
ATOM     11  N   UNL     1       6.564  -4.609  21.746  0.00  0.00    -0.341 N 
ATOM     12  H   UNL     1       6.981  -4.723  20.831  0.00  0.00    +0.144 HD
ATOM     13  H   UNL     1       5.665  -4.148  21.802  0.00  0.00    +0.144 HD
ENDBRANCH   5  11
BRANCH   1  14
ATOM     14  C   UNL     1       9.165   0.388  21.609  0.00  0.00    +0.113 C 
BRANCH  14  19
ATOM     15  C   UNL     1       6.357   2.793  22.660  0.00  0.00    +0.121 A 
ATOM     16  C   UNL     1       7.086   3.860  23.167  0.00  0.00    +0.049 A 
ATOM     17  C   UNL     1       8.479   3.807  23.186  0.00  0.00    +0.049 A 
ATOM     18  C   UNL     1       9.159   2.683  22.703  0.00  0.00    +0.124 A 
ATOM     19  C   UNL     1       8.429   1.604  22.152  0.00  0.00    +0.005 A 
ATOM     20  C   UNL     1       7.025   1.696  22.113  0.00  0.00    +0.053 A 
BRANCH  15  22
ATOM     21  C   UNL     1       4.366   2.979  23.886  0.00  0.00    +0.277 C 
ATOM     22  O   UNL     1       4.992   2.735  22.628  0.00  0.00    -0.495 OA
ENDBRANCH  15  22
BRANCH  18  23
ATOM     23  O   UNL     1      10.527   2.554  22.735  0.00  0.00    -0.495 OA
ATOM     24  C   UNL     1      11.254   3.582  23.405  0.00  0.00    +0.277 C 
ENDBRANCH  18  23
ENDBRANCH  14  19
ENDBRANCH   1  14
BRANCH   2  25
ATOM     25  C   UNL     1      10.407  -0.711  24.299  0.00  0.00    +0.126 C 
BRANCH  25  26
ATOM     26  C   UNL     1       9.760   0.268  25.292  0.00  0.00    +0.034 C 
BRANCH  26  27
ATOM     27  C   UNL     1       8.279  -0.011  25.542  0.00  0.00    +0.090 C 
BRANCH  27  28
ATOM     28  C   UNL     1       7.622   1.270  26.028  0.00  0.00    -0.106 C 
ATOM     29  C   UNL     1       7.058   2.369  26.445  0.00  0.00    +0.004 C 
ENDBRANCH  27  28
ENDBRANCH  26  27
ENDBRANCH  25  26
ENDBRANCH   2  25
TORSDOF 9
ENDMDL
MODEL 4
REMARK VINA RESULT:      -5.9      1.601      2.363
REMARK  Name = 
REMARK  11 active torsions:
REMARK  status: ('A' for Active; 'I' for Inactive)
REMARK    1  A    between atoms: C_1  and  O_2
REMARK    2  A    between atoms: O_2  and  C_3
REMARK    3  A    between atoms: C_5  and  C_6
REMARK    4  A    between atoms: C_6  and  C_7
REMARK    5  A    between atoms: C_10  and  N_11
REMARK    6  A    between atoms: N_17  and  C_18
REMARK    7  A    between atoms: C_18  and  C_19
REMARK    8  A    between atoms: C_19  and  C_20
REMARK    9  A    between atoms: C_20  and  C_21
REMARK   10  A    between atoms: C_23  and  O_24
REMARK   11  A    between atoms: O_24  and  C_25
REMARK                            x       y       z     vdW  Elec       q    Type
REMARK                         _______ _______ _______ _____ _____    ______ ____
ROOT
ATOM      1  C   UNL     1       8.786  -1.837  25.038  0.00  0.00    +0.116 A 
ATOM      2  N   UNL     1       8.018  -2.175  23.936  0.00  0.00    -0.312 N 
ATOM      3  C   UNL     1       7.456  -3.402  24.173  0.00  0.00    +0.168 A 
ATOM      4  C   UNL     1       7.911  -3.779  25.419  0.00  0.00    +0.148 A 
ATOM      5  C   UNL     1       7.457  -5.021  25.898  0.00  0.00    +0.150 A 
ATOM      6  N   UNL     1       6.586  -5.728  25.145  0.00  0.00    -0.185 NA
ATOM      7  C   UNL     1       6.220  -5.233  23.946  0.00  0.00    +0.313 A 
ATOM      8  F   UNL     1       5.334  -5.960  23.246  0.00  0.00    -0.161 F 
ATOM      9  N   UNL     1       6.616  -4.080  23.376  0.00  0.00    -0.182 NA
ATOM     10  N   UNL     1       8.730  -2.803  25.948  0.00  0.00    -0.227 NA
ENDROOT
BRANCH   5  11
ATOM     11  N   UNL     1       7.836  -5.555  27.121  0.00  0.00    -0.341 N 
ATOM     12  H   UNL     1       8.822  -5.781  27.158  0.00  0.00    +0.144 HD
ATOM     13  H   UNL     1       7.181  -6.229  27.498  0.00  0.00    +0.144 HD
ENDBRANCH   5  11
BRANCH   1  14
ATOM     14  C   UNL     1       9.549  -0.542  25.199  0.00  0.00    +0.113 C 
BRANCH  14  19
ATOM     15  C   UNL     1       6.735   1.916  26.098  0.00  0.00    +0.121 A 
ATOM     16  C   UNL     1       7.230   3.102  25.571  0.00  0.00    +0.049 A 
ATOM     17  C   UNL     1       8.471   3.121  24.938  0.00  0.00    +0.049 A 
ATOM     18  C   UNL     1       9.236   1.953  24.830  0.00  0.00    +0.124 A 
ATOM     19  C   UNL     1       8.729   0.733  25.332  0.00  0.00    +0.005 A 
ATOM     20  C   UNL     1       7.458   0.733  25.936  0.00  0.00    +0.053 A 
BRANCH  15  22
ATOM     21  C   UNL     1       5.679   1.447  28.139  0.00  0.00    +0.277 C 
ATOM     22  O   UNL     1       5.547   1.802  26.764  0.00  0.00    -0.495 OA
ENDBRANCH  15  22
BRANCH  18  23
ATOM     23  O   UNL     1      10.485   1.917  24.256  0.00  0.00    -0.495 OA
ATOM     24  C   UNL     1      10.874   3.057  23.492  0.00  0.00    +0.277 C 
ENDBRANCH  18  23
ENDBRANCH  14  19
ENDBRANCH   1  14
BRANCH   2  25
ATOM     25  C   UNL     1       7.794  -1.418  22.721  0.00  0.00    +0.126 C 
BRANCH  25  26
ATOM     26  C   UNL     1       8.955  -1.501  21.718  0.00  0.00    +0.034 C 
BRANCH  26  27
ATOM     27  C   UNL     1       9.701  -0.179  21.542  0.00  0.00    +0.090 C 
BRANCH  27  28
ATOM     28  C   UNL     1       8.681   0.948  21.502  0.00  0.00    -0.106 C 
ATOM     29  C   UNL     1       7.807   1.914  21.466  0.00  0.00    +0.004 C 
ENDBRANCH  27  28
ENDBRANCH  26  27
ENDBRANCH  25  26
ENDBRANCH   2  25
TORSDOF 9
ENDMDL
MODEL 5
REMARK VINA RESULT:      -5.9      3.947      7.448
REMARK  Name = 
REMARK  11 active torsions:
REMARK  status: ('A' for Active; 'I' for Inactive)
REMARK    1  A    between atoms: C_1  and  O_2
REMARK    2  A    between atoms: O_2  and  C_3
REMARK    3  A    between atoms: C_5  and  C_6
REMARK    4  A    between atoms: C_6  and  C_7
REMARK    5  A    between atoms: C_10  and  N_11
REMARK    6  A    between atoms: N_17  and  C_18
REMARK    7  A    between atoms: C_18  and  C_19
REMARK    8  A    between atoms: C_19  and  C_20
REMARK    9  A    between atoms: C_20  and  C_21
REMARK   10  A    between atoms: C_23  and  O_24
REMARK   11  A    between atoms: O_24  and  C_25
REMARK                            x       y       z     vdW  Elec       q    Type
REMARK                         _______ _______ _______ _____ _____    ______ ____
ROOT
ATOM      1  C   UNL     1       6.445  -1.322  24.995  0.00  0.00    +0.116 A 
ATOM      2  N   UNL     1       7.725  -1.479  24.488  0.00  0.00    -0.312 N 
ATOM      3  C   UNL     1       7.956  -0.459  23.602  0.00  0.00    +0.168 A 
ATOM      4  C   UNL     1       6.796   0.286  23.592  0.00  0.00    +0.148 A 
ATOM      5  C   UNL     1       6.789   1.414  22.751  0.00  0.00    +0.150 A 
ATOM      6  N   UNL     1       7.910   1.715  22.060  0.00  0.00    -0.185 NA
ATOM      7  C   UNL     1       8.976   0.898  22.172  0.00  0.00    +0.313 A 
ATOM      8  F   UNL     1      10.075   1.253  21.485  0.00  0.00    -0.161 F 
ATOM      9  N   UNL     1       9.082  -0.219  22.914  0.00  0.00    -0.182 NA
ATOM     10  N   UNL     1       5.869  -0.253  24.459  0.00  0.00    -0.227 NA
ENDROOT
BRANCH   5  11
ATOM     11  N   UNL     1       5.696   2.257  22.610  0.00  0.00    -0.341 N 
ATOM     12  H   UNL     1       4.920   1.989  23.202  0.00  0.00    +0.144 HD
ATOM     13  H   UNL     1       5.494   2.513  21.652  0.00  0.00    +0.144 HD
ENDBRANCH   5  11
BRANCH   1  14
ATOM     14  C   UNL     1       5.808  -2.217  26.033  0.00  0.00    +0.113 C 
BRANCH  14  19
ATOM     15  C   UNL     1       3.991  -4.969  24.060  0.00  0.00    +0.121 A 
ATOM     16  C   UNL     1       4.430  -6.112  24.716  0.00  0.00    +0.049 A 
ATOM     17  C   UNL     1       5.320  -6.005  25.783  0.00  0.00    +0.049 A 
ATOM     18  C   UNL     1       5.786  -4.754  26.204  0.00  0.00    +0.124 A 
ATOM     19  C   UNL     1       5.319  -3.581  25.567  0.00  0.00    +0.005 A 
ATOM     20  C   UNL     1       4.395  -3.712  24.514  0.00  0.00    +0.053 A 
BRANCH  15  22
ATOM     21  C   UNL     1       2.177  -6.017  23.003  0.00  0.00    +0.277 C 
ATOM     22  O   UNL     1       3.146  -4.971  22.985  0.00  0.00    -0.495 OA
ENDBRANCH  15  22
BRANCH  18  23
ATOM     23  O   UNL     1       6.697  -4.588  27.220  0.00  0.00    -0.495 OA
ATOM     24  C   UNL     1       7.943  -5.267  27.083  0.00  0.00    +0.277 C 
ENDBRANCH  18  23
ENDBRANCH  14  19
ENDBRANCH   1  14
BRANCH   2  25
ATOM     25  C   UNL     1       8.702  -2.503  24.796  0.00  0.00    +0.126 C 
BRANCH  25  26
ATOM     26  C   UNL     1       8.629  -3.727  23.870  0.00  0.00    +0.034 C 
BRANCH  26  27
ATOM     27  C   UNL     1       7.653  -3.551  22.707  0.00  0.00    +0.090 C 
BRANCH  27  28
ATOM     28  C   UNL     1       7.193  -4.926  22.251  0.00  0.00    -0.106 C 
ATOM     29  C   UNL     1       6.798  -6.105  21.860  0.00  0.00    +0.004 C 
ENDBRANCH  27  28
ENDBRANCH  26  27
ENDBRANCH  25  26
ENDBRANCH   2  25
TORSDOF 9
ENDMDL
MODEL 6
REMARK VINA RESULT:      -5.9      4.115      7.635
REMARK  Name = 
REMARK  11 active torsions:
REMARK  status: ('A' for Active; 'I' for Inactive)
REMARK    1  A    between atoms: C_1  and  O_2
REMARK    2  A    between atoms: O_2  and  C_3
REMARK    3  A    between atoms: C_5  and  C_6
REMARK    4  A    between atoms: C_6  and  C_7
REMARK    5  A    between atoms: C_10  and  N_11
REMARK    6  A    between atoms: N_17  and  C_18
REMARK    7  A    between atoms: C_18  and  C_19
REMARK    8  A    between atoms: C_19  and  C_20
REMARK    9  A    between atoms: C_20  and  C_21
REMARK   10  A    between atoms: C_23  and  O_24
REMARK   11  A    between atoms: O_24  and  C_25
REMARK                            x       y       z     vdW  Elec       q    Type
REMARK                         _______ _______ _______ _____ _____    ______ ____
ROOT
ATOM      1  C   UNL     1       8.523  -3.006  24.730  0.00  0.00    +0.116 A 
ATOM      2  N   UNL     1       8.140  -1.843  25.377  0.00  0.00    -0.312 N 
ATOM      3  C   UNL     1       8.393  -0.790  24.537  0.00  0.00    +0.168 A 
ATOM      4  C   UNL     1       8.935  -1.351  23.400  0.00  0.00    +0.148 A 
ATOM      5  C   UNL     1       9.276  -0.458  22.368  0.00  0.00    +0.150 A 
ATOM      6  N   UNL     1       9.013   0.857  22.534  0.00  0.00    -0.185 NA
ATOM      7  C   UNL     1       8.472   1.265  23.699  0.00  0.00    +0.313 A 
ATOM      8  F   UNL     1       8.206   2.577  23.807  0.00  0.00    -0.161 F 
ATOM      9  N   UNL     1       8.140   0.508  24.761  0.00  0.00    -0.182 NA
ATOM     10  N   UNL     1       9.008  -2.722  23.527  0.00  0.00    -0.227 NA
ENDROOT
BRANCH   5  11
ATOM     11  N   UNL     1       9.849  -0.856  21.169  0.00  0.00    -0.341 N 
ATOM     12  H   UNL     1      10.736  -0.402  20.992  0.00  0.00    +0.144 HD
ATOM     13  H   UNL     1       9.192  -0.928  20.402  0.00  0.00    +0.144 HD
ENDBRANCH   5  11
BRANCH   1  14
ATOM     14  C   UNL     1       8.378  -4.401  25.295  0.00  0.00    +0.113 C 
BRANCH  14  19
ATOM     15  C   UNL     1       5.343  -5.875  23.454  0.00  0.00    +0.121 A 
ATOM     16  C   UNL     1       4.665  -6.493  24.496  0.00  0.00    +0.049 A 
ATOM     17  C   UNL     1       5.184  -6.452  25.789  0.00  0.00    +0.049 A 
ATOM     18  C   UNL     1       6.391  -5.795  26.054  0.00  0.00    +0.124 A 
ATOM     19  C   UNL     1       7.074  -5.132  25.008  0.00  0.00    +0.005 A 
ATOM     20  C   UNL     1       6.513  -5.159  23.718  0.00  0.00    +0.053 A 
BRANCH  15  22
ATOM     21  C   UNL     1       5.996  -5.781  21.202  0.00  0.00    +0.277 C 
ATOM     22  O   UNL     1       4.934  -5.887  22.149  0.00  0.00    -0.495 OA
ENDBRANCH  15  22
BRANCH  18  23
ATOM     23  O   UNL     1       6.976  -5.757  27.298  0.00  0.00    -0.495 OA
ATOM     24  C   UNL     1       6.120  -5.984  28.416  0.00  0.00    +0.277 C 
ENDBRANCH  18  23
ENDBRANCH  14  19
ENDBRANCH   1  14
BRANCH   2  25
ATOM     25  C   UNL     1       7.562  -1.688  26.697  0.00  0.00    +0.126 C 
BRANCH  25  26
ATOM     26  C   UNL     1       6.084  -2.101  26.776  0.00  0.00    +0.034 C 
BRANCH  26  27
ATOM     27  C   UNL     1       5.304  -1.818  25.493  0.00  0.00    +0.090 C 
BRANCH  27  28
ATOM     28  C   UNL     1       4.058  -2.687  25.484  0.00  0.00    -0.106 C 
ATOM     29  C   UNL     1       2.988  -3.432  25.476  0.00  0.00    +0.004 C 
ENDBRANCH  27  28
ENDBRANCH  26  27
ENDBRANCH  25  26
ENDBRANCH   2  25
TORSDOF 9
ENDMDL
MODEL 7
REMARK VINA RESULT:      -5.8      2.288      3.428
REMARK  Name = 
REMARK  11 active torsions:
REMARK  status: ('A' for Active; 'I' for Inactive)
REMARK    1  A    between atoms: C_1  and  O_2
REMARK    2  A    between atoms: O_2  and  C_3
REMARK    3  A    between atoms: C_5  and  C_6
REMARK    4  A    between atoms: C_6  and  C_7
REMARK    5  A    between atoms: C_10  and  N_11
REMARK    6  A    between atoms: N_17  and  C_18
REMARK    7  A    between atoms: C_18  and  C_19
REMARK    8  A    between atoms: C_19  and  C_20
REMARK    9  A    between atoms: C_20  and  C_21
REMARK   10  A    between atoms: C_23  and  O_24
REMARK   11  A    between atoms: O_24  and  C_25
REMARK                            x       y       z     vdW  Elec       q    Type
REMARK                         _______ _______ _______ _____ _____    ______ ____
ROOT
ATOM      1  C   UNL     1       7.777  -3.212  25.008  0.00  0.00    +0.116 A 
ATOM      2  N   UNL     1       8.035  -3.305  23.650  0.00  0.00    -0.312 N 
ATOM      3  C   UNL     1       7.235  -4.291  23.135  0.00  0.00    +0.168 A 
ATOM      4  C   UNL     1       6.516  -4.776  24.207  0.00  0.00    +0.148 A 
ATOM      5  C   UNL     1       5.601  -5.807  23.928  0.00  0.00    +0.150 A 
ATOM      6  N   UNL     1       5.454  -6.215  22.648  0.00  0.00    -0.185 NA
ATOM      7  C   UNL     1       6.220  -5.645  21.697  0.00  0.00    +0.313 A 
ATOM      8  F   UNL     1       6.019  -6.066  20.438  0.00  0.00    -0.161 F 
ATOM      9  N   UNL     1       7.146  -4.682  21.855  0.00  0.00    -0.182 NA
ATOM     10  N   UNL     1       6.855  -4.100  25.360  0.00  0.00    -0.227 NA
ENDROOT
BRANCH   5  11
ATOM     11  N   UNL     1       4.816  -6.417  24.896  0.00  0.00    -0.341 N 
ATOM     12  H   UNL     1       5.103  -6.178  25.836  0.00  0.00    +0.144 HD
ATOM     13  H   UNL     1       4.597  -7.386  24.700  0.00  0.00    +0.144 HD
ENDBRANCH   5  11
BRANCH   1  14
ATOM     14  C   UNL     1       8.425  -2.219  25.946  0.00  0.00    +0.113 C 
BRANCH  14  19
ATOM     15  C   UNL     1       6.273   0.962  26.089  0.00  0.00    +0.121 A 
ATOM     16  C   UNL     1       7.169   1.919  25.632  0.00  0.00    +0.049 A 
ATOM     17  C   UNL     1       8.469   1.551  25.289  0.00  0.00    +0.049 A 
ATOM     18  C   UNL     1       8.890   0.221  25.405  0.00  0.00    +0.124 A 
ATOM     19  C   UNL     1       7.977  -0.769  25.837  0.00  0.00    +0.005 A 
ATOM     20  C   UNL     1       6.661  -0.378  26.145  0.00  0.00    +0.053 A 
BRANCH  15  22
ATOM     21  C   UNL     1       4.388   2.329  25.803  0.00  0.00    +0.277 C 
ATOM     22  O   UNL     1       4.990   1.228  26.481  0.00  0.00    -0.495 OA
ENDBRANCH  15  22
BRANCH  18  23
ATOM     23  O   UNL     1      10.170  -0.195  25.124  0.00  0.00    -0.495 OA
ATOM     24  C   UNL     1      11.053   0.774  24.564  0.00  0.00    +0.277 C 
ENDBRANCH  18  23
ENDBRANCH  14  19
ENDBRANCH   1  14
BRANCH   2  25
ATOM     25  C   UNL     1       8.961  -2.531  22.848  0.00  0.00    +0.126 C 
BRANCH  25  26
ATOM     26  C   UNL     1       8.312  -1.334  22.136  0.00  0.00    +0.034 C 
BRANCH  26  27
ATOM     27  C   UNL     1       9.326  -0.365  21.530  0.00  0.00    +0.090 C 
BRANCH  27  28
ATOM     28  C   UNL     1       8.768   1.044  21.632  0.00  0.00    -0.106 C 
ATOM     29  C   UNL     1       8.288   2.253  21.720  0.00  0.00    +0.004 C 
ENDBRANCH  27  28
ENDBRANCH  26  27
ENDBRANCH  25  26
ENDBRANCH   2  25
TORSDOF 9
ENDMDL
MODEL 8
REMARK VINA RESULT:      -5.8      3.983      7.804
REMARK  Name = 
REMARK  11 active torsions:
REMARK  status: ('A' for Active; 'I' for Inactive)
REMARK    1  A    between atoms: C_1  and  O_2
REMARK    2  A    between atoms: O_2  and  C_3
REMARK    3  A    between atoms: C_5  and  C_6
REMARK    4  A    between atoms: C_6  and  C_7
REMARK    5  A    between atoms: C_10  and  N_11
REMARK    6  A    between atoms: N_17  and  C_18
REMARK    7  A    between atoms: C_18  and  C_19
REMARK    8  A    between atoms: C_19  and  C_20
REMARK    9  A    between atoms: C_20  and  C_21
REMARK   10  A    between atoms: C_23  and  O_24
REMARK   11  A    between atoms: O_24  and  C_25
REMARK                            x       y       z     vdW  Elec       q    Type
REMARK                         _______ _______ _______ _____ _____    ______ ____
ROOT
ATOM      1  C   UNL     1       6.430  -1.084  24.900  0.00  0.00    +0.116 A 
ATOM      2  N   UNL     1       7.704  -1.416  25.333  0.00  0.00    -0.312 N 
ATOM      3  C   UNL     1       8.580  -0.503  24.807  0.00  0.00    +0.168 A 
ATOM      4  C   UNL     1       7.806   0.357  24.057  0.00  0.00    +0.148 A 
ATOM      5  C   UNL     1       8.487   1.406  23.413  0.00  0.00    +0.150 A 
ATOM      6  N   UNL     1       9.819   1.529  23.605  0.00  0.00    -0.185 NA
ATOM      7  C   UNL     1      10.448   0.617  24.372  0.00  0.00    +0.313 A 
ATOM      8  F   UNL     1      11.766   0.796  24.553  0.00  0.00    -0.161 F 
ATOM      9  N   UNL     1       9.906  -0.441  25.004  0.00  0.00    -0.182 NA
ATOM     10  N   UNL     1       6.478  -0.007  24.123  0.00  0.00    -0.227 NA
ENDROOT
BRANCH   5  11
ATOM     11  N   UNL     1       7.861   2.345  22.607  0.00  0.00    -0.341 N 
ATOM     12  H   UNL     1       7.754   3.241  23.065  0.00  0.00    +0.144 HD
ATOM     13  H   UNL     1       7.070   1.982  22.088  0.00  0.00    +0.144 HD
ENDBRANCH   5  11
BRANCH   1  14
ATOM     14  C   UNL     1       5.166  -1.817  25.283  0.00  0.00    +0.113 C 
BRANCH  14  19
ATOM     15  C   UNL     1       5.090  -4.519  22.551  0.00  0.00    +0.121 A 
ATOM     16  C   UNL     1       4.251  -5.465  23.125  0.00  0.00    +0.049 A 
ATOM     17  C   UNL     1       3.718  -5.247  24.394  0.00  0.00    +0.049 A 
ATOM     18  C   UNL     1       4.022  -4.081  25.106  0.00  0.00    +0.124 A 
ATOM     19  C   UNL     1       4.847  -3.095  24.519  0.00  0.00    +0.005 A 
ATOM     20  C   UNL     1       5.346  -3.323  23.224  0.00  0.00    +0.053 A 
BRANCH  15  22
ATOM     21  C   UNL     1       6.654  -5.704  21.263  0.00  0.00    +0.277 C 
ATOM     22  O   UNL     1       5.688  -4.655  21.329  0.00  0.00    -0.495 OA
ENDBRANCH  15  22
BRANCH  18  23
ATOM     23  O   UNL     1       3.562  -3.829  26.378  0.00  0.00    -0.495 OA
ATOM     24  C   UNL     1       2.921  -4.908  27.055  0.00  0.00    +0.277 C 
ENDBRANCH  18  23
ENDBRANCH  14  19
ENDBRANCH   1  14
BRANCH   2  25
ATOM     25  C   UNL     1       8.112  -2.508  26.193  0.00  0.00    +0.126 C 
BRANCH  25  26
ATOM     26  C   UNL     1       8.821  -3.650  25.447  0.00  0.00    +0.034 C 
BRANCH  26  27
ATOM     27  C   UNL     1       7.929  -4.869  25.215  0.00  0.00    +0.090 C 
BRANCH  27  28
ATOM     28  C   UNL     1       7.224  -5.206  26.518  0.00  0.00    -0.106 C 
ATOM     29  C   UNL     1       6.621  -5.497  27.637  0.00  0.00    +0.004 C 
ENDBRANCH  27  28
ENDBRANCH  26  27
ENDBRANCH  25  26
ENDBRANCH   2  25
TORSDOF 9
ENDMDL
MODEL 9
REMARK VINA RESULT:      -5.7      4.150      7.403
REMARK  Name = 
REMARK  11 active torsions:
REMARK  status: ('A' for Active; 'I' for Inactive)
REMARK    1  A    between atoms: C_1  and  O_2
REMARK    2  A    between atoms: O_2  and  C_3
REMARK    3  A    between atoms: C_5  and  C_6
REMARK    4  A    between atoms: C_6  and  C_7
REMARK    5  A    between atoms: C_10  and  N_11
REMARK    6  A    between atoms: N_17  and  C_18
REMARK    7  A    between atoms: C_18  and  C_19
REMARK    8  A    between atoms: C_19  and  C_20
REMARK    9  A    between atoms: C_20  and  C_21
REMARK   10  A    between atoms: C_23  and  O_24
REMARK   11  A    between atoms: O_24  and  C_25
REMARK                            x       y       z     vdW  Elec       q    Type
REMARK                         _______ _______ _______ _____ _____    ______ ____
ROOT
ATOM      1  C   UNL     1       8.064  -3.394  25.710  0.00  0.00    +0.116 A 
ATOM      2  N   UNL     1       8.097  -3.525  24.332  0.00  0.00    -0.312 N 
ATOM      3  C   UNL     1       8.713  -2.415  23.817  0.00  0.00    +0.168 A 
ATOM      4  C   UNL     1       9.029  -1.632  24.907  0.00  0.00    +0.148 A 
ATOM      5  C   UNL     1       9.689  -0.421  24.633  0.00  0.00    +0.150 A 
ATOM      6  N   UNL     1      10.006  -0.129  23.353  0.00  0.00    -0.185 NA
ATOM      7  C   UNL     1       9.640  -0.992  22.385  0.00  0.00    +0.313 A 
ATOM      8  F   UNL     1       9.999  -0.671  21.131  0.00  0.00    -0.161 F 
ATOM      9  N   UNL     1       8.979  -2.156  22.527  0.00  0.00    -0.182 NA
ATOM     10  N   UNL     1       8.628  -2.248  26.074  0.00  0.00    -0.227 NA
ENDROOT
BRANCH   5  11
ATOM     11  N   UNL     1      10.059   0.488  25.614  0.00  0.00    -0.341 N 
ATOM     12  H   UNL     1      11.063   0.603  25.679  0.00  0.00    +0.144 HD
ATOM     13  H   UNL     1       9.537   0.400  26.477  0.00  0.00    +0.144 HD
ENDBRANCH   5  11
BRANCH   1  14
ATOM     14  C   UNL     1       7.501  -4.421  26.666  0.00  0.00    +0.113 C 
BRANCH  14  19
ATOM     15  C   UNL     1       3.799  -3.388  26.652  0.00  0.00    +0.121 A 
ATOM     16  C   UNL     1       3.337  -4.011  27.803  0.00  0.00    +0.049 A 
ATOM     17  C   UNL     1       4.206  -4.775  28.581  0.00  0.00    +0.049 A 
ATOM     18  C   UNL     1       5.547  -4.929  28.212  0.00  0.00    +0.124 A 
ATOM     19  C   UNL     1       6.039  -4.272  27.060  0.00  0.00    +0.005 A 
ATOM     20  C   UNL     1       5.150  -3.479  26.311  0.00  0.00    +0.053 A 
BRANCH  15  22
ATOM     21  C   UNL     1       1.618  -2.854  25.971  0.00  0.00    +0.277 C 
ATOM     22  O   UNL     1       3.020  -2.647  25.807  0.00  0.00    -0.495 OA
ENDBRANCH  15  22
BRANCH  18  23
ATOM     23  O   UNL     1       6.441  -5.704  28.912  0.00  0.00    -0.495 OA
ATOM     24  C   UNL     1       5.968  -6.299  30.119  0.00  0.00    +0.277 C 
ENDBRANCH  18  23
ENDBRANCH  14  19
ENDBRANCH   1  14
BRANCH   2  25
ATOM     25  C   UNL     1       7.600  -4.612  23.513  0.00  0.00    +0.126 C 
BRANCH  25  26
ATOM     26  C   UNL     1       6.197  -4.362  22.937  0.00  0.00    +0.034 C 
BRANCH  26  27
ATOM     27  C   UNL     1       5.453  -5.645  22.572  0.00  0.00    +0.090 C 
BRANCH  27  28
ATOM     28  C   UNL     1       4.960  -6.297  23.854  0.00  0.00    -0.106 C 
ATOM     29  C   UNL     1       4.538  -6.857  24.953  0.00  0.00    +0.004 C 
ENDBRANCH  27  28
ENDBRANCH  26  27
ENDBRANCH  25  26
ENDBRANCH   2  25
TORSDOF 9
ENDMDL
