MODEL 1
REMARK VINA RESULT:      -7.6      0.000      0.000
REMARK  Name = 
REMARK  10 active torsions:
REMARK  status: ('A' for Active; 'I' for Inactive)
REMARK    1  A    between atoms: CA_2  and  N_3
REMARK    2  A    between atoms: CA_2  and  C_4
REMARK    3  A    between atoms: CA_2  and  C_23
REMARK    4  A    between atoms: C_4  and  C_5
REMARK    5  A    between atoms: C_5  and  C_6
REMARK    6  A    between atoms: N_8  and  C_9
REMARK    7  A    between atoms: C_12  and  O_13
REMARK    8  A    between atoms: O_13  and  C_14
REMARK    9  A    between atoms: C_14  and  C_15
REMARK   10  A    between atoms: C_23  and  O_24
REMARK                            x       y       z     vdW  Elec       q    Type
REMARK                         _______ _______ _______ _____ _____    ______ ____
ROOT
ATOM      1  C   UNL     1       9.475   4.048  24.233  0.00  0.00    +0.217 C 
ATOM      2  N   UNL     1      10.244   3.309  23.344  0.00  0.00    -0.285 N 
ATOM      3  H   UNL     1      11.055   3.759  22.940  0.00  0.00    +0.155 HD
ATOM      4  O   UNL     1       8.700   3.595  25.070  0.00  0.00    -0.275 OA
ENDROOT
BRANCH   2   5
ATOM      5  C   UNL     1      10.085   1.930  23.096  0.00  0.00    +0.034 A 
ATOM      6  C   UNL     1      10.362   1.017  24.117  0.00  0.00    +0.027 A 
ATOM      7  C   UNL     1      10.211  -0.359  23.892  0.00  0.00    +0.047 A 
ATOM      8  C   UNL     1       9.815  -0.828  22.640  0.00  0.00    +0.121 A 
ATOM      9  C   UNL     1       9.533   0.084  21.627  0.00  0.00    +0.047 A 
ATOM     10  C   UNL     1       9.688   1.448  21.848  0.00  0.00    +0.027 A 
BRANCH   8  11
ATOM     11  O   UNL     1       9.741  -2.187  22.496  0.00  0.00    -0.487 OA
BRANCH  11  12
ATOM     12  C   UNL     1       8.417  -2.722  22.582  0.00  0.00    +0.264 C 
BRANCH  12  13
ATOM     13  C   UNL     1       8.330  -3.640  23.770  0.00  0.00    -0.010 A 
ATOM     14  C   UNL     1       9.460  -3.867  24.569  0.00  0.00    +0.007 A 
ATOM     15  C   UNL     1       9.385  -4.717  25.670  0.00  0.00    +0.000 A 
ATOM     16  C   UNL     1       8.181  -5.342  25.984  0.00  0.00    +0.000 A 
ATOM     17  C   UNL     1       7.052  -5.124  25.195  0.00  0.00    +0.000 A 
ATOM     18  C   UNL     1       7.126  -4.275  24.092  0.00  0.00    +0.007 A 
ENDBRANCH  12  13
ENDBRANCH  11  12
ENDBRANCH   8  11
ENDBRANCH   2   5
BRANCH   1  19
ATOM     19  C   UNL     1       9.686   5.542  24.126  0.00  0.00    +0.098 C 
BRANCH  19  20
ATOM     20  C   UNL     1      10.906   5.952  23.301  0.00  0.00    +0.039 C 
BRANCH  20  21
ATOM     21  CA  UNL     1      12.271   5.623  23.932  0.00  0.00    +0.161 C 
BRANCH  21  22
ATOM     22  N   UNL     1      12.743   6.679  24.827  0.00  0.00    -0.318 NA
ATOM     23  H1  UNL     1      12.252   6.808  25.705  0.00  0.00    +0.119 HD
ATOM     24  H2  UNL     1      13.711   6.978  24.770  0.00  0.00    +0.119 HD
ENDBRANCH  21  22
BRANCH  21  25
ATOM     25  C   UNL     1      13.287   5.382  22.801  0.00  0.00    +0.322 C 
ATOM     26  OXT UNL     1      13.050   5.543  21.615  0.00  0.00    -0.249 OA
BRANCH  25  27
ATOM     27  O   UNL     1      14.505   4.997  23.257  0.00  0.00    -0.480 OA
ATOM     28  H   UNL     1      14.378   4.215  23.829  0.00  0.00    +0.295 HD
ENDBRANCH  25  27
ENDBRANCH  21  25
ENDBRANCH  20  21
ENDBRANCH  19  20
ENDBRANCH   1  19
TORSDOF 10
ENDMDL
MODEL 2
REMARK VINA RESULT:      -7.6      1.072      1.726
REMARK  Name = 
REMARK  10 active torsions:
REMARK  status: ('A' for Active; 'I' for Inactive)
REMARK    1  A    between atoms: CA_2  and  N_3
REMARK    2  A    between atoms: CA_2  and  C_4
REMARK    3  A    between atoms: CA_2  and  C_23
REMARK    4  A    between atoms: C_4  and  C_5
REMARK    5  A    between atoms: C_5  and  C_6
REMARK    6  A    between atoms: N_8  and  C_9
REMARK    7  A    between atoms: C_12  and  O_13
REMARK    8  A    between atoms: O_13  and  C_14
REMARK    9  A    between atoms: C_14  and  C_15
REMARK   10  A    between atoms: C_23  and  O_24
REMARK                            x       y       z     vdW  Elec       q    Type
REMARK                         _______ _______ _______ _____ _____    ______ ____
ROOT
ATOM      1  C   UNL     1       9.420   4.082  24.341  0.00  0.00    +0.217 C 
ATOM      2  N   UNL     1      10.319   3.266  23.666  0.00  0.00    -0.285 N 
ATOM      3  H   UNL     1      11.204   3.673  23.391  0.00  0.00    +0.155 HD
ATOM      4  O   UNL     1       8.490   3.704  25.048  0.00  0.00    -0.275 OA
ENDROOT
BRANCH   2   5
ATOM      5  C   UNL     1      10.169   1.876  23.488  0.00  0.00    +0.034 A 
ATOM      6  C   UNL     1      10.393   1.022  24.572  0.00  0.00    +0.027 A 
ATOM      7  C   UNL     1      10.250  -0.364  24.418  0.00  0.00    +0.047 A 
ATOM      8  C   UNL     1       9.915  -0.904  23.177  0.00  0.00    +0.121 A 
ATOM      9  C   UNL     1       9.684  -0.051  22.101  0.00  0.00    +0.047 A 
ATOM     10  C   UNL     1       9.832   1.324  22.252  0.00  0.00    +0.027 A 
BRANCH   8  11
ATOM     11  O   UNL     1       9.844  -2.269  23.107  0.00  0.00    -0.487 OA
BRANCH  11  12
ATOM     12  C   UNL     1       8.885  -2.860  23.988  0.00  0.00    +0.264 C 
BRANCH  12  13
ATOM     13  C   UNL     1       7.883  -3.638  23.179  0.00  0.00    -0.010 A 
ATOM     14  C   UNL     1       7.855  -5.037  23.250  0.00  0.00    +0.007 A 
ATOM     15  C   UNL     1       6.930  -5.762  22.502  0.00  0.00    +0.000 A 
ATOM     16  C   UNL     1       6.025  -5.094  21.681  0.00  0.00    +0.000 A 
ATOM     17  C   UNL     1       6.046  -3.702  21.602  0.00  0.00    +0.000 A 
ATOM     18  C   UNL     1       6.972  -2.975  22.349  0.00  0.00    +0.007 A 
ENDBRANCH  12  13
ENDBRANCH  11  12
ENDBRANCH   8  11
ENDBRANCH   2   5
BRANCH   1  19
ATOM     19  C   UNL     1       9.691   5.560  24.173  0.00  0.00    +0.098 C 
BRANCH  19  20
ATOM     20  C   UNL     1      10.900   5.887  23.295  0.00  0.00    +0.039 C 
BRANCH  20  21
ATOM     21  CA  UNL     1      12.272   5.587  23.924  0.00  0.00    +0.161 C 
BRANCH  21  22
ATOM     22  N   UNL     1      12.716   6.646  24.830  0.00  0.00    -0.318 NA
ATOM     23  H1  UNL     1      12.753   7.593  24.468  0.00  0.00    +0.119 HD
ATOM     24  H2  UNL     1      12.605   6.518  25.830  0.00  0.00    +0.119 HD
ENDBRANCH  21  22
BRANCH  21  25
ATOM     25  C   UNL     1      13.295   5.384  22.791  0.00  0.00    +0.322 C 
ATOM     26  OXT UNL     1      13.061   5.573  21.609  0.00  0.00    -0.249 OA
BRANCH  25  27
ATOM     27  O   UNL     1      14.514   4.996  23.242  0.00  0.00    -0.480 OA
ATOM     28  H   UNL     1      14.834   5.679  23.865  0.00  0.00    +0.295 HD
ENDBRANCH  25  27
ENDBRANCH  21  25
ENDBRANCH  20  21
ENDBRANCH  19  20
ENDBRANCH   1  19
TORSDOF 10
ENDMDL
MODEL 3
REMARK VINA RESULT:      -7.1      1.704      2.336
REMARK  Name = 
REMARK  10 active torsions:
REMARK  status: ('A' for Active; 'I' for Inactive)
REMARK    1  A    between atoms: CA_2  and  N_3
REMARK    2  A    between atoms: CA_2  and  C_4
REMARK    3  A    between atoms: CA_2  and  C_23
REMARK    4  A    between atoms: C_4  and  C_5
REMARK    5  A    between atoms: C_5  and  C_6
REMARK    6  A    between atoms: N_8  and  C_9
REMARK    7  A    between atoms: C_12  and  O_13
REMARK    8  A    between atoms: O_13  and  C_14
REMARK    9  A    between atoms: C_14  and  C_15
REMARK   10  A    between atoms: C_23  and  O_24
REMARK                            x       y       z     vdW  Elec       q    Type
REMARK                         _______ _______ _______ _____ _____    ______ ____
ROOT
ATOM      1  C   UNL     1       9.686   1.831  23.771  0.00  0.00    +0.217 C 
ATOM      2  N   UNL     1       8.941   1.328  22.712  0.00  0.00    -0.285 N 
ATOM      3  H   UNL     1       8.946   1.852  21.847  0.00  0.00    +0.155 HD
ATOM      4  O   UNL     1      10.089   1.193  24.740  0.00  0.00    -0.275 OA
ENDROOT
BRANCH   2   5
ATOM      5  C   UNL     1       8.324   0.061  22.691  0.00  0.00    +0.034 A 
ATOM      6  C   UNL     1       8.966  -0.999  22.044  0.00  0.00    +0.027 A 
ATOM      7  C   UNL     1       8.371  -2.268  22.011  0.00  0.00    +0.047 A 
ATOM      8  C   UNL     1       7.121  -2.475  22.595  0.00  0.00    +0.121 A 
ATOM      9  C   UNL     1       6.488  -1.420  23.245  0.00  0.00    +0.047 A 
ATOM     10  C   UNL     1       7.075  -0.159  23.273  0.00  0.00    +0.027 A 
BRANCH   8  11
ATOM     11  O   UNL     1       6.594  -3.732  22.472  0.00  0.00    -0.487 OA
BRANCH  11  12
ATOM     12  C   UNL     1       7.491  -4.789  22.827  0.00  0.00    +0.264 C 
BRANCH  12  13
ATOM     13  C   UNL     1       7.490  -4.956  24.322  0.00  0.00    -0.010 A 
ATOM     14  C   UNL     1       8.669  -4.755  25.054  0.00  0.00    +0.007 A 
ATOM     15  C   UNL     1       8.674  -4.909  26.438  0.00  0.00    +0.000 A 
ATOM     16  C   UNL     1       7.501  -5.262  27.102  0.00  0.00    +0.000 A 
ATOM     17  C   UNL     1       6.324  -5.467  26.383  0.00  0.00    +0.000 A 
ATOM     18  C   UNL     1       6.318  -5.313  24.997  0.00  0.00    +0.007 A 
ENDBRANCH  12  13
ENDBRANCH  11  12
ENDBRANCH   8  11
ENDBRANCH   2   5
BRANCH   1  19
ATOM     19  C   UNL     1      10.024   3.299  23.637  0.00  0.00    +0.098 C 
BRANCH  19  20
ATOM     20  C   UNL     1      11.516   3.594  23.475  0.00  0.00    +0.039 C 
BRANCH  20  21
ATOM     21  CA  UNL     1      11.901   5.084  23.515  0.00  0.00    +0.161 C 
BRANCH  21  22
ATOM     22  N   UNL     1      10.815   5.955  23.070  0.00  0.00    -0.318 NA
ATOM     23  H1  UNL     1      10.728   6.865  23.511  0.00  0.00    +0.119 HD
ATOM     24  H2  UNL     1      10.439   5.837  22.135  0.00  0.00    +0.119 HD
ENDBRANCH  21  22
BRANCH  21  25
ATOM     25  C   UNL     1      13.150   5.289  22.639  0.00  0.00    +0.322 C 
ATOM     26  OXT UNL     1      13.124   5.673  21.481  0.00  0.00    -0.249 OA
BRANCH  25  27
ATOM     27  O   UNL     1      14.307   5.028  23.296  0.00  0.00    -0.480 OA
ATOM     28  H   UNL     1      15.036   5.058  22.645  0.00  0.00    +0.295 HD
ENDBRANCH  25  27
ENDBRANCH  21  25
ENDBRANCH  20  21
ENDBRANCH  19  20
ENDBRANCH   1  19
TORSDOF 10
ENDMDL
MODEL 4
REMARK VINA RESULT:      -7.1      2.301      3.740
REMARK  Name = 
REMARK  10 active torsions:
REMARK  status: ('A' for Active; 'I' for Inactive)
REMARK    1  A    between atoms: CA_2  and  N_3
REMARK    2  A    between atoms: CA_2  and  C_4
REMARK    3  A    between atoms: CA_2  and  C_23
REMARK    4  A    between atoms: C_4  and  C_5
REMARK    5  A    between atoms: C_5  and  C_6
REMARK    6  A    between atoms: N_8  and  C_9
REMARK    7  A    between atoms: C_12  and  O_13
REMARK    8  A    between atoms: O_13  and  C_14
REMARK    9  A    between atoms: C_14  and  C_15
REMARK   10  A    between atoms: C_23  and  O_24
REMARK                            x       y       z     vdW  Elec       q    Type
REMARK                         _______ _______ _______ _____ _____    ______ ____
ROOT
ATOM      1  C   UNL     1       9.451   4.494  23.934  0.00  0.00    +0.217 C 
ATOM      2  N   UNL     1      10.291   3.735  23.129  0.00  0.00    -0.285 N 
ATOM      3  H   UNL     1      11.043   4.216  22.653  0.00  0.00    +0.155 HD
ATOM      4  O   UNL     1       8.739   4.070  24.839  0.00  0.00    -0.275 OA
ENDROOT
BRANCH   2   5
ATOM      5  C   UNL     1      10.285   2.328  23.061  0.00  0.00    +0.034 A 
ATOM      6  C   UNL     1       9.814   1.703  21.902  0.00  0.00    +0.027 A 
ATOM      7  C   UNL     1       9.800   0.304  21.812  0.00  0.00    +0.047 A 
ATOM      8  C   UNL     1      10.225  -0.476  22.888  0.00  0.00    +0.121 A 
ATOM      9  C   UNL     1      10.701   0.149  24.037  0.00  0.00    +0.047 A 
ATOM     10  C   UNL     1      10.710   1.537  24.129  0.00  0.00    +0.027 A 
BRANCH   8  11
ATOM     11  O   UNL     1      10.131  -1.832  22.730  0.00  0.00    -0.487 OA
BRANCH  11  12
ATOM     12  C   UNL     1       9.677  -2.534  23.891  0.00  0.00    +0.264 C 
BRANCH  12  13
ATOM     13  C   UNL     1       8.420  -3.288  23.552  0.00  0.00    -0.010 A 
ATOM     14  C   UNL     1       7.615  -2.872  22.484  0.00  0.00    +0.007 A 
ATOM     15  C   UNL     1       6.450  -3.566  22.167  0.00  0.00    +0.000 A 
ATOM     16  C   UNL     1       6.083  -4.684  22.912  0.00  0.00    +0.000 A 
ATOM     17  C   UNL     1       6.876  -5.105  23.979  0.00  0.00    +0.000 A 
ATOM     18  C   UNL     1       8.042  -4.410  24.298  0.00  0.00    +0.007 A 
ENDBRANCH  12  13
ENDBRANCH  11  12
ENDBRANCH   8  11
ENDBRANCH   2   5
BRANCH   1  19
ATOM     19  C   UNL     1       9.493   5.975  23.634  0.00  0.00    +0.098 C 
BRANCH  19  20
ATOM     20  C   UNL     1       8.134   6.594  23.303  0.00  0.00    +0.039 C 
BRANCH  20  21
ATOM     21  CA  UNL     1       7.452   6.049  22.035  0.00  0.00    +0.161 C 
BRANCH  21  22
ATOM     22  N   UNL     1       6.862   7.108  21.218  0.00  0.00    -0.318 NA
ATOM     23  H1  UNL     1       6.888   6.997  20.210  0.00  0.00    +0.119 HD
ATOM     24  H2  UNL     1       6.136   7.693  21.618  0.00  0.00    +0.119 HD
ENDBRANCH  21  22
BRANCH  21  25
ATOM     25  C   UNL     1       6.378   5.032  22.457  0.00  0.00    +0.322 C 
ATOM     26  OXT UNL     1       5.479   5.266  23.249  0.00  0.00    -0.249 OA
BRANCH  25  27
ATOM     27  O   UNL     1       6.505   3.836  21.831  0.00  0.00    -0.480 OA
ATOM     28  H   UNL     1       5.795   3.770  21.162  0.00  0.00    +0.295 HD
ENDBRANCH  25  27
ENDBRANCH  21  25
ENDBRANCH  20  21
ENDBRANCH  19  20
ENDBRANCH   1  19
TORSDOF 10
ENDMDL
MODEL 5
REMARK VINA RESULT:      -7.0      1.922      2.923
REMARK  Name = 
REMARK  10 active torsions:
REMARK  status: ('A' for Active; 'I' for Inactive)
REMARK    1  A    between atoms: CA_2  and  N_3
REMARK    2  A    between atoms: CA_2  and  C_4
REMARK    3  A    between atoms: CA_2  and  C_23
REMARK    4  A    between atoms: C_4  and  C_5
REMARK    5  A    between atoms: C_5  and  C_6
REMARK    6  A    between atoms: N_8  and  C_9
REMARK    7  A    between atoms: C_12  and  O_13
REMARK    8  A    between atoms: O_13  and  C_14
REMARK    9  A    between atoms: C_14  and  C_15
REMARK   10  A    between atoms: C_23  and  O_24
REMARK                            x       y       z     vdW  Elec       q    Type
REMARK                         _______ _______ _______ _____ _____    ______ ____
ROOT
ATOM      1  C   UNL     1       9.193   2.142  23.595  0.00  0.00    +0.217 C 
ATOM      2  N   UNL     1       9.686   1.403  24.662  0.00  0.00    -0.285 N 
ATOM      3  H   UNL     1      10.097   1.913  25.433  0.00  0.00    +0.155 HD
ATOM      4  O   UNL     1       8.369   1.758  22.768  0.00  0.00    -0.275 OA
ENDROOT
BRANCH   2   5
ATOM      5  C   UNL     1       9.504   0.016  24.834  0.00  0.00    +0.034 A 
ATOM      6  C   UNL     1      10.029  -0.864  23.883  0.00  0.00    +0.027 A 
ATOM      7  C   UNL     1       9.860  -2.247  24.034  0.00  0.00    +0.047 A 
ATOM      8  C   UNL     1       9.141  -2.755  25.117  0.00  0.00    +0.121 A 
ATOM      9  C   UNL     1       8.627  -1.877  26.067  0.00  0.00    +0.047 A 
ATOM     10  C   UNL     1       8.789  -0.504  25.914  0.00  0.00    +0.027 A 
BRANCH   8  11
ATOM     11  O   UNL     1       8.985  -4.114  25.159  0.00  0.00    -0.487 OA
BRANCH  11  12
ATOM     12  C   UNL     1       7.624  -4.554  25.210  0.00  0.00    +0.264 C 
BRANCH  12  13
ATOM     13  C   UNL     1       7.083  -4.648  23.810  0.00  0.00    -0.010 A 
ATOM     14  C   UNL     1       7.570  -5.624  22.929  0.00  0.00    +0.007 A 
ATOM     15  C   UNL     1       7.073  -5.715  21.632  0.00  0.00    +0.000 A 
ATOM     16  C   UNL     1       6.082  -4.835  21.205  0.00  0.00    +0.000 A 
ATOM     17  C   UNL     1       5.591  -3.858  22.072  0.00  0.00    +0.000 A 
ATOM     18  C   UNL     1       6.089  -3.766  23.371  0.00  0.00    +0.007 A 
ENDBRANCH  12  13
ENDBRANCH  11  12
ENDBRANCH   8  11
ENDBRANCH   2   5
BRANCH   1  19
ATOM     19  C   UNL     1       9.737   3.550  23.523  0.00  0.00    +0.098 C 
BRANCH  19  20
ATOM     20  C   UNL     1      11.257   3.636  23.371  0.00  0.00    +0.039 C 
BRANCH  20  21
ATOM     21  CA  UNL     1      11.865   5.031  23.600  0.00  0.00    +0.161 C 
BRANCH  21  22
ATOM     22  N   UNL     1      10.905   6.107  23.360  0.00  0.00    -0.318 NA
ATOM     23  H1  UNL     1      10.433   6.128  22.461  0.00  0.00    +0.119 HD
ATOM     24  H2  UNL     1      10.448   6.547  24.152  0.00  0.00    +0.119 HD
ENDBRANCH  21  22
BRANCH  21  25
ATOM     25  C   UNL     1      13.090   5.187  22.681  0.00  0.00    +0.322 C 
ATOM     26  OXT UNL     1      13.030   5.467  21.495  0.00  0.00    -0.249 OA
BRANCH  25  27
ATOM     27  O   UNL     1      14.266   5.012  23.333  0.00  0.00    -0.480 OA
ATOM     28  H   UNL     1      14.116   4.375  24.059  0.00  0.00    +0.295 HD
ENDBRANCH  25  27
ENDBRANCH  21  25
ENDBRANCH  20  21
ENDBRANCH  19  20
ENDBRANCH   1  19
TORSDOF 10
ENDMDL
MODEL 6
REMARK VINA RESULT:      -6.9      1.496      3.358
REMARK  Name = 
REMARK  10 active torsions:
REMARK  status: ('A' for Active; 'I' for Inactive)
REMARK    1  A    between atoms: CA_2  and  N_3
REMARK    2  A    between atoms: CA_2  and  C_4
REMARK    3  A    between atoms: CA_2  and  C_23
REMARK    4  A    between atoms: C_4  and  C_5
REMARK    5  A    between atoms: C_5  and  C_6
REMARK    6  A    between atoms: N_8  and  C_9
REMARK    7  A    between atoms: C_12  and  O_13
REMARK    8  A    between atoms: O_13  and  C_14
REMARK    9  A    between atoms: C_14  and  C_15
REMARK   10  A    between atoms: C_23  and  O_24
REMARK                            x       y       z     vdW  Elec       q    Type
REMARK                         _______ _______ _______ _____ _____    ______ ____
ROOT
ATOM      1  C   UNL     1      11.261   4.573  23.497  0.00  0.00    +0.217 C 
ATOM      2  N   UNL     1      10.151   3.765  23.290  0.00  0.00    -0.285 N 
ATOM      3  H   UNL     1       9.274   4.221  23.077  0.00  0.00    +0.155 HD
ATOM      4  O   UNL     1      12.436   4.225  23.412  0.00  0.00    -0.275 OA
ENDROOT
BRANCH   2   5
ATOM      5  C   UNL     1      10.187   2.360  23.183  0.00  0.00    +0.034 A 
ATOM      6  C   UNL     1       9.835   1.759  21.970  0.00  0.00    +0.027 A 
ATOM      7  C   UNL     1       9.863   0.364  21.840  0.00  0.00    +0.047 A 
ATOM      8  C   UNL     1      10.210  -0.438  22.928  0.00  0.00    +0.121 A 
ATOM      9  C   UNL     1      10.568   0.163  24.132  0.00  0.00    +0.047 A 
ATOM     10  C   UNL     1      10.534   1.547  24.263  0.00  0.00    +0.027 A 
BRANCH   8  11
ATOM     11  O   UNL     1      10.163  -1.790  22.725  0.00  0.00    -0.487 OA
BRANCH  11  12
ATOM     12  C   UNL     1       9.613  -2.535  23.815  0.00  0.00    +0.264 C 
BRANCH  12  13
ATOM     13  C   UNL     1       8.368  -3.242  23.353  0.00  0.00    -0.010 A 
ATOM     14  C   UNL     1       7.479  -2.603  22.478  0.00  0.00    +0.007 A 
ATOM     15  C   UNL     1       6.325  -3.252  22.048  0.00  0.00    +0.000 A 
ATOM     16  C   UNL     1       6.052  -4.546  22.484  0.00  0.00    +0.000 A 
ATOM     17  C   UNL     1       6.929  -5.191  23.356  0.00  0.00    +0.000 A 
ATOM     18  C   UNL     1       8.085  -4.541  23.789  0.00  0.00    +0.007 A 
ENDBRANCH  12  13
ENDBRANCH  11  12
ENDBRANCH   8  11
ENDBRANCH   2   5
BRANCH   1  19
ATOM     19  C   UNL     1      10.919   6.010  23.820  0.00  0.00    +0.098 C 
BRANCH  19  20
ATOM     20  C   UNL     1       9.428   6.272  24.039  0.00  0.00    +0.039 C 
BRANCH  20  21
ATOM     21  CA  UNL     1       9.002   6.473  25.505  0.00  0.00    +0.161 C 
BRANCH  21  22
ATOM     22  N   UNL     1      10.139   6.719  26.390  0.00  0.00    -0.318 NA
ATOM     23  H1  UNL     1      10.008   6.559  27.383  0.00  0.00    +0.119 HD
ATOM     24  H2  UNL     1      11.080   6.659  26.014  0.00  0.00    +0.119 HD
ENDBRANCH  21  22
BRANCH  21  25
ATOM     25  C   UNL     1       8.224   5.226  25.962  0.00  0.00    +0.322 C 
ATOM     26  OXT UNL     1       7.974   4.268  25.248  0.00  0.00    -0.249 OA
BRANCH  25  27
ATOM     27  O   UNL     1       7.862   5.277  27.268  0.00  0.00    -0.480 OA
ATOM     28  H   UNL     1       7.038   4.760  27.372  0.00  0.00    +0.295 HD
ENDBRANCH  25  27
ENDBRANCH  21  25
ENDBRANCH  20  21
ENDBRANCH  19  20
ENDBRANCH   1  19
TORSDOF 10
ENDMDL
MODEL 7
REMARK VINA RESULT:      -6.9      5.048     10.469
REMARK  Name = 
REMARK  10 active torsions:
REMARK  status: ('A' for Active; 'I' for Inactive)
REMARK    1  A    between atoms: CA_2  and  N_3
REMARK    2  A    between atoms: CA_2  and  C_4
REMARK    3  A    between atoms: CA_2  and  C_23
REMARK    4  A    between atoms: C_4  and  C_5
REMARK    5  A    between atoms: C_5  and  C_6
REMARK    6  A    between atoms: N_8  and  C_9
REMARK    7  A    between atoms: C_12  and  O_13
REMARK    8  A    between atoms: O_13  and  C_14
REMARK    9  A    between atoms: C_14  and  C_15
REMARK   10  A    between atoms: C_23  and  O_24
REMARK                            x       y       z     vdW  Elec       q    Type
REMARK                         _______ _______ _______ _____ _____    ______ ____
ROOT
ATOM      1  C   UNL     1       5.102  -6.381  25.046  0.00  0.00    +0.217 C 
ATOM      2  N   UNL     1       5.995  -5.723  25.881  0.00  0.00    -0.285 N 
ATOM      3  H   UNL     1       5.940  -5.919  26.872  0.00  0.00    +0.155 HD
ATOM      4  O   UNL     1       5.234  -6.553  23.838  0.00  0.00    -0.275 OA
ENDROOT
BRANCH   2   5
ATOM      5  C   UNL     1       7.080  -4.939  25.442  0.00  0.00    +0.034 A 
ATOM      6  C   UNL     1       6.831  -3.685  24.876  0.00  0.00    +0.027 A 
ATOM      7  C   UNL     1       7.895  -2.888  24.432  0.00  0.00    +0.047 A 
ATOM      8  C   UNL     1       9.208  -3.351  24.522  0.00  0.00    +0.121 A 
ATOM      9  C   UNL     1       9.454  -4.597  25.094  0.00  0.00    +0.047 A 
ATOM     10  C   UNL     1       8.398  -5.390  25.528  0.00  0.00    +0.027 A 
BRANCH   8  11
ATOM     11  O   UNL     1      10.179  -2.528  24.020  0.00  0.00    -0.487 OA
BRANCH  11  12
ATOM     12  C   UNL     1       9.857  -1.928  22.762  0.00  0.00    +0.264 C 
BRANCH  12  13
ATOM     13  C   UNL     1      10.029  -0.438  22.866  0.00  0.00    -0.010 A 
ATOM     14  C   UNL     1      10.513   0.135  24.050  0.00  0.00    +0.007 A 
ATOM     15  C   UNL     1      10.673   1.514  24.153  0.00  0.00    +0.000 A 
ATOM     16  C   UNL     1      10.355   2.332  23.071  0.00  0.00    +0.000 A 
ATOM     17  C   UNL     1       9.870   1.773  21.889  0.00  0.00    +0.000 A 
ATOM     18  C   UNL     1       9.709   0.392  21.786  0.00  0.00    +0.007 A 
ENDBRANCH  12  13
ENDBRANCH  11  12
ENDBRANCH   8  11
ENDBRANCH   2   5
BRANCH   1  19
ATOM     19  C   UNL     1       3.895  -6.942  25.764  0.00  0.00    +0.098 C 
BRANCH  19  20
ATOM     20  C   UNL     1       2.561  -6.328  25.335  0.00  0.00    +0.039 C 
BRANCH  20  21
ATOM     21  CA  UNL     1       1.833  -7.061  24.195  0.00  0.00    +0.161 C 
BRANCH  21  22
ATOM     22  N   UNL     1       2.525  -8.281  23.782  0.00  0.00    -0.318 NA
ATOM     23  H1  UNL     1       3.537  -8.252  23.717  0.00  0.00    +0.119 HD
ATOM     24  H2  UNL     1       2.080  -9.179  23.943  0.00  0.00    +0.119 HD
ENDBRANCH  21  22
BRANCH  21  25
ATOM     25  C   UNL     1       1.690  -6.095  23.005  0.00  0.00    +0.322 C 
ATOM     26  OXT UNL     1       0.742  -6.082  22.237  0.00  0.00    -0.249 OA
BRANCH  25  27
ATOM     27  O   UNL     1       2.722  -5.220  22.907  0.00  0.00    -0.480 OA
ATOM     28  H   UNL     1       2.367  -4.374  22.568  0.00  0.00    +0.295 HD
ENDBRANCH  25  27
ENDBRANCH  21  25
ENDBRANCH  20  21
ENDBRANCH  19  20
ENDBRANCH   1  19
TORSDOF 10
ENDMDL
MODEL 8
REMARK VINA RESULT:      -6.8      3.819      9.633
REMARK  Name = 
REMARK  10 active torsions:
REMARK  status: ('A' for Active; 'I' for Inactive)
REMARK    1  A    between atoms: CA_2  and  N_3
REMARK    2  A    between atoms: CA_2  and  C_4
REMARK    3  A    between atoms: CA_2  and  C_23
REMARK    4  A    between atoms: C_4  and  C_5
REMARK    5  A    between atoms: C_5  and  C_6
REMARK    6  A    between atoms: N_8  and  C_9
REMARK    7  A    between atoms: C_12  and  O_13
REMARK    8  A    between atoms: O_13  and  C_14
REMARK    9  A    between atoms: C_14  and  C_15
REMARK   10  A    between atoms: C_23  and  O_24
REMARK                            x       y       z     vdW  Elec       q    Type
REMARK                         _______ _______ _______ _____ _____    ______ ____
ROOT
ATOM      1  C   UNL     1       7.191  -3.896  24.148  0.00  0.00    +0.217 C 
ATOM      2  N   UNL     1       8.539  -3.622  24.334  0.00  0.00    -0.285 N 
ATOM      3  H   UNL     1       9.175  -4.408  24.378  0.00  0.00    +0.155 HD
ATOM      4  O   UNL     1       6.345  -3.114  23.723  0.00  0.00    -0.275 OA
ENDROOT
BRANCH   2   5
ATOM      5  C   UNL     1       9.113  -2.336  24.292  0.00  0.00    +0.034 A 
ATOM      6  C   UNL     1       9.824  -1.943  23.153  0.00  0.00    +0.027 A 
ATOM      7  C   UNL     1      10.403  -0.668  23.089  0.00  0.00    +0.047 A 
ATOM      8  C   UNL     1      10.303   0.206  24.171  0.00  0.00    +0.121 A 
ATOM      9  C   UNL     1       9.588  -0.184  25.300  0.00  0.00    +0.047 A 
ATOM     10  C   UNL     1       9.018  -1.451  25.367  0.00  0.00    +0.027 A 
BRANCH   8  11
ATOM     11  O   UNL     1      10.939   1.411  24.041  0.00  0.00    -0.487 OA
BRANCH  11  12
ATOM     12  C   UNL     1      10.351   2.292  23.079  0.00  0.00    +0.264 C 
BRANCH  12  13
ATOM     13  C   UNL     1      10.573   3.715  23.513  0.00  0.00    -0.010 A 
ATOM     14  C   UNL     1       9.525   4.450  24.085  0.00  0.00    +0.007 A 
ATOM     15  C   UNL     1       9.725   5.767  24.487  0.00  0.00    +0.000 A 
ATOM     16  C   UNL     1      10.975   6.361  24.324  0.00  0.00    +0.000 A 
ATOM     17  C   UNL     1      12.024   5.640  23.754  0.00  0.00    +0.000 A 
ATOM     18  C   UNL     1      11.824   4.320  23.350  0.00  0.00    +0.007 A 
ENDBRANCH  12  13
ENDBRANCH  11  12
ENDBRANCH   8  11
ENDBRANCH   2   5
BRANCH   1  19
ATOM     19  C   UNL     1       6.804  -5.318  24.489  0.00  0.00    +0.098 C 
BRANCH  19  20
ATOM     20  C   UNL     1       6.067  -5.473  25.820  0.00  0.00    +0.039 C 
BRANCH  20  21
ATOM     21  CA  UNL     1       6.933  -5.286  27.079  0.00  0.00    +0.161 C 
BRANCH  21  22
ATOM     22  N   UNL     1       8.302  -5.764  26.893  0.00  0.00    -0.318 NA
ATOM     23  H1  UNL     1       8.639  -5.874  25.942  0.00  0.00    +0.119 HD
ATOM     24  H2  UNL     1       8.983  -5.609  27.629  0.00  0.00    +0.119 HD
ENDBRANCH  21  22
BRANCH  21  25
ATOM     25  C   UNL     1       6.259  -6.024  28.249  0.00  0.00    +0.322 C 
ATOM     26  OXT UNL     1       6.365  -5.701  29.421  0.00  0.00    -0.249 OA
BRANCH  25  27
ATOM     27  O   UNL     1       5.495  -7.070  27.846  0.00  0.00    -0.480 OA
ATOM     28  H   UNL     1       5.852  -7.392  26.995  0.00  0.00    +0.295 HD
ENDBRANCH  25  27
ENDBRANCH  21  25
ENDBRANCH  20  21
ENDBRANCH  19  20
ENDBRANCH   1  19
TORSDOF 10
ENDMDL
MODEL 9
REMARK VINA RESULT:      -6.8      3.081      5.313
REMARK  Name = 
REMARK  10 active torsions:
REMARK  status: ('A' for Active; 'I' for Inactive)
REMARK    1  A    between atoms: CA_2  and  N_3
REMARK    2  A    between atoms: CA_2  and  C_4
REMARK    3  A    between atoms: CA_2  and  C_23
REMARK    4  A    between atoms: C_4  and  C_5
REMARK    5  A    between atoms: C_5  and  C_6
REMARK    6  A    between atoms: N_8  and  C_9
REMARK    7  A    between atoms: C_12  and  O_13
REMARK    8  A    between atoms: O_13  and  C_14
REMARK    9  A    between atoms: C_14  and  C_15
REMARK   10  A    between atoms: C_23  and  O_24
REMARK                            x       y       z     vdW  Elec       q    Type
REMARK                         _______ _______ _______ _____ _____    ______ ____
ROOT
ATOM      1  C   UNL     1       9.597  -0.786  25.105  0.00  0.00    +0.217 C 
ATOM      2  N   UNL     1       9.853  -1.706  24.098  0.00  0.00    -0.285 N 
ATOM      3  H   UNL     1      10.755  -1.660  23.641  0.00  0.00    +0.155 HD
ATOM      4  O   UNL     1       8.751  -0.897  25.988  0.00  0.00    -0.275 OA
ENDROOT
BRANCH   2   5
ATOM      5  C   UNL     1       9.029  -2.805  23.781  0.00  0.00    +0.034 A 
ATOM      6  C   UNL     1       8.143  -2.705  22.704  0.00  0.00    +0.027 A 
ATOM      7  C   UNL     1       7.314  -3.785  22.371  0.00  0.00    +0.047 A 
ATOM      8  C   UNL     1       7.344  -4.956  23.130  0.00  0.00    +0.121 A 
ATOM      9  C   UNL     1       8.233  -5.056  24.196  0.00  0.00    +0.047 A 
ATOM     10  C   UNL     1       9.051  -3.982  24.530  0.00  0.00    +0.027 A 
BRANCH   8  11
ATOM     11  O   UNL     1       6.467  -5.940  22.763  0.00  0.00    -0.487 OA
BRANCH  11  12
ATOM     12  C   UNL     1       5.147  -5.477  22.460  0.00  0.00    +0.264 C 
BRANCH  12  13
ATOM     13  C   UNL     1       4.166  -6.143  23.386  0.00  0.00    -0.010 A 
ATOM     14  C   UNL     1       2.799  -6.150  23.077  0.00  0.00    +0.007 A 
ATOM     15  C   UNL     1       1.886  -6.764  23.930  0.00  0.00    +0.000 A 
ATOM     16  C   UNL     1       2.332  -7.379  25.098  0.00  0.00    +0.000 A 
ATOM     17  C   UNL     1       3.690  -7.375  25.416  0.00  0.00    +0.000 A 
ATOM     18  C   UNL     1       4.605  -6.760  24.562  0.00  0.00    +0.007 A 
ENDBRANCH  12  13
ENDBRANCH  11  12
ENDBRANCH   8  11
ENDBRANCH   2   5
BRANCH   1  19
ATOM     19  C   UNL     1      10.501   0.425  25.071  0.00  0.00    +0.098 C 
BRANCH  19  20
ATOM     20  C   UNL     1       9.879   1.663  24.422  0.00  0.00    +0.039 C 
BRANCH  20  21
ATOM     21  CA  UNL     1      10.513   2.097  23.088  0.00  0.00    +0.161 C 
BRANCH  21  22
ATOM     22  N   UNL     1      10.491   3.548  22.904  0.00  0.00    -0.318 NA
ATOM     23  H1  UNL     1      10.123   4.115  23.661  0.00  0.00    +0.119 HD
ATOM     24  H2  UNL     1      11.151   3.974  22.261  0.00  0.00    +0.119 HD
ENDBRANCH  21  22
BRANCH  21  25
ATOM     25  C   UNL     1       9.764   1.397  21.940  0.00  0.00    +0.322 C 
ATOM     26  OXT UNL     1       9.906   0.223  21.640  0.00  0.00    -0.249 OA
BRANCH  25  27
ATOM     27  O   UNL     1       8.891   2.214  21.301  0.00  0.00    -0.480 OA
ATOM     28  H   UNL     1       8.374   1.670  20.675  0.00  0.00    +0.295 HD
ENDBRANCH  25  27
ENDBRANCH  21  25
ENDBRANCH  20  21
ENDBRANCH  19  20
ENDBRANCH   1  19
TORSDOF 10
ENDMDL
