MODEL 1
REMARK VINA RESULT:      -8.4      0.000      0.000
REMARK  Name = 
REMARK  8 active torsions:
REMARK  status: ('A' for Active; 'I' for Inactive)
REMARK    1  A    between atoms: C_2  and  C_3
REMARK    2  A    between atoms: C_3  and  O_4
REMARK    3  A    between atoms: O_4  and  C_5
REMARK    4  A    between atoms: C_22  and  N_23
REMARK    5  A    between atoms: C_24  and  C_26
REMARK    6  A    between atoms: C_26  and  O_27
REMARK    7  A    between atoms: C_29  and  C_30
REMARK    8  A    between atoms: C_30  and  O_31
REMARK                            x       y       z     vdW  Elec       q    Type
REMARK                         _______ _______ _______ _____ _____    ______ ____
ROOT
ATOM      1  C   UNL     1       8.099   0.991  25.088  0.00  0.00    +0.192 C 
ATOM      2  C   UNL     1       8.758   2.202  24.441  0.00  0.00    +0.027 A 
ATOM      3  S   UNL     1      10.293   2.194  23.713  0.00  0.00    -0.075 S 
ATOM      4  C   UNL     1      10.257   3.883  23.421  0.00  0.00    +0.087 A 
ATOM      5  C   UNL     1       9.051   4.470  23.775  0.00  0.00    +0.091 A 
ATOM      6  C   UNL     1       8.211   3.475  24.420  0.00  0.00    -0.017 A 
ATOM      7  C   UNL     1       6.840   3.704  24.991  0.00  0.00    +0.065 C 
ATOM      8  C   UNL     1       6.477   2.563  25.942  0.00  0.00    +0.165 C 
ATOM      9  O   UNL     1       6.694   1.301  25.301  0.00  0.00    -0.368 OA
ENDROOT
BRANCH   4  10
ATOM     10  N   UNL     1      11.422   4.317  22.814  0.00  0.00    -0.270 N 
ATOM     11  H   UNL     1      11.953   3.628  22.283  0.00  0.00    +0.156 HD
ATOM     12  C   UNL     1      12.172   5.361  23.311  0.00  0.00    +0.326 C 
ATOM     13  O   UNL     1      11.887   6.112  24.236  0.00  0.00    -0.263 OA
BRANCH  12  14
ATOM     14  C   UNL     1      13.555   5.495  22.634  0.00  0.00    +0.393 C 
ATOM     15  O   UNL     1      13.685   6.049  21.559  0.00  0.00    -0.240 OA
BRANCH  14  16
ATOM     16  O   UNL     1      14.534   4.909  23.341  0.00  0.00    -0.474 OA
ATOM     17  H   UNL     1      15.073   4.311  22.776  0.00  0.00    +0.296 HD
ENDBRANCH  14  16
ENDBRANCH  12  14
ENDBRANCH   4  10
BRANCH   5  18
ATOM     18  C   UNL     1       8.558   5.812  23.444  0.00  0.00    +0.339 C 
ATOM     19  O   UNL     1       8.600   6.738  24.248  0.00  0.00    -0.245 OA
BRANCH  18  20
ATOM     20  O   UNL     1       8.086   6.006  22.196  0.00  0.00    -0.477 OA
ATOM     21  H   UNL     1       7.108   5.957  22.141  0.00  0.00    +0.295 HD
ENDBRANCH  18  20
ENDBRANCH   5  18
BRANCH   1  22
ATOM     22  C   UNL     1       8.141  -0.310  24.264  0.00  0.00    +0.267 C 
BRANCH  22  23
ATOM     23  O   UNL     1       7.323  -1.324  24.914  0.00  0.00    -0.472 OA
BRANCH  23  24
ATOM     24  C   UNL     1       7.750  -2.599  24.814  0.00  0.00    +0.243 C 
ATOM     25  C   UNL     1       7.266  -3.336  23.643  0.00  0.00    +0.065 A 
ATOM     26  C   UNL     1       6.464  -2.956  22.582  0.00  0.00    +0.015 A 
ATOM     27  C   UNL     1       6.135  -3.933  21.628  0.00  0.00    +0.001 A 
ATOM     28  C   UNL     1       6.605  -5.257  21.749  0.00  0.00    +0.002 A 
ATOM     29  C   UNL     1       7.425  -5.622  22.817  0.00  0.00    +0.030 A 
ATOM     30  C   UNL     1       7.734  -4.634  23.731  0.00  0.00    +0.125 A 
ATOM     31  S   UNL     1       8.716  -4.761  25.167  0.00  0.00    +0.103 S 
ATOM     32  O   UNL     1       8.032  -5.668  26.062  0.00  0.00    -0.146 OA
ATOM     33  O   UNL     1      10.079  -4.968  24.732  0.00  0.00    -0.146 OA
ATOM     34  N   UNL     1       8.504  -3.211  25.669  0.00  0.00    -0.091 NA
ENDBRANCH  23  24
ENDBRANCH  22  23
ENDBRANCH   1  22
TORSDOF 8
ENDMDL
MODEL 2
REMARK VINA RESULT:      -8.4      2.020      2.411
REMARK  Name = 
REMARK  8 active torsions:
REMARK  status: ('A' for Active; 'I' for Inactive)
REMARK    1  A    between atoms: C_2  and  C_3
REMARK    2  A    between atoms: C_3  and  O_4
REMARK    3  A    between atoms: O_4  and  C_5
REMARK    4  A    between atoms: C_22  and  N_23
REMARK    5  A    between atoms: C_24  and  C_26
REMARK    6  A    between atoms: C_26  and  O_27
REMARK    7  A    between atoms: C_29  and  C_30
REMARK    8  A    between atoms: C_30  and  O_31
REMARK                            x       y       z     vdW  Elec       q    Type
REMARK                         _______ _______ _______ _____ _____    ______ ____
ROOT
ATOM      1  C   UNL     1       9.031  -0.385  25.226  0.00  0.00    +0.192 C 
ATOM      2  C   UNL     1       9.365   0.940  24.554  0.00  0.00    +0.027 A 
ATOM      3  S   UNL     1      10.843   1.292  23.791  0.00  0.00    -0.075 S 
ATOM      4  C   UNL     1      10.393   2.918  23.483  0.00  0.00    +0.087 A 
ATOM      5  C   UNL     1       9.088   3.201  23.859  0.00  0.00    +0.091 A 
ATOM      6  C   UNL     1       8.526   2.043  24.531  0.00  0.00    -0.017 A 
ATOM      7  C   UNL     1       7.152   1.942  25.131  0.00  0.00    +0.065 C 
ATOM      8  C   UNL     1       7.093   0.760  26.101  0.00  0.00    +0.165 C 
ATOM      9  O   UNL     1       7.597  -0.421  25.467  0.00  0.00    -0.368 OA
ENDROOT
BRANCH   4  10
ATOM     10  N   UNL     1      11.406   3.611  22.847  0.00  0.00    -0.270 N 
ATOM     11  H   UNL     1      12.054   3.068  22.277  0.00  0.00    +0.156 HD
ATOM     12  C   UNL     1      11.927   4.786  23.345  0.00  0.00    +0.326 C 
ATOM     13  O   UNL     1      11.522   5.437  24.301  0.00  0.00    -0.263 OA
BRANCH  12  14
ATOM     14  C   UNL     1      13.216   5.236  22.622  0.00  0.00    +0.393 C 
ATOM     15  O   UNL     1      13.187   5.689  21.493  0.00  0.00    -0.240 OA
BRANCH  14  16
ATOM     16  O   UNL     1      14.320   5.033  23.359  0.00  0.00    -0.474 OA
ATOM     17  H   UNL     1      14.551   5.832  23.883  0.00  0.00    +0.296 HD
ENDBRANCH  14  16
ENDBRANCH  12  14
ENDBRANCH   4  10
BRANCH   5  18
ATOM     18  C   UNL     1       8.278   4.379  23.525  0.00  0.00    +0.339 C 
ATOM     19  O   UNL     1       7.992   5.229  24.362  0.00  0.00    -0.245 OA
BRANCH  18  20
ATOM     20  O   UNL     1       7.888   4.517  22.243  0.00  0.00    -0.477 OA
ATOM     21  H   UNL     1       7.674   5.444  22.002  0.00  0.00    +0.295 HD
ENDBRANCH  18  20
ENDBRANCH   5  18
BRANCH   1  22
ATOM     22  C   UNL     1       9.371  -1.649  24.414  0.00  0.00    +0.267 C 
BRANCH  22  23
ATOM     23  O   UNL     1       8.657  -2.791  24.970  0.00  0.00    -0.472 OA
BRANCH  23  24
ATOM     24  C   UNL     1       7.855  -3.469  24.125  0.00  0.00    +0.243 C 
ATOM     25  C   UNL     1       6.919  -4.402  24.758  0.00  0.00    +0.065 A 
ATOM     26  C   UNL     1       6.673  -4.704  26.086  0.00  0.00    +0.015 A 
ATOM     27  C   UNL     1       5.728  -5.703  26.366  0.00  0.00    +0.001 A 
ATOM     28  C   UNL     1       5.051  -6.379  25.329  0.00  0.00    +0.002 A 
ATOM     29  C   UNL     1       5.299  -6.055  23.995  0.00  0.00    +0.030 A 
ATOM     30  C   UNL     1       6.229  -5.062  23.757  0.00  0.00    +0.125 A 
ATOM     31  S   UNL     1       6.769  -4.434  22.222  0.00  0.00    +0.103 S 
ATOM     32  O   UNL     1       7.440  -5.517  21.538  0.00  0.00    -0.146 OA
ATOM     33  O   UNL     1       5.657  -3.712  21.645  0.00  0.00    -0.146 OA
ATOM     34  N   UNL     1       7.875  -3.385  22.834  0.00  0.00    -0.091 NA
ENDBRANCH  23  24
ENDBRANCH  22  23
ENDBRANCH   1  22
TORSDOF 8
ENDMDL
MODEL 3
REMARK VINA RESULT:      -8.3      3.555      5.760
REMARK  Name = 
REMARK  8 active torsions:
REMARK  status: ('A' for Active; 'I' for Inactive)
REMARK    1  A    between atoms: C_2  and  C_3
REMARK    2  A    between atoms: C_3  and  O_4
REMARK    3  A    between atoms: O_4  and  C_5
REMARK    4  A    between atoms: C_22  and  N_23
REMARK    5  A    between atoms: C_24  and  C_26
REMARK    6  A    between atoms: C_26  and  O_27
REMARK    7  A    between atoms: C_29  and  C_30
REMARK    8  A    between atoms: C_30  and  O_31
REMARK                            x       y       z     vdW  Elec       q    Type
REMARK                         _______ _______ _______ _____ _____    ______ ____
ROOT
ATOM      1  C   UNL     1       8.165  -4.664  23.760  0.00  0.00    +0.192 C 
ATOM      2  C   UNL     1       8.327  -3.190  24.105  0.00  0.00    +0.027 A 
ATOM      3  S   UNL     1       8.639  -1.961  22.973  0.00  0.00    -0.075 S 
ATOM      4  C   UNL     1       8.793  -0.763  24.190  0.00  0.00    +0.087 A 
ATOM      5  C   UNL     1       8.516  -1.242  25.462  0.00  0.00    +0.091 A 
ATOM      6  C   UNL     1       8.300  -2.677  25.392  0.00  0.00    -0.017 A 
ATOM      7  C   UNL     1       8.013  -3.591  26.549  0.00  0.00    +0.065 C 
ATOM      8  C   UNL     1       8.275  -5.042  26.143  0.00  0.00    +0.165 C 
ATOM      9  O   UNL     1       7.597  -5.339  24.916  0.00  0.00    -0.368 OA
ENDROOT
BRANCH   4  10
ATOM     10  N   UNL     1       9.092   0.474  23.648  0.00  0.00    -0.270 N 
ATOM     11  H   UNL     1       8.617   0.729  22.783  0.00  0.00    +0.156 HD
ATOM     12  C   UNL     1      10.310   1.091  23.837  0.00  0.00    +0.326 C 
ATOM     13  O   UNL     1      11.223   0.733  24.571  0.00  0.00    -0.263 OA
BRANCH  12  14
ATOM     14  C   UNL     1      10.516   2.324  22.929  0.00  0.00    +0.393 C 
ATOM     15  O   UNL     1      11.039   3.340  23.346  0.00  0.00    -0.240 OA
BRANCH  14  16
ATOM     16  O   UNL     1      10.026   2.143  21.692  0.00  0.00    -0.474 OA
ATOM     17  H   UNL     1       9.737   2.994  21.294  0.00  0.00    +0.296 HD
ENDBRANCH  14  16
ENDBRANCH  12  14
ENDBRANCH   4  10
BRANCH   5  18
ATOM     18  C   UNL     1       8.293  -0.479  26.696  0.00  0.00    +0.339 C 
ATOM     19  O   UNL     1       7.218   0.058  26.944  0.00  0.00    -0.245 OA
BRANCH  18  20
ATOM     20  O   UNL     1       9.310  -0.420  27.578  0.00  0.00    -0.477 OA
ATOM     21  H   UNL     1       9.369  -1.214  28.153  0.00  0.00    +0.295 HD
ENDBRANCH  18  20
ENDBRANCH   5  18
BRANCH   1  22
ATOM     22  C   UNL     1       7.234  -4.972  22.572  0.00  0.00    +0.267 C 
BRANCH  22  23
ATOM     23  O   UNL     1       6.123  -4.030  22.569  0.00  0.00    -0.472 OA
BRANCH  23  24
ATOM     24  C   UNL     1       4.940  -4.492  23.023  0.00  0.00    +0.243 C 
ATOM     25  C   UNL     1       4.389  -3.782  24.181  0.00  0.00    +0.065 A 
ATOM     26  C   UNL     1       4.844  -2.685  24.892  0.00  0.00    +0.015 A 
ATOM     27  C   UNL     1       4.096  -2.271  26.005  0.00  0.00    +0.001 A 
ATOM     28  C   UNL     1       2.921  -2.951  26.388  0.00  0.00    +0.002 A 
ATOM     29  C   UNL     1       2.467  -4.047  25.654  0.00  0.00    +0.030 A 
ATOM     30  C   UNL     1       3.223  -4.421  24.561  0.00  0.00    +0.125 A 
ATOM     31  S   UNL     1       2.941  -5.737  23.452  0.00  0.00    +0.103 S 
ATOM     32  O   UNL     1       3.057  -6.960  24.215  0.00  0.00    -0.146 OA
ATOM     33  O   UNL     1       1.762  -5.400  22.686  0.00  0.00    -0.146 OA
ATOM     34  N   UNL     1       4.294  -5.508  22.549  0.00  0.00    -0.091 NA
ENDBRANCH  23  24
ENDBRANCH  22  23
ENDBRANCH   1  22
TORSDOF 8
ENDMDL
MODEL 4
REMARK VINA RESULT:      -7.9      2.522      4.720
REMARK  Name = 
REMARK  8 active torsions:
REMARK  status: ('A' for Active; 'I' for Inactive)
REMARK    1  A    between atoms: C_2  and  C_3
REMARK    2  A    between atoms: C_3  and  O_4
REMARK    3  A    between atoms: O_4  and  C_5
REMARK    4  A    between atoms: C_22  and  N_23
REMARK    5  A    between atoms: C_24  and  C_26
REMARK    6  A    between atoms: C_26  and  O_27
REMARK    7  A    between atoms: C_29  and  C_30
REMARK    8  A    between atoms: C_30  and  O_31
REMARK                            x       y       z     vdW  Elec       q    Type
REMARK                         _______ _______ _______ _____ _____    ______ ____
ROOT
ATOM      1  C   UNL     1       9.136  -1.604  23.265  0.00  0.00    +0.192 C 
ATOM      2  C   UNL     1       8.921  -0.209  23.838  0.00  0.00    +0.027 A 
ATOM      3  S   UNL     1       8.445   0.117  25.436  0.00  0.00    -0.075 S 
ATOM      4  C   UNL     1       8.328   1.803  25.148  0.00  0.00    +0.087 A 
ATOM      5  C   UNL     1       8.739   2.165  23.873  0.00  0.00    +0.091 A 
ATOM      6  C   UNL     1       9.030   0.964  23.109  0.00  0.00    -0.017 A 
ATOM      7  C   UNL     1       9.466   0.908  21.672  0.00  0.00    +0.065 C 
ATOM      8  C   UNL     1       9.252  -0.502  21.119  0.00  0.00    +0.165 C 
ATOM      9  O   UNL     1       9.838  -1.469  21.999  0.00  0.00    -0.368 OA
ENDROOT
BRANCH   4  10
ATOM     10  N   UNL     1       7.915   2.483  26.278  0.00  0.00    -0.270 N 
ATOM     11  H   UNL     1       8.551   2.489  27.074  0.00  0.00    +0.156 HD
ATOM     12  C   UNL     1       6.585   2.637  26.605  0.00  0.00    +0.326 C 
ATOM     13  O   UNL     1       5.609   2.331  25.931  0.00  0.00    -0.263 OA
BRANCH  12  14
ATOM     14  C   UNL     1       6.367   3.189  28.032  0.00  0.00    +0.393 C 
ATOM     15  O   UNL     1       5.316   3.705  28.361  0.00  0.00    -0.240 OA
BRANCH  14  16
ATOM     16  O   UNL     1       7.457   3.064  28.806  0.00  0.00    -0.474 OA
ATOM     17  H   UNL     1       7.382   2.290  29.406  0.00  0.00    +0.296 HD
ENDBRANCH  14  16
ENDBRANCH  12  14
ENDBRANCH   4  10
BRANCH   5  18
ATOM     18  C   UNL     1       9.024   3.508  23.354  0.00  0.00    +0.339 C 
ATOM     19  O   UNL     1       8.133   4.258  22.967  0.00  0.00    -0.245 OA
BRANCH  18  20
ATOM     20  O   UNL     1      10.310   3.911  23.353  0.00  0.00    -0.477 OA
ATOM     21  H   UNL     1      10.869   3.415  22.716  0.00  0.00    +0.295 HD
ENDBRANCH  18  20
ENDBRANCH   5  18
BRANCH   1  22
ATOM     22  C   UNL     1       9.978  -2.558  24.134  0.00  0.00    +0.267 C 
BRANCH  22  23
ATOM     23  O   UNL     1       9.470  -3.917  23.995  0.00  0.00    -0.472 OA
BRANCH  23  24
ATOM     24  C   UNL     1       8.533  -4.303  24.884  0.00  0.00    +0.243 C 
ATOM     25  C   UNL     1       7.388  -5.023  24.320  0.00  0.00    +0.065 A 
ATOM     26  C   UNL     1       7.094  -5.419  23.027  0.00  0.00    +0.015 A 
ATOM     27  C   UNL     1       5.865  -6.060  22.802  0.00  0.00    +0.001 A 
ATOM     28  C   UNL     1       4.960  -6.292  23.858  0.00  0.00    +0.002 A 
ATOM     29  C   UNL     1       5.276  -5.901  25.160  0.00  0.00    +0.030 A 
ATOM     30  C   UNL     1       6.496  -5.280  25.345  0.00  0.00    +0.125 A 
ATOM     31  S   UNL     1       7.182  -4.667  26.827  0.00  0.00    +0.103 S 
ATOM     32  O   UNL     1       6.328  -3.587  27.268  0.00  0.00    -0.146 OA
ATOM     33  O   UNL     1       7.491  -5.811  27.655  0.00  0.00    -0.146 OA
ATOM     34  N   UNL     1       8.553  -4.061  26.155  0.00  0.00    -0.091 NA
ENDBRANCH  23  24
ENDBRANCH  22  23
ENDBRANCH   1  22
TORSDOF 8
ENDMDL
MODEL 5
REMARK VINA RESULT:      -7.8      2.646      9.679
REMARK  Name = 
REMARK  8 active torsions:
REMARK  status: ('A' for Active; 'I' for Inactive)
REMARK    1  A    between atoms: C_2  and  C_3
REMARK    2  A    between atoms: C_3  and  O_4
REMARK    3  A    between atoms: O_4  and  C_5
REMARK    4  A    between atoms: C_22  and  N_23
REMARK    5  A    between atoms: C_24  and  C_26
REMARK    6  A    between atoms: C_26  and  O_27
REMARK    7  A    between atoms: C_29  and  C_30
REMARK    8  A    between atoms: C_30  and  O_31
REMARK                            x       y       z     vdW  Elec       q    Type
REMARK                         _______ _______ _______ _____ _____    ______ ____
ROOT
ATOM      1  C   UNL     1       9.459   0.049  24.263  0.00  0.00    +0.192 C 
ATOM      2  C   UNL     1       8.630  -1.224  24.363  0.00  0.00    +0.027 A 
ATOM      3  S   UNL     1       7.884  -1.784  25.784  0.00  0.00    -0.075 S 
ATOM      4  C   UNL     1       7.347  -3.229  25.034  0.00  0.00    +0.087 A 
ATOM      5  C   UNL     1       7.632  -3.275  23.678  0.00  0.00    +0.091 A 
ATOM      6  C   UNL     1       8.431  -2.115  23.321  0.00  0.00    -0.017 A 
ATOM      7  C   UNL     1       8.986  -1.802  21.960  0.00  0.00    +0.065 C 
ATOM      8  C   UNL     1      10.101  -0.761  22.081  0.00  0.00    +0.165 C 
ATOM      9  O   UNL     1       9.648   0.356  22.854  0.00  0.00    -0.368 OA
ENDROOT
BRANCH   4  10
ATOM     10  N   UNL     1       6.663  -4.037  25.924  0.00  0.00    -0.270 N 
ATOM     11  H   UNL     1       5.966  -3.588  26.516  0.00  0.00    +0.156 HD
ATOM     12  C   UNL     1       7.209  -5.187  26.451  0.00  0.00    +0.326 C 
ATOM     13  O   UNL     1       8.269  -5.720  26.144  0.00  0.00    -0.263 OA
BRANCH  12  14
ATOM     14  C   UNL     1       6.381  -5.778  27.614  0.00  0.00    +0.393 C 
ATOM     15  O   UNL     1       6.483  -5.352  28.749  0.00  0.00    -0.240 OA
BRANCH  14  16
ATOM     16  O   UNL     1       5.604  -6.802  27.226  0.00  0.00    -0.474 OA
ATOM     17  H   UNL     1       4.795  -6.866  27.781  0.00  0.00    +0.296 HD
ENDBRANCH  14  16
ENDBRANCH  12  14
ENDBRANCH   4  10
BRANCH   5  18
ATOM     18  C   UNL     1       7.116  -4.207  22.668  0.00  0.00    +0.339 C 
ATOM     19  O   UNL     1       7.469  -5.382  22.625  0.00  0.00    -0.245 OA
BRANCH  18  20
ATOM     20  O   UNL     1       6.198  -3.734  21.802  0.00  0.00    -0.477 OA
ATOM     21  H   UNL     1       6.333  -4.052  20.884  0.00  0.00    +0.295 HD
ENDBRANCH  18  20
ENDBRANCH   5  18
BRANCH   1  22
ATOM     22  C   UNL     1       8.835   1.303  24.905  0.00  0.00    +0.267 C 
BRANCH  22  23
ATOM     23  O   UNL     1       8.632   2.322  23.884  0.00  0.00    -0.472 OA
BRANCH  23  24
ATOM     24  C   UNL     1       8.762   3.604  24.278  0.00  0.00    +0.243 C 
ATOM     25  C   UNL     1      10.051   4.231  23.971  0.00  0.00    +0.065 A 
ATOM     26  C   UNL     1      11.171   3.758  23.311  0.00  0.00    +0.015 A 
ATOM     27  C   UNL     1      12.287   4.607  23.225  0.00  0.00    +0.001 A 
ATOM     28  C   UNL     1      12.266   5.897  23.793  0.00  0.00    +0.002 A 
ATOM     29  C   UNL     1      11.124   6.366  24.443  0.00  0.00    +0.030 A 
ATOM     30  C   UNL     1      10.044   5.507  24.502  0.00  0.00    +0.125 A 
ATOM     31  S   UNL     1       8.488   5.779  25.242  0.00  0.00    +0.103 S 
ATOM     32  O   UNL     1       8.719   5.923  26.662  0.00  0.00    -0.146 OA
ATOM     33  O   UNL     1       7.813   6.784  24.451  0.00  0.00    -0.146 OA
ATOM     34  N   UNL     1       7.872   4.290  24.920  0.00  0.00    -0.091 NA
ENDBRANCH  23  24
ENDBRANCH  22  23
ENDBRANCH   1  22
TORSDOF 8
ENDMDL
MODEL 6
REMARK VINA RESULT:      -7.7      2.975      9.821
REMARK  Name = 
REMARK  8 active torsions:
REMARK  status: ('A' for Active; 'I' for Inactive)
REMARK    1  A    between atoms: C_2  and  C_3
REMARK    2  A    between atoms: C_3  and  O_4
REMARK    3  A    between atoms: O_4  and  C_5
REMARK    4  A    between atoms: C_22  and  N_23
REMARK    5  A    between atoms: C_24  and  C_26
REMARK    6  A    between atoms: C_26  and  O_27
REMARK    7  A    between atoms: C_29  and  C_30
REMARK    8  A    between atoms: C_30  and  O_31
REMARK                            x       y       z     vdW  Elec       q    Type
REMARK                         _______ _______ _______ _____ _____    ______ ____
ROOT
ATOM      1  C   UNL     1       9.379  -1.462  24.126  0.00  0.00    +0.192 C 
ATOM      2  C   UNL     1       8.539  -2.601  24.688  0.00  0.00    +0.027 A 
ATOM      3  S   UNL     1       8.636  -3.179  26.283  0.00  0.00    -0.075 S 
ATOM      4  C   UNL     1       7.524  -4.448  25.981  0.00  0.00    +0.087 A 
ATOM      5  C   UNL     1       6.984  -4.404  24.704  0.00  0.00    +0.091 A 
ATOM      6  C   UNL     1       7.634  -3.347  23.950  0.00  0.00    -0.017 A 
ATOM      7  C   UNL     1       7.373  -2.989  22.514  0.00  0.00    +0.065 C 
ATOM      8  C   UNL     1       8.527  -2.143  21.972  0.00  0.00    +0.165 C 
ATOM      9  O   UNL     1       8.795  -1.051  22.859  0.00  0.00    -0.368 OA
ENDROOT
BRANCH   4  10
ATOM     10  N   UNL     1       7.328  -5.228  27.106  0.00  0.00    -0.270 N 
ATOM     11  H   UNL     1       7.830  -6.114  27.150  0.00  0.00    +0.156 HD
ATOM     12  C   UNL     1       6.161  -5.193  27.839  0.00  0.00    +0.326 C 
ATOM     13  O   UNL     1       5.216  -4.425  27.702  0.00  0.00    -0.263 OA
BRANCH  12  14
ATOM     14  C   UNL     1       6.061  -6.328  28.882  0.00  0.00    +0.393 C 
ATOM     15  O   UNL     1       6.455  -6.179  30.023  0.00  0.00    -0.240 OA
BRANCH  14  16
ATOM     16  O   UNL     1       5.543  -7.455  28.370  0.00  0.00    -0.474 OA
ATOM     17  H   UNL     1       5.309  -8.095  29.079  0.00  0.00    +0.296 HD
ENDBRANCH  14  16
ENDBRANCH  12  14
ENDBRANCH   4  10
BRANCH   5  18
ATOM     18  C   UNL     1       5.833  -5.147  24.175  0.00  0.00    +0.339 C 
ATOM     19  O   UNL     1       5.958  -6.012  23.314  0.00  0.00    -0.245 OA
BRANCH  18  20
ATOM     20  O   UNL     1       4.624  -4.870  24.701  0.00  0.00    -0.477 OA
ATOM     21  H   UNL     1       3.973  -4.564  24.033  0.00  0.00    +0.295 HD
ENDBRANCH  18  20
ENDBRANCH   5  18
BRANCH   1  22
ATOM     22  C   UNL     1       9.458  -0.198  25.003  0.00  0.00    +0.267 C 
BRANCH  22  23
ATOM     23  O   UNL     1       9.812   0.947  24.174  0.00  0.00    -0.472 OA
BRANCH  23  24
ATOM     24  C   UNL     1       9.189   2.109  24.455  0.00  0.00    +0.243 C 
ATOM     25  C   UNL     1       9.936   3.323  24.115  0.00  0.00    +0.065 A 
ATOM     26  C   UNL     1      11.170   3.509  23.518  0.00  0.00    +0.015 A 
ATOM     27  C   UNL     1      11.637   4.826  23.375  0.00  0.00    +0.001 A 
ATOM     28  C   UNL     1      10.873   5.923  23.825  0.00  0.00    +0.002 A 
ATOM     29  C   UNL     1       9.624   5.721  24.412  0.00  0.00    +0.030 A 
ATOM     30  C   UNL     1       9.194   4.414  24.530  0.00  0.00    +0.125 A 
ATOM     31  S   UNL     1       7.703   3.826  25.217  0.00  0.00    +0.103 S 
ATOM     32  O   UNL     1       7.726   4.165  26.622  0.00  0.00    -0.146 OA
ATOM     33  O   UNL     1       6.637   4.234  24.329  0.00  0.00    -0.146 OA
ATOM     34  N   UNL     1       8.030   2.228  25.019  0.00  0.00    -0.091 NA
ENDBRANCH  23  24
ENDBRANCH  22  23
ENDBRANCH   1  22
TORSDOF 8
ENDMDL
MODEL 7
REMARK VINA RESULT:      -7.5      3.174      5.271
REMARK  Name = 
REMARK  8 active torsions:
REMARK  status: ('A' for Active; 'I' for Inactive)
REMARK    1  A    between atoms: C_2  and  C_3
REMARK    2  A    between atoms: C_3  and  O_4
REMARK    3  A    between atoms: O_4  and  C_5
REMARK    4  A    between atoms: C_22  and  N_23
REMARK    5  A    between atoms: C_24  and  C_26
REMARK    6  A    between atoms: C_26  and  O_27
REMARK    7  A    between atoms: C_29  and  C_30
REMARK    8  A    between atoms: C_30  and  O_31
REMARK                            x       y       z     vdW  Elec       q    Type
REMARK                         _______ _______ _______ _____ _____    ______ ____
ROOT
ATOM      1  C   UNL     1       9.088  -0.993  24.251  0.00  0.00    +0.192 C 
ATOM      2  C   UNL     1       8.216   0.221  23.960  0.00  0.00    +0.027 A 
ATOM      3  S   UNL     1       6.568   0.152  23.550  0.00  0.00    -0.075 S 
ATOM      4  C   UNL     1       6.475   1.844  23.288  0.00  0.00    +0.087 A 
ATOM      5  C   UNL     1       7.654   2.507  23.597  0.00  0.00    +0.091 A 
ATOM      6  C   UNL     1       8.673   1.529  23.936  0.00  0.00    -0.017 A 
ATOM      7  C   UNL     1      10.103   1.822  24.294  0.00  0.00    +0.065 C 
ATOM      8  C   UNL     1      10.943   0.551  24.160  0.00  0.00    +0.165 C 
ATOM      9  O   UNL     1      10.320  -0.527  24.868  0.00  0.00    -0.368 OA
ENDROOT
BRANCH   4  10
ATOM     10  N   UNL     1       5.208   2.225  22.886  0.00  0.00    -0.270 N 
ATOM     11  H   UNL     1       5.077   2.431  21.897  0.00  0.00    +0.156 HD
ATOM     12  C   UNL     1       4.326   2.869  23.728  0.00  0.00    +0.326 C 
ATOM     13  O   UNL     1       4.459   3.082  24.927  0.00  0.00    -0.263 OA
BRANCH  12  14
ATOM     14  C   UNL     1       3.087   3.432  22.998  0.00  0.00    +0.393 C 
ATOM     15  O   UNL     1       2.357   4.252  23.523  0.00  0.00    -0.240 OA
BRANCH  14  16
ATOM     16  O   UNL     1       2.913   2.890  21.782  0.00  0.00    -0.474 OA
ATOM     17  H   UNL     1       1.961   2.853  21.540  0.00  0.00    +0.296 HD
ENDBRANCH  14  16
ENDBRANCH  12  14
ENDBRANCH   4  10
BRANCH   5  18
ATOM     18  C   UNL     1       7.877   3.950  23.746  0.00  0.00    +0.339 C 
ATOM     19  O   UNL     1       7.772   4.516  24.830  0.00  0.00    -0.245 OA
BRANCH  18  20
ATOM     20  O   UNL     1       8.245   4.635  22.646  0.00  0.00    -0.477 OA
ATOM     21  H   UNL     1       7.487   5.041  22.172  0.00  0.00    +0.295 HD
ENDBRANCH  18  20
ENDBRANCH   5  18
BRANCH   1  22
ATOM     22  C   UNL     1       8.483  -2.034  25.211  0.00  0.00    +0.267 C 
BRANCH  22  23
ATOM     23  O   UNL     1       8.732  -3.373  24.697  0.00  0.00    -0.472 OA
BRANCH  23  24
ATOM     24  C   UNL     1       7.792  -3.890  23.880  0.00  0.00    +0.243 C 
ATOM     25  C   UNL     1       6.814  -4.772  24.524  0.00  0.00    +0.065 A 
ATOM     26  C   UNL     1       6.647  -5.158  25.842  0.00  0.00    +0.015 A 
ATOM     27  C   UNL     1       5.623  -6.074  26.131  0.00  0.00    +0.001 A 
ATOM     28  C   UNL     1       4.792  -6.585  25.113  0.00  0.00    +0.002 A 
ATOM     29  C   UNL     1       4.963  -6.176  23.790  0.00  0.00    +0.030 A 
ATOM     30  C   UNL     1       5.975  -5.269  23.543  0.00  0.00    +0.125 A 
ATOM     31  S   UNL     1       6.451  -4.572  22.017  0.00  0.00    +0.103 S 
ATOM     32  O   UNL     1       6.938  -5.657  21.195  0.00  0.00    -0.146 OA
ATOM     33  O   UNL     1       5.382  -3.691  21.601  0.00  0.00    -0.146 OA
ATOM     34  N   UNL     1       7.714  -3.700  22.603  0.00  0.00    -0.091 NA
ENDBRANCH  23  24
ENDBRANCH  22  23
ENDBRANCH   1  22
TORSDOF 8
ENDMDL
MODEL 8
REMARK VINA RESULT:      -7.5      2.830      9.442
REMARK  Name = 
REMARK  8 active torsions:
REMARK  status: ('A' for Active; 'I' for Inactive)
REMARK    1  A    between atoms: C_2  and  C_3
REMARK    2  A    between atoms: C_3  and  O_4
REMARK    3  A    between atoms: O_4  and  C_5
REMARK    4  A    between atoms: C_22  and  N_23
REMARK    5  A    between atoms: C_24  and  C_26
REMARK    6  A    between atoms: C_26  and  O_27
REMARK    7  A    between atoms: C_29  and  C_30
REMARK    8  A    between atoms: C_30  and  O_31
REMARK                            x       y       z     vdW  Elec       q    Type
REMARK                         _______ _______ _______ _____ _____    ______ ____
ROOT
ATOM      1  C   UNL     1      10.032  -0.643  24.465  0.00  0.00    +0.192 C 
ATOM      2  C   UNL     1       8.950  -1.696  24.666  0.00  0.00    +0.027 A 
ATOM      3  S   UNL     1       8.291  -2.131  26.171  0.00  0.00    -0.075 S 
ATOM      4  C   UNL     1       7.336  -3.380  25.487  0.00  0.00    +0.087 A 
ATOM      5  C   UNL     1       7.419  -3.431  24.103  0.00  0.00    +0.091 A 
ATOM      6  C   UNL     1       8.411  -2.471  23.651  0.00  0.00    -0.017 A 
ATOM      7  C   UNL     1       8.837  -2.234  22.230  0.00  0.00    +0.065 C 
ATOM      8  C   UNL     1      10.169  -1.483  22.205  0.00  0.00    +0.165 C 
ATOM      9  O   UNL     1      10.098  -0.327  23.047  0.00  0.00    -0.368 OA
ENDROOT
BRANCH   4  10
ATOM     10  N   UNL     1       6.608  -4.048  26.454  0.00  0.00    -0.270 N 
ATOM     11  H   UNL     1       6.094  -3.477  27.124  0.00  0.00    +0.156 HD
ATOM     12  C   UNL     1       6.959  -5.298  26.915  0.00  0.00    +0.326 C 
ATOM     13  O   UNL     1       7.840  -6.033  26.485  0.00  0.00    -0.263 OA
BRANCH  12  14
ATOM     14  C   UNL     1       6.168  -5.730  28.170  0.00  0.00    +0.393 C 
ATOM     15  O   UNL     1       6.019  -4.980  29.117  0.00  0.00    -0.240 OA
BRANCH  14  16
ATOM     16  O   UNL     1       5.726  -6.995  28.092  0.00  0.00    -0.474 OA
ATOM     17  H   UNL     1       5.217  -7.245  28.895  0.00  0.00    +0.296 HD
ENDBRANCH  14  16
ENDBRANCH  12  14
ENDBRANCH   4  10
BRANCH   5  18
ATOM     18  C   UNL     1       6.569  -4.174  23.165  0.00  0.00    +0.339 C 
ATOM     19  O   UNL     1       6.743  -5.367  22.934  0.00  0.00    -0.245 OA
BRANCH  18  20
ATOM     20  O   UNL     1       5.551  -3.504  22.589  0.00  0.00    -0.477 OA
ATOM     21  H   UNL     1       5.207  -3.944  21.781  0.00  0.00    +0.295 HD
ENDBRANCH  18  20
ENDBRANCH   5  18
BRANCH   1  22
ATOM     22  C   UNL     1       9.809   0.690  25.202  0.00  0.00    +0.267 C 
BRANCH  22  23
ATOM     23  O   UNL     1      10.048   1.798  24.287  0.00  0.00    -0.472 OA
BRANCH  23  24
ATOM     24  C   UNL     1       8.973   2.531  23.934  0.00  0.00    +0.243 C 
ATOM     25  C   UNL     1       9.211   3.970  23.790  0.00  0.00    +0.065 A 
ATOM     26  C   UNL     1      10.359   4.732  23.917  0.00  0.00    +0.015 A 
ATOM     27  C   UNL     1      10.241   6.122  23.764  0.00  0.00    +0.001 A 
ATOM     28  C   UNL     1       8.995   6.723  23.489  0.00  0.00    +0.002 A 
ATOM     29  C   UNL     1       7.848   5.941  23.349  0.00  0.00    +0.030 A 
ATOM     30  C   UNL     1       8.003   4.577  23.500  0.00  0.00    +0.125 A 
ATOM     31  S   UNL     1       6.783   3.335  23.396  0.00  0.00    +0.103 S 
ATOM     32  O   UNL     1       5.860   3.562  24.486  0.00  0.00    -0.146 OA
ATOM     33  O   UNL     1       6.363   3.267  22.014  0.00  0.00    -0.146 OA
ATOM     34  N   UNL     1       7.775   2.075  23.754  0.00  0.00    -0.091 NA
ENDBRANCH  23  24
ENDBRANCH  22  23
ENDBRANCH   1  22
TORSDOF 8
ENDMDL
MODEL 9
REMARK VINA RESULT:      -7.4      2.853      4.740
REMARK  Name = 
REMARK  8 active torsions:
REMARK  status: ('A' for Active; 'I' for Inactive)
REMARK    1  A    between atoms: C_2  and  C_3
REMARK    2  A    between atoms: C_3  and  O_4
REMARK    3  A    between atoms: O_4  and  C_5
REMARK    4  A    between atoms: C_22  and  N_23
REMARK    5  A    between atoms: C_24  and  C_26
REMARK    6  A    between atoms: C_26  and  O_27
REMARK    7  A    between atoms: C_29  and  C_30
REMARK    8  A    between atoms: C_30  and  O_31
REMARK                            x       y       z     vdW  Elec       q    Type
REMARK                         _______ _______ _______ _____ _____    ______ ____
ROOT
ATOM      1  C   UNL     1       8.734  -1.222  23.439  0.00  0.00    +0.192 C 
ATOM      2  C   UNL     1       8.727   0.205  23.970  0.00  0.00    +0.027 A 
ATOM      3  S   UNL     1       8.033   0.684  25.446  0.00  0.00    -0.075 S 
ATOM      4  C   UNL     1       8.354   2.343  25.156  0.00  0.00    +0.087 A 
ATOM      5  C   UNL     1       9.076   2.561  23.992  0.00  0.00    +0.091 A 
ATOM      6  C   UNL     1       9.235   1.300  23.289  0.00  0.00    -0.017 A 
ATOM      7  C   UNL     1       9.919   1.098  21.966  0.00  0.00    +0.065 C 
ATOM      8  C   UNL     1       9.508  -0.249  21.368  0.00  0.00    +0.165 C 
ATOM      9  O   UNL     1       9.681  -1.289  22.337  0.00  0.00    -0.368 OA
ENDROOT
BRANCH   4  10
ATOM     10  N   UNL     1       7.890   3.137  26.189  0.00  0.00    -0.270 N 
ATOM     11  H   UNL     1       7.870   2.722  27.119  0.00  0.00    +0.156 HD
ATOM     12  C   UNL     1       6.978   4.151  25.993  0.00  0.00    +0.326 C 
ATOM     13  O   UNL     1       6.551   4.575  24.925  0.00  0.00    -0.263 OA
BRANCH  12  14
ATOM     14  C   UNL     1       6.407   4.721  27.310  0.00  0.00    +0.393 C 
ATOM     15  O   UNL     1       5.707   4.048  28.043  0.00  0.00    -0.240 OA
BRANCH  14  16
ATOM     16  O   UNL     1       6.738   6.007  27.503  0.00  0.00    -0.474 OA
ATOM     17  H   UNL     1       6.279   6.595  26.862  0.00  0.00    +0.296 HD
ENDBRANCH  14  16
ENDBRANCH  12  14
ENDBRANCH   4  10
BRANCH   5  18
ATOM     18  C   UNL     1       9.748   3.789  23.551  0.00  0.00    +0.339 C 
ATOM     19  O   UNL     1      10.968   3.914  23.593  0.00  0.00    -0.245 OA
BRANCH  18  20
ATOM     20  O   UNL     1       8.973   4.774  23.055  0.00  0.00    -0.477 OA
ATOM     21  H   UNL     1       8.124   4.876  23.536  0.00  0.00    +0.295 HD
ENDBRANCH  18  20
ENDBRANCH   5  18
BRANCH   1  22
ATOM     22  C   UNL     1       9.156  -2.307  24.447  0.00  0.00    +0.267 C 
BRANCH  22  23
ATOM     23  O   UNL     1       9.144  -3.609  23.794  0.00  0.00    -0.472 OA
BRANCH  23  24
ATOM     24  C   UNL     1       7.934  -4.114  23.480  0.00  0.00    +0.243 C 
ATOM     25  C   UNL     1       7.216  -4.761  24.581  0.00  0.00    +0.065 A 
ATOM     26  C   UNL     1       7.533  -4.927  25.918  0.00  0.00    +0.015 A 
ATOM     27  C   UNL     1       6.637  -5.653  26.718  0.00  0.00    +0.001 A 
ATOM     28  C   UNL     1       5.453  -6.196  26.179  0.00  0.00    +0.002 A 
ATOM     29  C   UNL     1       5.138  -6.009  24.832  0.00  0.00    +0.030 A 
ATOM     30  C   UNL     1       6.039  -5.284  24.077  0.00  0.00    +0.125 A 
ATOM     31  S   UNL     1       5.949  -4.882  22.382  0.00  0.00    +0.103 S 
ATOM     32  O   UNL     1       6.020  -6.128  21.652  0.00  0.00    -0.146 OA
ATOM     33  O   UNL     1       4.862  -3.943  22.226  0.00  0.00    -0.146 OA
ATOM     34  N   UNL     1       7.393  -4.103  22.304  0.00  0.00    -0.091 NA
ENDBRANCH  23  24
ENDBRANCH  22  23
ENDBRANCH   1  22
TORSDOF 8
ENDMDL
