MODEL 1
REMARK VINA RESULT:      -5.5      0.000      0.000
REMARK  Name = 
REMARK  18 active torsions:
REMARK  status: ('A' for Active; 'I' for Inactive)
REMARK    1  A    between atoms: C_2  and  C_3
REMARK    2  A    between atoms: C_2  and  C_10
REMARK    3  A    between atoms: C_2  and  O_17
REMARK    4  A    between atoms: C_3  and  O_4
REMARK    5  A    between atoms: O_4  and  C_5
REMARK    6  A    between atoms: C_5  and  C_7
REMARK    7  A    between atoms: C_7  and  C_8
REMARK    8  A    between atoms: C_8  and  C_9
REMARK    9  A    between atoms: C_10  and  O_11
REMARK   10  A    between atoms: O_11  and  P_12
REMARK   11  A    between atoms: P_12  and  O_13
REMARK   12  A    between atoms: P_12  and  O_14
REMARK   13  A    between atoms: P_12  and  O_15
REMARK   14  A    between atoms: P_12  and  O_16
REMARK   15  A    between atoms: O_17  and  C_18
REMARK   16  A    between atoms: C_18  and  C_20
REMARK   17  A    between atoms: C_20  and  C_21
REMARK   18  A    between atoms: C_21  and  C_22
REMARK                            x       y       z     vdW  Elec       q    Type
REMARK                         _______ _______ _______ _____ _____    ______ ____
ROOT
ATOM      1  C   UNL     1       9.042  -2.417  22.793  0.00  0.00    +0.240 C 
ENDROOT
BRANCH   1   2
ATOM      2  C   UNL     1       9.186  -2.787  24.284  0.00  0.00    +0.221 C 
BRANCH   2   3
ATOM      3  O   UNL     1       9.617  -4.138  24.430  0.00  0.00    -0.282 OA
BRANCH   3   4
ATOM      4  P   UNL     1       8.733  -4.959  25.670  0.00  0.00    +0.399 P 
BRANCH   4   5
ATOM      5  O   UNL     1       7.849  -5.781  26.909  0.00  0.00    -0.302 OA
ATOM      6  H   UNL     1       8.246  -5.484  27.766  0.00  0.00    +0.223 HD
ENDBRANCH   4   5
BRANCH   4   7
ATOM      7  O   UNL     1       9.626  -4.791  27.118  0.00  0.00    -0.302 OA
ATOM      8  H   UNL     1      10.538  -5.159  26.986  0.00  0.00    +0.223 HD
ENDBRANCH   4   7
BRANCH   4   9
ATOM      9  O   UNL     1       8.140  -3.363  25.695  0.00  0.00    -0.302 OA
ATOM     10  H   UNL     1       7.156  -3.458  25.613  0.00  0.00    +0.223 HD
ENDBRANCH   4   9
BRANCH   4  11
ATOM     11  O   UNL     1       9.823  -6.116  25.076  0.00  0.00    -0.302 OA
ATOM     12  H   UNL     1       9.676  -6.919  25.638  0.00  0.00    +0.223 HD
ENDBRANCH   4  11
ENDBRANCH   3   4
ENDBRANCH   2   3
ENDBRANCH   1   2
BRANCH   1  13
ATOM     13  C   UNL     1       7.700  -1.707  22.550  0.00  0.00    +0.279 C 
BRANCH  13  14
ATOM     14  O   UNL     1       6.679  -2.392  23.191  0.00  0.00    -0.461 OA
BRANCH  14  15
ATOM     15  C   UNL     1       5.867  -3.319  22.616  0.00  0.00    +0.307 C 
ATOM     16  O   UNL     1       5.372  -3.128  21.514  0.00  0.00    -0.251 OA
BRANCH  15  17
ATOM     17  C   UNL     1       5.577  -4.601  23.344  0.00  0.00    +0.120 C 
BRANCH  17  18
ATOM     18  C   UNL     1       5.838  -5.811  22.443  0.00  0.00    +0.008 C 
ATOM     19  C   UNL     1       7.322  -5.946  22.118  0.00  0.00    +0.004 C 
ENDBRANCH  17  18
ENDBRANCH  15  17
ENDBRANCH  14  15
ENDBRANCH  13  14
ENDBRANCH   1  13
BRANCH   1  20
ATOM     20  O   UNL     1      10.070  -1.571  22.396  0.00  0.00    -0.456 OA
BRANCH  20  21
ATOM     21  C   UNL     1      10.069  -0.213  22.517  0.00  0.00    +0.308 C 
ATOM     22  O   UNL     1       9.706   0.499  21.591  0.00  0.00    -0.251 OA
BRANCH  21  23
ATOM     23  C   UNL     1      10.489   0.429  23.809  0.00  0.00    +0.120 C 
BRANCH  23  24
ATOM     24  C   UNL     1       9.291   0.977  24.587  0.00  0.00    +0.008 C 
ATOM     25  C   UNL     1       9.232   2.501  24.490  0.00  0.00    +0.004 C 
ENDBRANCH  23  24
ENDBRANCH  21  23
ENDBRANCH  20  21
ENDBRANCH   1  20
TORSDOF 16
ENDMDL
MODEL 2
REMARK VINA RESULT:      -5.5      2.332      3.975
REMARK  Name = 
REMARK  18 active torsions:
REMARK  status: ('A' for Active; 'I' for Inactive)
REMARK    1  A    between atoms: C_2  and  C_3
REMARK    2  A    between atoms: C_2  and  C_10
REMARK    3  A    between atoms: C_2  and  O_17
REMARK    4  A    between atoms: C_3  and  O_4
REMARK    5  A    between atoms: O_4  and  C_5
REMARK    6  A    between atoms: C_5  and  C_7
REMARK    7  A    between atoms: C_7  and  C_8
REMARK    8  A    between atoms: C_8  and  C_9
REMARK    9  A    between atoms: C_10  and  O_11
REMARK   10  A    between atoms: O_11  and  P_12
REMARK   11  A    between atoms: P_12  and  O_13
REMARK   12  A    between atoms: P_12  and  O_14
REMARK   13  A    between atoms: P_12  and  O_15
REMARK   14  A    between atoms: P_12  and  O_16
REMARK   15  A    between atoms: O_17  and  C_18
REMARK   16  A    between atoms: C_18  and  C_20
REMARK   17  A    between atoms: C_20  and  C_21
REMARK   18  A    between atoms: C_21  and  C_22
REMARK                            x       y       z     vdW  Elec       q    Type
REMARK                         _______ _______ _______ _____ _____    ______ ____
ROOT
ATOM      1  C   UNL     1       7.528  -1.981  23.000  0.00  0.00    +0.240 C 
ENDROOT
BRANCH   1   2
ATOM      2  C   UNL     1       6.313  -2.850  22.615  0.00  0.00    +0.221 C 
BRANCH   2   3
ATOM      3  O   UNL     1       6.730  -4.022  21.919  0.00  0.00    -0.282 OA
BRANCH   3   4
ATOM      4  P   UNL     1       5.939  -5.438  22.518  0.00  0.00    +0.399 P 
BRANCH   4   5
ATOM      5  O   UNL     1       5.147  -6.854  23.119  0.00  0.00    -0.302 OA
ATOM      6  H   UNL     1       5.485  -6.980  24.042  0.00  0.00    +0.223 HD
ENDBRANCH   4   5
BRANCH   4   7
ATOM      7  O   UNL     1       5.336  -6.288  21.163  0.00  0.00    -0.302 OA
ATOM      8  H   UNL     1       4.474  -5.886  20.881  0.00  0.00    +0.223 HD
ENDBRANCH   4   7
BRANCH   4   9
ATOM      9  O   UNL     1       7.554  -5.914  22.265  0.00  0.00    -0.302 OA
ATOM     10  H   UNL     1       7.699  -6.663  22.898  0.00  0.00    +0.223 HD
ENDBRANCH   4   9
BRANCH   4  11
ATOM     11  O   UNL     1       4.710  -4.274  22.396  0.00  0.00    -0.302 OA
ATOM     12  H   UNL     1       5.154  -3.411  22.596  0.00  0.00    +0.223 HD
ENDBRANCH   4  11
ENDBRANCH   3   4
ENDBRANCH   2   3
ENDBRANCH   1   2
BRANCH   1  13
ATOM     13  C   UNL     1       8.031  -2.363  24.402  0.00  0.00    +0.279 C 
BRANCH  13  14
ATOM     14  O   UNL     1       8.980  -3.369  24.306  0.00  0.00    -0.461 OA
BRANCH  14  15
ATOM     15  C   UNL     1       9.028  -4.486  25.081  0.00  0.00    +0.307 C 
ATOM     16  O   UNL     1       9.305  -5.576  24.602  0.00  0.00    -0.251 OA
BRANCH  15  17
ATOM     17  C   UNL     1       8.739  -4.377  26.551  0.00  0.00    +0.120 C 
BRANCH  17  18
ATOM     18  C   UNL     1       7.654  -5.375  26.968  0.00  0.00    +0.008 C 
ATOM     19  C   UNL     1       6.293  -4.978  26.406  0.00  0.00    +0.004 C 
ENDBRANCH  17  18
ENDBRANCH  15  17
ENDBRANCH  14  15
ENDBRANCH  13  14
ENDBRANCH   1  13
BRANCH   1  20
ATOM     20  O   UNL     1       8.566  -2.158  22.093  0.00  0.00    -0.456 OA
BRANCH  20  21
ATOM     21  C   UNL     1       9.596  -1.289  21.890  0.00  0.00    +0.308 C 
ATOM     22  O   UNL     1      10.748  -1.612  22.144  0.00  0.00    -0.251 OA
BRANCH  21  23
ATOM     23  C   UNL     1       9.331   0.076  21.321  0.00  0.00    +0.120 C 
BRANCH  23  24
ATOM     24  C   UNL     1      10.016   1.175  22.137  0.00  0.00    +0.008 C 
ATOM     25  C   UNL     1       9.326   1.358  23.488  0.00  0.00    +0.004 C 
ENDBRANCH  23  24
ENDBRANCH  21  23
ENDBRANCH  20  21
ENDBRANCH   1  20
TORSDOF 16
ENDMDL
MODEL 3
REMARK VINA RESULT:      -5.4      2.397      5.201
REMARK  Name = 
REMARK  18 active torsions:
REMARK  status: ('A' for Active; 'I' for Inactive)
REMARK    1  A    between atoms: C_2  and  C_3
REMARK    2  A    between atoms: C_2  and  C_10
REMARK    3  A    between atoms: C_2  and  O_17
REMARK    4  A    between atoms: C_3  and  O_4
REMARK    5  A    between atoms: O_4  and  C_5
REMARK    6  A    between atoms: C_5  and  C_7
REMARK    7  A    between atoms: C_7  and  C_8
REMARK    8  A    between atoms: C_8  and  C_9
REMARK    9  A    between atoms: C_10  and  O_11
REMARK   10  A    between atoms: O_11  and  P_12
REMARK   11  A    between atoms: P_12  and  O_13
REMARK   12  A    between atoms: P_12  and  O_14
REMARK   13  A    between atoms: P_12  and  O_15
REMARK   14  A    between atoms: P_12  and  O_16
REMARK   15  A    between atoms: O_17  and  C_18
REMARK   16  A    between atoms: C_18  and  C_20
REMARK   17  A    between atoms: C_20  and  C_21
REMARK   18  A    between atoms: C_21  and  C_22
REMARK                            x       y       z     vdW  Elec       q    Type
REMARK                         _______ _______ _______ _____ _____    ______ ____
ROOT
ATOM      1  C   UNL     1       8.619  -2.446  24.243  0.00  0.00    +0.240 C 
ENDROOT
BRANCH   1   2
ATOM      2  C   UNL     1       9.414  -1.242  23.696  0.00  0.00    +0.221 C 
BRANCH   2   3
ATOM      3  O   UNL     1       8.570  -0.387  22.929  0.00  0.00    -0.282 OA
BRANCH   3   4
ATOM      4  P   UNL     1       9.458   0.919  22.223  0.00  0.00    +0.399 P 
BRANCH   4   5
ATOM      5  O   UNL     1      10.346   2.225  21.517  0.00  0.00    -0.302 OA
ATOM      6  H   UNL     1      11.262   1.879  21.368  0.00  0.00    +0.223 HD
ENDBRANCH   4   5
BRANCH   4   7
ATOM      7  O   UNL     1       8.488   1.567  20.973  0.00  0.00    -0.302 OA
ATOM      8  H   UNL     1       7.599   1.125  20.985  0.00  0.00    +0.223 HD
ENDBRANCH   4   7
BRANCH   4   9
ATOM      9  O   UNL     1       8.552   1.632  23.476  0.00  0.00    -0.302 OA
ATOM     10  H   UNL     1       8.165   0.868  23.975  0.00  0.00    +0.223 HD
ENDBRANCH   4   9
BRANCH   4  11
ATOM     11  O   UNL     1       9.854  -0.434  21.279  0.00  0.00    -0.302 OA
ATOM     12  H   UNL     1       9.065  -0.582  20.698  0.00  0.00    +0.223 HD
ENDBRANCH   4  11
ENDBRANCH   3   4
ENDBRANCH   2   3
ENDBRANCH   1   2
BRANCH   1  13
ATOM     13  C   UNL     1       7.301  -2.609  23.467  0.00  0.00    +0.279 C 
BRANCH  13  14
ATOM     14  O   UNL     1       7.487  -3.463  22.392  0.00  0.00    -0.461 OA
BRANCH  14  15
ATOM     15  C   UNL     1       6.533  -4.263  21.845  0.00  0.00    +0.307 C 
ATOM     16  O   UNL     1       5.733  -3.827  21.030  0.00  0.00    -0.251 OA
BRANCH  15  17
ATOM     17  C   UNL     1       6.464  -5.710  22.246  0.00  0.00    +0.120 C 
BRANCH  17  18
ATOM     18  C   UNL     1       5.733  -5.871  23.581  0.00  0.00    +0.008 C 
ATOM     19  C   UNL     1       4.220  -5.878  23.385  0.00  0.00    +0.004 C 
ENDBRANCH  17  18
ENDBRANCH  15  17
ENDBRANCH  14  15
ENDBRANCH  13  14
ENDBRANCH   1  13
BRANCH   1  20
ATOM     20  O   UNL     1       9.355  -3.618  24.118  0.00  0.00    -0.456 OA
BRANCH  20  21
ATOM     21  C   UNL     1       9.237  -4.716  24.916  0.00  0.00    +0.308 C 
ATOM     22  O   UNL     1       9.311  -5.844  24.449  0.00  0.00    -0.251 OA
BRANCH  21  23
ATOM     23  C   UNL     1       9.042  -4.553  26.398  0.00  0.00    +0.120 C 
BRANCH  23  24
ATOM     24  C   UNL     1       7.748  -5.215  26.877  0.00  0.00    +0.008 C 
ATOM     25  C   UNL     1       6.593  -4.214  26.872  0.00  0.00    +0.004 C 
ENDBRANCH  23  24
ENDBRANCH  21  23
ENDBRANCH  20  21
ENDBRANCH   1  20
TORSDOF 16
ENDMDL
MODEL 4
REMARK VINA RESULT:      -5.4      1.374      5.247
REMARK  Name = 
REMARK  18 active torsions:
REMARK  status: ('A' for Active; 'I' for Inactive)
REMARK    1  A    between atoms: C_2  and  C_3
REMARK    2  A    between atoms: C_2  and  C_10
REMARK    3  A    between atoms: C_2  and  O_17
REMARK    4  A    between atoms: C_3  and  O_4
REMARK    5  A    between atoms: O_4  and  C_5
REMARK    6  A    between atoms: C_5  and  C_7
REMARK    7  A    between atoms: C_7  and  C_8
REMARK    8  A    between atoms: C_8  and  C_9
REMARK    9  A    between atoms: C_10  and  O_11
REMARK   10  A    between atoms: O_11  and  P_12
REMARK   11  A    between atoms: P_12  and  O_13
REMARK   12  A    between atoms: P_12  and  O_14
REMARK   13  A    between atoms: P_12  and  O_15
REMARK   14  A    between atoms: P_12  and  O_16
REMARK   15  A    between atoms: O_17  and  C_18
REMARK   16  A    between atoms: C_18  and  C_20
REMARK   17  A    between atoms: C_20  and  C_21
REMARK   18  A    between atoms: C_21  and  C_22
REMARK                            x       y       z     vdW  Elec       q    Type
REMARK                         _______ _______ _______ _____ _____    ______ ____
ROOT
ATOM      1  C   UNL     1       8.089  -2.327  22.818  0.00  0.00    +0.240 C 
ENDROOT
BRANCH   1   2
ATOM      2  C   UNL     1       8.497  -2.685  24.262  0.00  0.00    +0.221 C 
BRANCH   2   3
ATOM      3  O   UNL     1       9.249  -3.895  24.290  0.00  0.00    -0.282 OA
BRANCH   3   4
ATOM      4  P   UNL     1       8.725  -4.945  25.560  0.00  0.00    +0.399 P 
BRANCH   4   5
ATOM      5  O   UNL     1       8.200  -5.995  26.832  0.00  0.00    -0.302 OA
ATOM      6  H   UNL     1       8.267  -6.913  26.467  0.00  0.00    +0.223 HD
ENDBRANCH   4   5
BRANCH   4   7
ATOM      7  O   UNL     1       9.972  -4.978  26.730  0.00  0.00    -0.302 OA
ATOM      8  H   UNL     1       9.598  -4.731  27.615  0.00  0.00    +0.223 HD
ENDBRANCH   4   7
BRANCH   4   9
ATOM      9  O   UNL     1       8.165  -3.400  26.010  0.00  0.00    -0.302 OA
ATOM     10  H   UNL     1       7.321  -3.571  26.501  0.00  0.00    +0.223 HD
ENDBRANCH   4   9
BRANCH   4  11
ATOM     11  O   UNL     1       9.614  -5.942  24.514  0.00  0.00    -0.302 OA
ATOM     12  H   UNL     1       9.499  -6.858  24.874  0.00  0.00    +0.223 HD
ENDBRANCH   4  11
ENDBRANCH   3   4
ENDBRANCH   2   3
ENDBRANCH   1   2
BRANCH   1  13
ATOM     13  C   UNL     1       9.238  -1.588  22.111  0.00  0.00    +0.279 C 
BRANCH  13  14
ATOM     14  O   UNL     1      10.062  -0.986  23.049  0.00  0.00    -0.461 OA
BRANCH  14  15
ATOM     15  C   UNL     1      10.344   0.343  23.115  0.00  0.00    +0.307 C 
ATOM     16  O   UNL     1      10.910   0.821  24.088  0.00  0.00    -0.251 OA
BRANCH  15  17
ATOM     17  C   UNL     1       9.958   1.237  21.971  0.00  0.00    +0.120 C 
BRANCH  17  18
ATOM     18  C   UNL     1       8.913   2.266  22.414  0.00  0.00    +0.008 C 
ATOM     19  C   UNL     1       7.569   2.013  21.740  0.00  0.00    +0.004 C 
ENDBRANCH  17  18
ENDBRANCH  15  17
ENDBRANCH  14  15
ENDBRANCH  13  14
ENDBRANCH   1  13
BRANCH   1  20
ATOM     20  O   UNL     1       7.786  -3.473  22.094  0.00  0.00    -0.456 OA
BRANCH  20  21
ATOM     21  C   UNL     1       6.559  -4.060  22.018  0.00  0.00    +0.308 C 
ATOM     22  O   UNL     1       5.575  -3.415  21.681  0.00  0.00    -0.251 OA
BRANCH  21  23
ATOM     23  C   UNL     1       6.402  -5.523  22.320  0.00  0.00    +0.120 C 
BRANCH  23  24
ATOM     24  C   UNL     1       5.017  -5.841  22.887  0.00  0.00    +0.008 C 
ATOM     25  C   UNL     1       5.069  -5.960  24.410  0.00  0.00    +0.004 C 
ENDBRANCH  23  24
ENDBRANCH  21  23
ENDBRANCH  20  21
ENDBRANCH   1  20
TORSDOF 16
ENDMDL
MODEL 5
REMARK VINA RESULT:      -5.4      2.599      5.644
REMARK  Name = 
REMARK  18 active torsions:
REMARK  status: ('A' for Active; 'I' for Inactive)
REMARK    1  A    between atoms: C_2  and  C_3
REMARK    2  A    between atoms: C_2  and  C_10
REMARK    3  A    between atoms: C_2  and  O_17
REMARK    4  A    between atoms: C_3  and  O_4
REMARK    5  A    between atoms: O_4  and  C_5
REMARK    6  A    between atoms: C_5  and  C_7
REMARK    7  A    between atoms: C_7  and  C_8
REMARK    8  A    between atoms: C_8  and  C_9
REMARK    9  A    between atoms: C_10  and  O_11
REMARK   10  A    between atoms: O_11  and  P_12
REMARK   11  A    between atoms: P_12  and  O_13
REMARK   12  A    between atoms: P_12  and  O_14
REMARK   13  A    between atoms: P_12  and  O_15
REMARK   14  A    between atoms: P_12  and  O_16
REMARK   15  A    between atoms: O_17  and  C_18
REMARK   16  A    between atoms: C_18  and  C_20
REMARK   17  A    between atoms: C_20  and  C_21
REMARK   18  A    between atoms: C_21  and  C_22
REMARK                            x       y       z     vdW  Elec       q    Type
REMARK                         _______ _______ _______ _____ _____    ______ ____
ROOT
ATOM      1  C   UNL     1       6.853  -3.147  23.011  0.00  0.00    +0.240 C 
ENDROOT
BRANCH   1   2
ATOM      2  C   UNL     1       5.318  -3.288  23.065  0.00  0.00    +0.221 C 
BRANCH   2   3
ATOM      3  O   UNL     1       4.876  -4.331  22.200  0.00  0.00    -0.282 OA
BRANCH   3   4
ATOM      4  P   UNL     1       4.631  -5.812  23.059  0.00  0.00    +0.399 P 
BRANCH   4   5
ATOM      5  O   UNL     1       4.387  -7.294  23.918  0.00  0.00    -0.302 OA
ATOM      6  H   UNL     1       5.051  -7.292  24.653  0.00  0.00    +0.223 HD
ENDBRANCH   4   5
BRANCH   4   7
ATOM      7  O   UNL     1       3.202  -6.520  22.442  0.00  0.00    -0.302 OA
ATOM      8  H   UNL     1       3.235  -7.501  22.583  0.00  0.00    +0.223 HD
ENDBRANCH   4   7
BRANCH   4   9
ATOM      9  O   UNL     1       5.581  -6.239  21.711  0.00  0.00    -0.302 OA
ATOM     10  H   UNL     1       5.297  -7.162  21.485  0.00  0.00    +0.223 HD
ENDBRANCH   4   9
BRANCH   4  11
ATOM     11  O   UNL     1       3.742  -4.657  23.927  0.00  0.00    -0.302 OA
ATOM     12  H   UNL     1       4.369  -3.901  24.063  0.00  0.00    +0.223 HD
ENDBRANCH   4  11
ENDBRANCH   3   4
ENDBRANCH   2   3
ENDBRANCH   1   2
BRANCH   1  13
ATOM     13  C   UNL     1       7.248  -1.661  22.965  0.00  0.00    +0.279 C 
BRANCH  13  14
ATOM     14  O   UNL     1       8.474  -1.517  22.334  0.00  0.00    -0.461 OA
BRANCH  14  15
ATOM     15  C   UNL     1       9.684  -1.495  22.954  0.00  0.00    +0.307 C 
ATOM     16  O   UNL     1      10.704  -1.818  22.363  0.00  0.00    -0.251 OA
BRANCH  15  17
ATOM     17  C   UNL     1       9.769  -1.061  24.390  0.00  0.00    +0.120 C 
BRANCH  17  18
ATOM     18  C   UNL     1      10.565   0.241  24.520  0.00  0.00    +0.008 C 
ATOM     19  C   UNL     1       9.650   1.459  24.431  0.00  0.00    +0.004 C 
ENDBRANCH  17  18
ENDBRANCH  15  17
ENDBRANCH  14  15
ENDBRANCH  13  14
ENDBRANCH   1  13
BRANCH   1  20
ATOM     20  O   UNL     1       7.439  -3.727  24.130  0.00  0.00    -0.456 OA
BRANCH  20  21
ATOM     21  C   UNL     1       8.280  -4.799  24.117  0.00  0.00    +0.308 C 
ATOM     22  O   UNL     1       8.245  -5.614  23.206  0.00  0.00    -0.251 OA
BRANCH  21  23
ATOM     23  C   UNL     1       9.291  -4.978  25.215  0.00  0.00    +0.120 C 
BRANCH  23  24
ATOM     24  C   UNL     1       8.773  -4.450  26.555  0.00  0.00    +0.008 C 
ATOM     25  C   UNL     1       7.663  -5.347  27.099  0.00  0.00    +0.004 C 
ENDBRANCH  23  24
ENDBRANCH  21  23
ENDBRANCH  20  21
ENDBRANCH   1  20
TORSDOF 16
ENDMDL
MODEL 6
REMARK VINA RESULT:      -5.4      2.376      5.498
REMARK  Name = 
REMARK  18 active torsions:
REMARK  status: ('A' for Active; 'I' for Inactive)
REMARK    1  A    between atoms: C_2  and  C_3
REMARK    2  A    between atoms: C_2  and  C_10
REMARK    3  A    between atoms: C_2  and  O_17
REMARK    4  A    between atoms: C_3  and  O_4
REMARK    5  A    between atoms: O_4  and  C_5
REMARK    6  A    between atoms: C_5  and  C_7
REMARK    7  A    between atoms: C_7  and  C_8
REMARK    8  A    between atoms: C_8  and  C_9
REMARK    9  A    between atoms: C_10  and  O_11
REMARK   10  A    between atoms: O_11  and  P_12
REMARK   11  A    between atoms: P_12  and  O_13
REMARK   12  A    between atoms: P_12  and  O_14
REMARK   13  A    between atoms: P_12  and  O_15
REMARK   14  A    between atoms: P_12  and  O_16
REMARK   15  A    between atoms: O_17  and  C_18
REMARK   16  A    between atoms: C_18  and  C_20
REMARK   17  A    between atoms: C_20  and  C_21
REMARK   18  A    between atoms: C_21  and  C_22
REMARK                            x       y       z     vdW  Elec       q    Type
REMARK                         _______ _______ _______ _____ _____    ______ ____
ROOT
ATOM      1  C   UNL     1       9.359  -2.414  24.287  0.00  0.00    +0.240 C 
ENDROOT
BRANCH   1   2
ATOM      2  C   UNL     1       9.834  -0.951  24.171  0.00  0.00    +0.221 C 
BRANCH   2   3
ATOM      3  O   UNL     1      10.480  -0.726  22.922  0.00  0.00    -0.282 OA
BRANCH   3   4
ATOM      4  P   UNL     1       9.835   0.657  22.108  0.00  0.00    +0.399 P 
BRANCH   4   5
ATOM      5  O   UNL     1       9.191   2.041  21.294  0.00  0.00    -0.302 OA
ATOM      6  H   UNL     1       8.495   1.693  20.681  0.00  0.00    +0.223 HD
ENDBRANCH   4   5
BRANCH   4   7
ATOM      7  O   UNL     1       8.210   0.824  22.613  0.00  0.00    -0.302 OA
ATOM      8  H   UNL     1       8.108   0.438  23.521  0.00  0.00    +0.223 HD
ENDBRANCH   4   7
BRANCH   4   9
ATOM      9  O   UNL     1      10.487   1.267  23.558  0.00  0.00    -0.302 OA
ATOM     10  H   UNL     1      11.203   1.889  23.271  0.00  0.00    +0.223 HD
ENDBRANCH   4   9
BRANCH   4  11
ATOM     11  O   UNL     1       9.440  -0.656  21.109  0.00  0.00    -0.302 OA
ATOM     12  H   UNL     1       9.172  -1.380  21.731  0.00  0.00    +0.223 HD
ENDBRANCH   4  11
ENDBRANCH   3   4
ENDBRANCH   2   3
ENDBRANCH   1   2
BRANCH   1  13
ATOM     13  C   UNL     1       8.381  -2.563  25.465  0.00  0.00    +0.279 C 
BRANCH  13  14
ATOM     14  O   UNL     1       8.828  -3.550  26.329  0.00  0.00    -0.461 OA
BRANCH  14  15
ATOM     15  C   UNL     1       8.455  -4.858  26.296  0.00  0.00    +0.307 C 
ATOM     16  O   UNL     1       9.083  -5.678  25.642  0.00  0.00    -0.251 OA
BRANCH  15  17
ATOM     17  C   UNL     1       7.251  -5.302  27.078  0.00  0.00    +0.120 C 
BRANCH  17  18
ATOM     18  C   UNL     1       6.132  -5.763  26.141  0.00  0.00    +0.008 C 
ATOM     19  C   UNL     1       4.956  -4.792  26.166  0.00  0.00    +0.004 C 
ENDBRANCH  17  18
ENDBRANCH  15  17
ENDBRANCH  14  15
ENDBRANCH  13  14
ENDBRANCH   1  13
BRANCH   1  20
ATOM     20  O   UNL     1       8.716  -2.815  23.123  0.00  0.00    -0.456 OA
BRANCH  20  21
ATOM     21  C   UNL     1       7.380  -2.707  22.879  0.00  0.00    +0.308 C 
ATOM     22  O   UNL     1       6.871  -1.620  22.643  0.00  0.00    -0.251 OA
BRANCH  21  23
ATOM     23  C   UNL     1       6.513  -3.935  22.869  0.00  0.00    +0.120 C 
BRANCH  23  24
ATOM     24  C   UNL     1       7.333  -5.207  22.645  0.00  0.00    +0.008 C 
ATOM     25  C   UNL     1       6.546  -6.221  21.816  0.00  0.00    +0.004 C 
ENDBRANCH  23  24
ENDBRANCH  21  23
ENDBRANCH  20  21
ENDBRANCH   1  20
TORSDOF 16
ENDMDL
MODEL 7
REMARK VINA RESULT:      -5.4      1.562      2.084
REMARK  Name = 
REMARK  18 active torsions:
REMARK  status: ('A' for Active; 'I' for Inactive)
REMARK    1  A    between atoms: C_2  and  C_3
REMARK    2  A    between atoms: C_2  and  C_10
REMARK    3  A    between atoms: C_2  and  O_17
REMARK    4  A    between atoms: C_3  and  O_4
REMARK    5  A    between atoms: O_4  and  C_5
REMARK    6  A    between atoms: C_5  and  C_7
REMARK    7  A    between atoms: C_7  and  C_8
REMARK    8  A    between atoms: C_8  and  C_9
REMARK    9  A    between atoms: C_10  and  O_11
REMARK   10  A    between atoms: O_11  and  P_12
REMARK   11  A    between atoms: P_12  and  O_13
REMARK   12  A    between atoms: P_12  and  O_14
REMARK   13  A    between atoms: P_12  and  O_15
REMARK   14  A    between atoms: P_12  and  O_16
REMARK   15  A    between atoms: O_17  and  C_18
REMARK   16  A    between atoms: C_18  and  C_20
REMARK   17  A    between atoms: C_20  and  C_21
REMARK   18  A    between atoms: C_21  and  C_22
REMARK                            x       y       z     vdW  Elec       q    Type
REMARK                         _______ _______ _______ _____ _____    ______ ____
ROOT
ATOM      1  C   UNL     1       8.324  -2.338  23.311  0.00  0.00    +0.240 C 
ENDROOT
BRANCH   1   2
ATOM      2  C   UNL     1       8.641  -3.772  23.784  0.00  0.00    +0.221 C 
BRANCH   2   3
ATOM      3  O   UNL     1       9.446  -3.750  24.959  0.00  0.00    -0.282 OA
BRANCH   3   4
ATOM      4  P   UNL     1       8.802  -4.774  26.195  0.00  0.00    +0.399 P 
BRANCH   4   5
ATOM      5  O   UNL     1       8.158  -5.799  27.431  0.00  0.00    -0.302 OA
ATOM      6  H   UNL     1       8.535  -6.699  27.258  0.00  0.00    +0.223 HD
ENDBRANCH   4   5
BRANCH   4   7
ATOM      7  O   UNL     1       7.326  -5.405  25.605  0.00  0.00    -0.302 OA
ATOM      8  H   UNL     1       6.571  -4.903  26.008  0.00  0.00    +0.223 HD
ENDBRANCH   4   7
BRANCH   4   9
ATOM      9  O   UNL     1       9.773  -5.797  25.241  0.00  0.00    -0.302 OA
ATOM     10  H   UNL     1       9.643  -5.474  24.312  0.00  0.00    +0.223 HD
ENDBRANCH   4   9
BRANCH   4  11
ATOM     11  O   UNL     1       8.096  -3.258  26.478  0.00  0.00    -0.302 OA
ATOM     12  H   UNL     1       7.351  -3.435  27.107  0.00  0.00    +0.223 HD
ENDBRANCH   4  11
ENDBRANCH   3   4
ENDBRANCH   2   3
ENDBRANCH   1   2
BRANCH   1  13
ATOM     13  C   UNL     1       6.806  -2.092  23.342  0.00  0.00    +0.279 C 
BRANCH  13  14
ATOM     14  O   UNL     1       6.180  -3.088  24.076  0.00  0.00    -0.461 OA
BRANCH  14  15
ATOM     15  C   UNL     1       4.856  -3.393  24.024  0.00  0.00    +0.307 C 
ATOM     16  O   UNL     1       4.050  -2.837  24.756  0.00  0.00    -0.251 OA
BRANCH  15  17
ATOM     17  C   UNL     1       4.376  -4.430  23.049  0.00  0.00    +0.120 C 
BRANCH  17  18
ATOM     18  C   UNL     1       5.407  -5.552  22.894  0.00  0.00    +0.008 C 
ATOM     19  C   UNL     1       6.054  -5.521  21.513  0.00  0.00    +0.004 C 
ENDBRANCH  17  18
ENDBRANCH  15  17
ENDBRANCH  14  15
ENDBRANCH  13  14
ENDBRANCH   1  13
BRANCH   1  20
ATOM     20  O   UNL     1       8.942  -1.402  24.132  0.00  0.00    -0.456 OA
BRANCH  20  21
ATOM     21  C   UNL     1       9.844  -0.465  23.725  0.00  0.00    +0.308 C 
ATOM     22  O   UNL     1      10.491   0.178  24.539  0.00  0.00    -0.251 OA
BRANCH  21  23
ATOM     23  C   UNL     1      10.076  -0.229  22.259  0.00  0.00    +0.120 C 
BRANCH  23  24
ATOM     24  C   UNL     1       9.776   1.218  21.862  0.00  0.00    +0.008 C 
ATOM     25  C   UNL     1       8.269   1.463  21.804  0.00  0.00    +0.004 C 
ENDBRANCH  23  24
ENDBRANCH  21  23
ENDBRANCH  20  21
ENDBRANCH   1  20
TORSDOF 16
ENDMDL
MODEL 8
REMARK VINA RESULT:      -5.4      2.210      4.343
REMARK  Name = 
REMARK  18 active torsions:
REMARK  status: ('A' for Active; 'I' for Inactive)
REMARK    1  A    between atoms: C_2  and  C_3
REMARK    2  A    between atoms: C_2  and  C_10
REMARK    3  A    between atoms: C_2  and  O_17
REMARK    4  A    between atoms: C_3  and  O_4
REMARK    5  A    between atoms: O_4  and  C_5
REMARK    6  A    between atoms: C_5  and  C_7
REMARK    7  A    between atoms: C_7  and  C_8
REMARK    8  A    between atoms: C_8  and  C_9
REMARK    9  A    between atoms: C_10  and  O_11
REMARK   10  A    between atoms: O_11  and  P_12
REMARK   11  A    between atoms: P_12  and  O_13
REMARK   12  A    between atoms: P_12  and  O_14
REMARK   13  A    between atoms: P_12  and  O_15
REMARK   14  A    between atoms: P_12  and  O_16
REMARK   15  A    between atoms: O_17  and  C_18
REMARK   16  A    between atoms: C_18  and  C_20
REMARK   17  A    between atoms: C_20  and  C_21
REMARK   18  A    between atoms: C_21  and  C_22
REMARK                            x       y       z     vdW  Elec       q    Type
REMARK                         _______ _______ _______ _____ _____    ______ ____
ROOT
ATOM      1  C   UNL     1       8.954  -1.654  23.491  0.00  0.00    +0.240 C 
ENDROOT
BRANCH   1   2
ATOM      2  C   UNL     1       9.660  -2.879  24.106  0.00  0.00    +0.221 C 
BRANCH   2   3
ATOM      3  O   UNL     1       8.946  -4.076  23.809  0.00  0.00    -0.282 OA
BRANCH   3   4
ATOM      4  P   UNL     1       8.669  -5.024  25.229  0.00  0.00    +0.399 P 
BRANCH   4   5
ATOM      5  O   UNL     1       8.391  -5.974  26.648  0.00  0.00    -0.302 OA
ATOM      6  H   UNL     1       8.417  -5.337  27.407  0.00  0.00    +0.223 HD
ENDBRANCH   4   5
BRANCH   4   7
ATOM      7  O   UNL     1       8.905  -3.995  26.573  0.00  0.00    -0.302 OA
ATOM      8  H   UNL     1       9.759  -3.502  26.463  0.00  0.00    +0.223 HD
ENDBRANCH   4   7
BRANCH   4   9
ATOM      9  O   UNL     1       7.146  -4.374  24.832  0.00  0.00    -0.302 OA
ATOM     10  H   UNL     1       7.123  -4.372  23.841  0.00  0.00    +0.223 HD
ENDBRANCH   4   9
BRANCH   4  11
ATOM     11  O   UNL     1      10.340  -5.132  24.956  0.00  0.00    -0.302 OA
ATOM     12  H   UNL     1      10.735  -5.302  25.849  0.00  0.00    +0.223 HD
ENDBRANCH   4  11
ENDBRANCH   3   4
ENDBRANCH   2   3
ENDBRANCH   1   2
BRANCH   1  13
ATOM     13  C   UNL     1       9.237  -1.581  21.981  0.00  0.00    +0.279 C 
BRANCH  13  14
ATOM     14  O   UNL     1       9.963  -0.436  21.690  0.00  0.00    -0.461 OA
BRANCH  14  15
ATOM     15  C   UNL     1       9.481   0.835  21.729  0.00  0.00    +0.307 C 
ATOM     16  O   UNL     1       8.365   1.101  21.307  0.00  0.00    -0.251 OA
BRANCH  15  17
ATOM     17  C   UNL     1      10.335   1.930  22.305  0.00  0.00    +0.120 C 
BRANCH  17  18
ATOM     18  C   UNL     1      10.488   1.761  23.819  0.00  0.00    +0.008 C 
ATOM     19  C   UNL     1       9.209   2.156  24.551  0.00  0.00    +0.004 C 
ENDBRANCH  17  18
ENDBRANCH  15  17
ENDBRANCH  14  15
ENDBRANCH  13  14
ENDBRANCH   1  13
BRANCH   1  20
ATOM     20  O   UNL     1       7.579  -1.732  23.681  0.00  0.00    -0.456 OA
BRANCH  20  21
ATOM     21  C   UNL     1       6.826  -0.840  24.384  0.00  0.00    +0.308 C 
ATOM     22  O   UNL     1       6.404   0.180  23.856  0.00  0.00    -0.251 OA
BRANCH  21  23
ATOM     23  C   UNL     1       6.476  -1.115  25.819  0.00  0.00    +0.120 C 
BRANCH  23  24
ATOM     24  C   UNL     1       7.180  -0.145  26.771  0.00  0.00    +0.008 C 
ATOM     25  C   UNL     1       8.608  -0.607  27.057  0.00  0.00    +0.004 C 
ENDBRANCH  23  24
ENDBRANCH  21  23
ENDBRANCH  20  21
ENDBRANCH   1  20
TORSDOF 16
ENDMDL
MODEL 9
REMARK VINA RESULT:      -5.4      1.472      1.656
REMARK  Name = 
REMARK  18 active torsions:
REMARK  status: ('A' for Active; 'I' for Inactive)
REMARK    1  A    between atoms: C_2  and  C_3
REMARK    2  A    between atoms: C_2  and  C_10
REMARK    3  A    between atoms: C_2  and  O_17
REMARK    4  A    between atoms: C_3  and  O_4
REMARK    5  A    between atoms: O_4  and  C_5
REMARK    6  A    between atoms: C_5  and  C_7
REMARK    7  A    between atoms: C_7  and  C_8
REMARK    8  A    between atoms: C_8  and  C_9
REMARK    9  A    between atoms: C_10  and  O_11
REMARK   10  A    between atoms: O_11  and  P_12
REMARK   11  A    between atoms: P_12  and  O_13
REMARK   12  A    between atoms: P_12  and  O_14
REMARK   13  A    between atoms: P_12  and  O_15
REMARK   14  A    between atoms: P_12  and  O_16
REMARK   15  A    between atoms: O_17  and  C_18
REMARK   16  A    between atoms: C_18  and  C_20
REMARK   17  A    between atoms: C_20  and  C_21
REMARK   18  A    between atoms: C_21  and  C_22
REMARK                            x       y       z     vdW  Elec       q    Type
REMARK                         _______ _______ _______ _____ _____    ______ ____
ROOT
ATOM      1  C   UNL     1       8.154  -1.742  23.272  0.00  0.00    +0.240 C 
ENDROOT
BRANCH   1   2
ATOM      2  C   UNL     1       8.747  -3.135  23.566  0.00  0.00    +0.221 C 
BRANCH   2   3
ATOM      3  O   UNL     1       9.251  -3.200  24.897  0.00  0.00    -0.282 OA
BRANCH   3   4
ATOM      4  P   UNL     1       8.724  -4.631  25.711  0.00  0.00    +0.399 P 
BRANCH   4   5
ATOM      5  O   UNL     1       8.195  -6.063  26.526  0.00  0.00    -0.302 OA
ATOM      6  H   UNL     1       7.210  -6.083  26.424  0.00  0.00    +0.223 HD
ENDBRANCH   4   5
BRANCH   4   7
ATOM      7  O   UNL     1       9.616  -4.739  27.166  0.00  0.00    -0.302 OA
ATOM      8  H   UNL     1      10.184  -3.931  27.262  0.00  0.00    +0.223 HD
ENDBRANCH   4   7
BRANCH   4   9
ATOM      9  O   UNL     1       7.694  -3.400  26.280  0.00  0.00    -0.302 OA
ATOM     10  H   UNL     1       7.153  -3.139  25.491  0.00  0.00    +0.223 HD
ENDBRANCH   4   9
BRANCH   4  11
ATOM     11  O   UNL     1      10.064  -5.123  24.796  0.00  0.00    -0.302 OA
ATOM     12  H   UNL     1       9.851  -4.856  23.865  0.00  0.00    +0.223 HD
ENDBRANCH   4  11
ENDBRANCH   3   4
ENDBRANCH   2   3
ENDBRANCH   1   2
BRANCH   1  13
ATOM     13  C   UNL     1       6.622  -1.777  23.409  0.00  0.00    +0.279 C 
BRANCH  13  14
ATOM     14  O   UNL     1       6.188  -3.089  23.525  0.00  0.00    -0.461 OA
BRANCH  14  15
ATOM     15  C   UNL     1       5.437  -3.756  22.609  0.00  0.00    +0.307 C 
ATOM     16  O   UNL     1       4.292  -4.102  22.860  0.00  0.00    -0.251 OA
BRANCH  15  17
ATOM     17  C   UNL     1       6.025  -4.069  21.261  0.00  0.00    +0.120 C 
BRANCH  17  18
ATOM     18  C   UNL     1       6.198  -5.580  21.081  0.00  0.00    +0.008 C 
ATOM     19  C   UNL     1       7.244  -6.135  22.041  0.00  0.00    +0.004 C 
ENDBRANCH  17  18
ENDBRANCH  15  17
ENDBRANCH  14  15
ENDBRANCH  13  14
ENDBRANCH   1  13
BRANCH   1  20
ATOM     20  O   UNL     1       8.657  -0.797  24.158  0.00  0.00    -0.456 OA
BRANCH  20  21
ATOM     21  C   UNL     1       9.660   0.085  23.889  0.00  0.00    +0.308 C 
ATOM     22  O   UNL     1      10.203   0.712  24.788  0.00  0.00    -0.251 OA
BRANCH  21  23
ATOM     23  C   UNL     1      10.135   0.278  22.476  0.00  0.00    +0.120 C 
BRANCH  23  24
ATOM     24  C   UNL     1       9.770   1.664  21.939  0.00  0.00    +0.008 C 
ATOM     25  C   UNL     1       8.288   1.730  21.572  0.00  0.00    +0.004 C 
ENDBRANCH  23  24
ENDBRANCH  21  23
ENDBRANCH  20  21
ENDBRANCH   1  20
TORSDOF 16
ENDMDL
