MODEL 1
REMARK VINA RESULT:      -6.3      0.000      0.000
REMARK  Name = 
REMARK  6 active torsions:
REMARK  status: ('A' for Active; 'I' for Inactive)
REMARK    1  A    between atoms: C_2  and  C_3
REMARK    2  A    between atoms: C_3  and  N_4
REMARK    3  A    between atoms: C_5  and  O_6
REMARK    4  A    between atoms: C_5  and  C_7
REMARK    5  A    between atoms: C_7  and  C_8
REMARK    6  A    between atoms: C_10  and  C_12
REMARK                            x       y       z     vdW  Elec       q    Type
REMARK                         _______ _______ _______ _____ _____    ______ ____
ROOT
ATOM      1  C   UNL     1       8.541  -2.863  24.794  0.00  0.00    +0.018 C 
ATOM      2  C   UNL     1       8.475  -4.380  24.872  0.00  0.00    +0.025 C 
ATOM      3  C   UNL     1       8.705  -3.560  26.117  0.00  0.00    +0.014 C 
ENDROOT
BRANCH   2   4
ATOM      4  C   UNL     1       7.181  -5.118  24.630  0.00  0.00    -0.037 A 
ATOM      5  C   UNL     1       6.356  -5.519  25.700  0.00  0.00    +0.004 A 
ATOM      6  C   UNL     1       5.091  -6.099  25.494  0.00  0.00    +0.004 A 
ATOM      7  C   UNL     1       4.607  -6.290  24.203  0.00  0.00    +0.046 A 
ATOM      8  C   UNL     1       5.415  -5.910  23.153  0.00  0.00    +0.124 A 
ATOM      9  O   UNL     1       5.046  -6.028  21.842  0.00  0.00    -0.491 OA
ATOM     10  C   UNL     1       6.166  -5.512  21.091  0.00  0.00    +0.234 C 
ATOM     11  C   UNL     1       7.270  -5.031  22.036  0.00  0.00    +0.080 C 
ATOM     12  C   UNL     1       6.668  -5.345  23.351  0.00  0.00    +0.001 A 
ENDBRANCH   2   4
BRANCH   1  13
ATOM     13  C   UNL     1       9.696  -2.223  24.086  0.00  0.00    +0.149 C 
BRANCH  13  14
ATOM     14  N   UNL     1       9.267  -0.982  23.454  0.00  0.00    -0.254 NA
ATOM     15  C   UNL     1       9.577  -0.756  22.232  0.00  0.00    +0.182 C 
BRANCH  15  16
ATOM     16  C   UNL     1       9.198   0.509  21.512  0.00  0.00    +0.091 C 
ATOM     17  C   UNL     1      10.003   1.692  22.019  0.00  0.00    +0.013 C 
ENDBRANCH  15  16
BRANCH  15  18
ATOM     18  O   UNL     1      10.283  -1.591  21.445  0.00  0.00    -0.496 OA
ATOM     19  H   UNL     1       9.796  -1.853  20.654  0.00  0.00    +0.293 HD
ENDBRANCH  15  18
ENDBRANCH  13  14
ENDBRANCH   1  13
TORSDOF 5
ENDMDL
MODEL 2
REMARK VINA RESULT:      -5.9      1.526      2.167
REMARK  Name = 
REMARK  6 active torsions:
REMARK  status: ('A' for Active; 'I' for Inactive)
REMARK    1  A    between atoms: C_2  and  C_3
REMARK    2  A    between atoms: C_3  and  N_4
REMARK    3  A    between atoms: C_5  and  O_6
REMARK    4  A    between atoms: C_5  and  C_7
REMARK    5  A    between atoms: C_7  and  C_8
REMARK    6  A    between atoms: C_10  and  C_12
REMARK                            x       y       z     vdW  Elec       q    Type
REMARK                         _______ _______ _______ _____ _____    ______ ____
ROOT
ATOM      1  C   UNL     1       7.883  -2.978  23.845  0.00  0.00    +0.018 C 
ATOM      2  C   UNL     1       8.147  -4.414  24.270  0.00  0.00    +0.025 C 
ATOM      3  C   UNL     1       9.117  -3.318  24.636  0.00  0.00    +0.014 C 
ENDROOT
BRANCH   2   4
ATOM      4  C   UNL     1       7.282  -5.092  25.304  0.00  0.00    -0.037 A 
ATOM      5  C   UNL     1       7.592  -5.021  26.677  0.00  0.00    +0.004 A 
ATOM      6  C   UNL     1       6.736  -5.541  27.666  0.00  0.00    +0.004 A 
ATOM      7  C   UNL     1       5.535  -6.147  27.308  0.00  0.00    +0.046 A 
ATOM      8  C   UNL     1       5.233  -6.228  25.966  0.00  0.00    +0.124 A 
ATOM      9  O   UNL     1       4.076  -6.781  25.490  0.00  0.00    -0.491 OA
ATOM     10  C   UNL     1       4.165  -6.651  24.054  0.00  0.00    +0.234 C 
ATOM     11  C   UNL     1       5.465  -5.947  23.658  0.00  0.00    +0.080 C 
ATOM     12  C   UNL     1       6.077  -5.724  24.986  0.00  0.00    +0.001 A 
ENDBRANCH   2   4
BRANCH   1  13
ATOM     13  C   UNL     1       7.945  -2.630  22.389  0.00  0.00    +0.149 C 
BRANCH  13  14
ATOM     14  N   UNL     1       8.188  -1.202  22.228  0.00  0.00    -0.254 NA
ATOM     15  C   UNL     1       9.346  -0.797  21.859  0.00  0.00    +0.182 C 
BRANCH  15  16
ATOM     16  C   UNL     1       9.688   0.658  21.694  0.00  0.00    +0.091 C 
ATOM     17  C   UNL     1       8.436   1.515  21.635  0.00  0.00    +0.013 C 
ENDBRANCH  15  16
BRANCH  15  18
ATOM     18  O   UNL     1      10.397  -1.595  21.593  0.00  0.00    -0.496 OA
ATOM     19  H   UNL     1      10.353  -1.981  20.708  0.00  0.00    +0.293 HD
ENDBRANCH  15  18
ENDBRANCH  13  14
ENDBRANCH   1  13
TORSDOF 5
ENDMDL
MODEL 3
REMARK VINA RESULT:      -5.8      1.215      1.645
REMARK  Name = 
REMARK  6 active torsions:
REMARK  status: ('A' for Active; 'I' for Inactive)
REMARK    1  A    between atoms: C_2  and  C_3
REMARK    2  A    between atoms: C_3  and  N_4
REMARK    3  A    between atoms: C_5  and  O_6
REMARK    4  A    between atoms: C_5  and  C_7
REMARK    5  A    between atoms: C_7  and  C_8
REMARK    6  A    between atoms: C_10  and  C_12
REMARK                            x       y       z     vdW  Elec       q    Type
REMARK                         _______ _______ _______ _____ _____    ______ ____
ROOT
ATOM      1  C   UNL     1       8.547  -1.839  23.277  0.00  0.00    +0.018 C 
ATOM      2  C   UNL     1       8.822  -3.214  23.864  0.00  0.00    +0.025 C 
ATOM      3  C   UNL     1       9.128  -1.969  24.659  0.00  0.00    +0.014 C 
ENDROOT
BRANCH   2   4
ATOM      4  C   UNL     1       7.693  -4.142  24.238  0.00  0.00    -0.037 A 
ATOM      5  C   UNL     1       7.241  -4.245  25.569  0.00  0.00    +0.004 A 
ATOM      6  C   UNL     1       6.114  -5.011  25.920  0.00  0.00    +0.004 A 
ATOM      7  C   UNL     1       5.397  -5.696  24.943  0.00  0.00    +0.046 A 
ATOM      8  C   UNL     1       5.841  -5.607  23.642  0.00  0.00    +0.124 A 
ATOM      9  O   UNL     1       5.213  -6.216  22.591  0.00  0.00    -0.491 OA
ATOM     10  C   UNL     1       5.995  -5.859  21.431  0.00  0.00    +0.234 C 
ATOM     11  C   UNL     1       7.160  -4.950  21.828  0.00  0.00    +0.080 C 
ATOM     12  C   UNL     1       6.958  -4.860  23.291  0.00  0.00    +0.001 A 
ENDBRANCH   2   4
BRANCH   1  13
ATOM     13  C   UNL     1       9.365  -1.370  22.112  0.00  0.00    +0.149 C 
BRANCH  13  14
ATOM     14  N   UNL     1      10.078  -0.149  22.464  0.00  0.00    -0.254 NA
ATOM     15  C   UNL     1       9.757   0.954  21.896  0.00  0.00    +0.182 C 
BRANCH  15  16
ATOM     16  C   UNL     1      10.457   2.254  22.180  0.00  0.00    +0.091 C 
ATOM     17  C   UNL     1      10.196   2.720  23.601  0.00  0.00    +0.013 C 
ENDBRANCH  15  16
BRANCH  15  18
ATOM     18  O   UNL     1       8.784   1.097  20.975  0.00  0.00    -0.496 OA
ATOM     19  H   UNL     1       7.904   1.128  21.370  0.00  0.00    +0.293 HD
ENDBRANCH  15  18
ENDBRANCH  13  14
ENDBRANCH   1  13
TORSDOF 5
ENDMDL
MODEL 4
REMARK VINA RESULT:      -5.8      1.082      2.318
REMARK  Name = 
REMARK  6 active torsions:
REMARK  status: ('A' for Active; 'I' for Inactive)
REMARK    1  A    between atoms: C_2  and  C_3
REMARK    2  A    between atoms: C_3  and  N_4
REMARK    3  A    between atoms: C_5  and  O_6
REMARK    4  A    between atoms: C_5  and  C_7
REMARK    5  A    between atoms: C_7  and  C_8
REMARK    6  A    between atoms: C_10  and  C_12
REMARK                            x       y       z     vdW  Elec       q    Type
REMARK                         _______ _______ _______ _____ _____    ______ ____
ROOT
ATOM      1  C   UNL     1       8.839  -2.452  24.013  0.00  0.00    +0.018 C 
ATOM      2  C   UNL     1       8.624  -3.953  24.125  0.00  0.00    +0.025 C 
ATOM      3  C   UNL     1       8.614  -3.084  25.359  0.00  0.00    +0.014 C 
ENDROOT
BRANCH   2   4
ATOM      4  C   UNL     1       7.369  -4.601  23.596  0.00  0.00    -0.037 A 
ATOM      5  C   UNL     1       7.090  -4.637  22.215  0.00  0.00    +0.004 A 
ATOM      6  C   UNL     1       5.990  -5.340  21.690  0.00  0.00    +0.004 A 
ATOM      7  C   UNL     1       5.132  -6.037  22.537  0.00  0.00    +0.046 A 
ATOM      8  C   UNL     1       5.394  -5.995  23.889  0.00  0.00    +0.124 A 
ATOM      9  O   UNL     1       4.638  -6.653  24.820  0.00  0.00    -0.491 OA
ATOM     10  C   UNL     1       5.260  -6.350  26.087  0.00  0.00    +0.234 C 
ATOM     11  C   UNL     1       6.491  -5.463  25.882  0.00  0.00    +0.080 C 
ATOM     12  C   UNL     1       6.474  -5.296  24.412  0.00  0.00    +0.001 A 
ENDBRANCH   2   4
BRANCH   1  13
ATOM     13  C   UNL     1      10.184  -1.943  23.591  0.00  0.00    +0.149 C 
BRANCH  13  14
ATOM     14  N   UNL     1      10.127  -0.502  23.376  0.00  0.00    -0.254 NA
ATOM     15  C   UNL     1       9.895  -0.049  22.201  0.00  0.00    +0.182 C 
BRANCH  15  16
ATOM     16  C   UNL     1       9.845   1.421  21.887  0.00  0.00    +0.091 C 
ATOM     17  C   UNL     1       8.417   1.887  21.663  0.00  0.00    +0.013 C 
ENDBRANCH  15  16
BRANCH  15  18
ATOM     18  O   UNL     1       9.687  -0.805  21.106  0.00  0.00    -0.496 OA
ATOM     19  H   UNL     1       9.449  -0.277  20.332  0.00  0.00    +0.293 HD
ENDBRANCH  15  18
ENDBRANCH  13  14
ENDBRANCH   1  13
TORSDOF 5
ENDMDL
MODEL 5
REMARK VINA RESULT:      -5.6      1.580      2.115
REMARK  Name = 
REMARK  6 active torsions:
REMARK  status: ('A' for Active; 'I' for Inactive)
REMARK    1  A    between atoms: C_2  and  C_3
REMARK    2  A    between atoms: C_3  and  N_4
REMARK    3  A    between atoms: C_5  and  O_6
REMARK    4  A    between atoms: C_5  and  C_7
REMARK    5  A    between atoms: C_7  and  C_8
REMARK    6  A    between atoms: C_10  and  C_12
REMARK                            x       y       z     vdW  Elec       q    Type
REMARK                         _______ _______ _______ _____ _____    ______ ____
ROOT
ATOM      1  C   UNL     1       7.181  -3.761  26.361  0.00  0.00    +0.018 C 
ATOM      2  C   UNL     1       6.947  -5.198  25.922  0.00  0.00    +0.025 C 
ATOM      3  C   UNL     1       6.641  -4.772  27.336  0.00  0.00    +0.014 C 
ENDROOT
BRANCH   2   4
ATOM      4  C   UNL     1       5.856  -5.545  24.939  0.00  0.00    -0.037 A 
ATOM      5  C   UNL     1       4.522  -5.717  25.358  0.00  0.00    +0.004 A 
ATOM      6  C   UNL     1       3.470  -5.921  24.445  0.00  0.00    +0.004 A 
ATOM      7  C   UNL     1       3.723  -5.952  23.077  0.00  0.00    +0.046 A 
ATOM      8  C   UNL     1       5.028  -5.795  22.663  0.00  0.00    +0.124 A 
ATOM      9  O   UNL     1       5.402  -5.787  21.347  0.00  0.00    -0.491 OA
ATOM     10  C   UNL     1       6.832  -5.590  21.368  0.00  0.00    +0.234 C 
ATOM     11  C   UNL     1       7.334  -5.448  22.806  0.00  0.00    +0.080 C 
ATOM     12  C   UNL     1       6.070  -5.602  23.560  0.00  0.00    +0.001 A 
ENDBRANCH   2   4
BRANCH   1  13
ATOM     13  C   UNL     1       8.587  -3.250  26.446  0.00  0.00    +0.149 C 
BRANCH  13  14
ATOM     14  N   UNL     1       8.767  -2.134  25.526  0.00  0.00    -0.254 NA
ATOM     15  C   UNL     1       9.446  -2.304  24.453  0.00  0.00    +0.182 C 
BRANCH  15  16
ATOM     16  C   UNL     1       9.703  -1.200  23.464  0.00  0.00    +0.091 C 
ATOM     17  C   UNL     1       9.364  -1.639  22.051  0.00  0.00    +0.013 C 
ENDBRANCH  15  16
BRANCH  15  18
ATOM     18  O   UNL     1      10.026  -3.460  24.079  0.00  0.00    -0.496 OA
ATOM     19  H   UNL     1      10.842  -3.639  24.565  0.00  0.00    +0.293 HD
ENDBRANCH  15  18
ENDBRANCH  13  14
ENDBRANCH   1  13
TORSDOF 5
ENDMDL
MODEL 6
REMARK VINA RESULT:      -5.6      1.968      2.508
REMARK  Name = 
REMARK  6 active torsions:
REMARK  status: ('A' for Active; 'I' for Inactive)
REMARK    1  A    between atoms: C_2  and  C_3
REMARK    2  A    between atoms: C_3  and  N_4
REMARK    3  A    between atoms: C_5  and  O_6
REMARK    4  A    between atoms: C_5  and  C_7
REMARK    5  A    between atoms: C_7  and  C_8
REMARK    6  A    between atoms: C_10  and  C_12
REMARK                            x       y       z     vdW  Elec       q    Type
REMARK                         _______ _______ _______ _____ _____    ______ ____
ROOT
ATOM      1  C   UNL     1       9.264  -1.368  23.594  0.00  0.00    +0.018 C 
ATOM      2  C   UNL     1       8.649  -2.631  23.012  0.00  0.00    +0.025 C 
ATOM      3  C   UNL     1       9.790  -2.720  23.995  0.00  0.00    +0.014 C 
ENDROOT
BRANCH   2   4
ATOM      4  C   UNL     1       7.247  -3.054  23.377  0.00  0.00    -0.037 A 
ATOM      5  C   UNL     1       6.471  -2.308  24.287  0.00  0.00    +0.004 A 
ATOM      6  C   UNL     1       5.123  -2.614  24.549  0.00  0.00    +0.004 A 
ATOM      7  C   UNL     1       4.506  -3.681  23.902  0.00  0.00    +0.046 A 
ATOM      8  C   UNL     1       5.263  -4.420  23.020  0.00  0.00    +0.124 A 
ATOM      9  O   UNL     1       4.768  -5.477  22.309  0.00  0.00    -0.491 OA
ATOM     10  C   UNL     1       5.880  -5.948  21.516  0.00  0.00    +0.234 C 
ATOM     11  C   UNL     1       7.119  -5.085  21.764  0.00  0.00    +0.080 C 
ATOM     12  C   UNL     1       6.596  -4.127  22.764  0.00  0.00    +0.001 A 
ENDBRANCH   2   4
BRANCH   1  13
ATOM     13  C   UNL     1      10.033  -0.454  22.689  0.00  0.00    +0.149 C 
BRANCH  13  14
ATOM     14  N   UNL     1      10.347   0.787  23.386  0.00  0.00    -0.254 NA
ATOM     15  C   UNL     1      10.242   1.903  22.764  0.00  0.00    +0.182 C 
BRANCH  15  16
ATOM     16  C   UNL     1      10.572   3.226  23.399  0.00  0.00    +0.091 C 
ATOM     17  C   UNL     1       9.352   3.832  24.071  0.00  0.00    +0.013 C 
ENDBRANCH  15  16
BRANCH  15  18
ATOM     18  O   UNL     1       9.850   2.042  21.483  0.00  0.00    -0.496 OA
ATOM     19  H   UNL     1       9.894   1.212  20.992  0.00  0.00    +0.293 HD
ENDBRANCH  15  18
ENDBRANCH  13  14
ENDBRANCH   1  13
TORSDOF 5
ENDMDL
MODEL 7
REMARK VINA RESULT:      -5.5      2.314      3.462
REMARK  Name = 
REMARK  6 active torsions:
REMARK  status: ('A' for Active; 'I' for Inactive)
REMARK    1  A    between atoms: C_2  and  C_3
REMARK    2  A    between atoms: C_3  and  N_4
REMARK    3  A    between atoms: C_5  and  O_6
REMARK    4  A    between atoms: C_5  and  C_7
REMARK    5  A    between atoms: C_7  and  C_8
REMARK    6  A    between atoms: C_10  and  C_12
REMARK                            x       y       z     vdW  Elec       q    Type
REMARK                         _______ _______ _______ _____ _____    ______ ____
ROOT
ATOM      1  C   UNL     1       9.165  -0.065  24.300  0.00  0.00    +0.018 C 
ATOM      2  C   UNL     1       9.218  -1.223  23.316  0.00  0.00    +0.025 C 
ATOM      3  C   UNL     1      10.490  -0.637  23.878  0.00  0.00    +0.014 C 
ENDROOT
BRANCH   2   4
ATOM      4  C   UNL     1       8.734  -2.598  23.704  0.00  0.00    -0.037 A 
ATOM      5  C   UNL     1       9.525  -3.457  24.493  0.00  0.00    +0.004 A 
ATOM      6  C   UNL     1       9.046  -4.693  24.966  0.00  0.00    +0.004 A 
ATOM      7  C   UNL     1       7.751  -5.106  24.668  0.00  0.00    +0.046 A 
ATOM      8  C   UNL     1       6.977  -4.274  23.888  0.00  0.00    +0.124 A 
ATOM      9  O   UNL     1       5.684  -4.557  23.543  0.00  0.00    -0.491 OA
ATOM     10  C   UNL     1       5.257  -3.433  22.743  0.00  0.00    +0.234 C 
ATOM     11  C   UNL     1       6.379  -2.398  22.629  0.00  0.00    +0.080 C 
ATOM     12  C   UNL     1       7.448  -3.058  23.411  0.00  0.00    +0.001 A 
ENDBRANCH   2   4
BRANCH   1  13
ATOM     13  C   UNL     1       8.689   1.273  23.820  0.00  0.00    +0.149 C 
BRANCH  13  14
ATOM     14  N   UNL     1       9.695   2.289  24.101  0.00  0.00    -0.254 NA
ATOM     15  C   UNL     1      10.380   2.780  23.136  0.00  0.00    +0.182 C 
BRANCH  15  16
ATOM     16  C   UNL     1      11.455   3.812  23.340  0.00  0.00    +0.091 C 
ATOM     17  C   UNL     1      10.860   5.162  23.699  0.00  0.00    +0.013 C 
ENDBRANCH  15  16
BRANCH  15  18
ATOM     18  O   UNL     1      10.251   2.437  21.840  0.00  0.00    -0.496 OA
ATOM     19  H   UNL     1      10.980   2.763  21.298  0.00  0.00    +0.293 HD
ENDBRANCH  15  18
ENDBRANCH  13  14
ENDBRANCH   1  13
TORSDOF 5
ENDMDL
MODEL 8
REMARK VINA RESULT:      -5.5      1.870      2.724
REMARK  Name = 
REMARK  6 active torsions:
REMARK  status: ('A' for Active; 'I' for Inactive)
REMARK    1  A    between atoms: C_2  and  C_3
REMARK    2  A    between atoms: C_3  and  N_4
REMARK    3  A    between atoms: C_5  and  O_6
REMARK    4  A    between atoms: C_5  and  C_7
REMARK    5  A    between atoms: C_7  and  C_8
REMARK    6  A    between atoms: C_10  and  C_12
REMARK                            x       y       z     vdW  Elec       q    Type
REMARK                         _______ _______ _______ _____ _____    ______ ____
ROOT
ATOM      1  C   UNL     1       8.615  -1.007  23.578  0.00  0.00    +0.018 C 
ATOM      2  C   UNL     1       9.256  -2.380  23.709  0.00  0.00    +0.025 C 
ATOM      3  C   UNL     1       9.840  -1.193  24.433  0.00  0.00    +0.014 C 
ENDROOT
BRANCH   2   4
ATOM      4  C   UNL     1       8.558  -3.499  24.443  0.00  0.00    -0.037 A 
ATOM      5  C   UNL     1       8.836  -3.770  25.798  0.00  0.00    +0.004 A 
ATOM      6  C   UNL     1       8.113  -4.726  26.534  0.00  0.00    +0.004 A 
ATOM      7  C   UNL     1       7.079  -5.440  25.934  0.00  0.00    +0.046 A 
ATOM      8  C   UNL     1       6.811  -5.187  24.607  0.00  0.00    +0.124 A 
ATOM      9  O   UNL     1       5.810  -5.808  23.912  0.00  0.00    -0.491 OA
ATOM     10  C   UNL     1       5.876  -5.247  22.583  0.00  0.00    +0.234 C 
ATOM     11  C   UNL     1       6.988  -4.199  22.497  0.00  0.00    +0.080 C 
ATOM     12  C   UNL     1       7.527  -4.250  23.874  0.00  0.00    +0.001 A 
ENDBRANCH   2   4
BRANCH   1  13
ATOM     13  C   UNL     1       8.670  -0.305  22.256  0.00  0.00    +0.149 C 
BRANCH  13  14
ATOM     14  N   UNL     1       7.803   0.865  22.277  0.00  0.00    -0.254 NA
ATOM     15  C   UNL     1       8.267   2.001  21.908  0.00  0.00    +0.182 C 
BRANCH  15  16
ATOM     16  C   UNL     1       7.448   3.263  21.925  0.00  0.00    +0.091 C 
ATOM     17  C   UNL     1       7.897   4.195  23.036  0.00  0.00    +0.013 C 
ENDBRANCH  15  16
BRANCH  15  18
ATOM     18  O   UNL     1       9.525   2.223  21.483  0.00  0.00    -0.496 OA
ATOM     19  H   UNL     1      10.183   2.038  22.165  0.00  0.00    +0.293 HD
ENDBRANCH  15  18
ENDBRANCH  13  14
ENDBRANCH   1  13
TORSDOF 5
ENDMDL
MODEL 9
REMARK VINA RESULT:      -5.5      2.929      7.137
REMARK  Name = 
REMARK  6 active torsions:
REMARK  status: ('A' for Active; 'I' for Inactive)
REMARK    1  A    between atoms: C_2  and  C_3
REMARK    2  A    between atoms: C_3  and  N_4
REMARK    3  A    between atoms: C_5  and  O_6
REMARK    4  A    between atoms: C_5  and  C_7
REMARK    5  A    between atoms: C_7  and  C_8
REMARK    6  A    between atoms: C_10  and  C_12
REMARK                            x       y       z     vdW  Elec       q    Type
REMARK                         _______ _______ _______ _____ _____    ______ ____
ROOT
ATOM      1  C   UNL     1       7.860  -1.829  23.189  0.00  0.00    +0.018 C 
ATOM      2  C   UNL     1       9.104  -1.198  23.795  0.00  0.00    +0.025 C 
ATOM      3  C   UNL     1       9.209  -2.065  22.564  0.00  0.00    +0.014 C 
ENDROOT
BRANCH   2   4
ATOM      4  C   UNL     1       9.326   0.293  23.741  0.00  0.00    -0.037 A 
ATOM      5  C   UNL     1      10.115   0.880  22.732  0.00  0.00    +0.004 A 
ATOM      6  C   UNL     1      10.236   2.275  22.592  0.00  0.00    +0.004 A 
ATOM      7  C   UNL     1       9.563   3.130  23.460  0.00  0.00    +0.046 A 
ATOM      8  C   UNL     1       8.799   2.561  24.455  0.00  0.00    +0.124 A 
ATOM      9  O   UNL     1       8.075   3.292  25.356  0.00  0.00    -0.491 OA
ATOM     10  C   UNL     1       7.429   2.312  26.198  0.00  0.00    +0.234 C 
ATOM     11  C   UNL     1       7.783   0.895  25.741  0.00  0.00    +0.080 C 
ATOM     12  C   UNL     1       8.682   1.185  24.603  0.00  0.00    +0.001 A 
ENDBRANCH   2   4
BRANCH   1  13
ATOM     13  C   UNL     1       7.144  -2.899  23.956  0.00  0.00    +0.149 C 
BRANCH  13  14
ATOM     14  N   UNL     1       6.717  -3.959  23.052  0.00  0.00    -0.254 NA
ATOM     15  C   UNL     1       7.384  -5.053  23.004  0.00  0.00    +0.182 C 
BRANCH  15  16
ATOM     16  C   UNL     1       7.029  -6.186  22.081  0.00  0.00    +0.091 C 
ATOM     17  C   UNL     1       6.202  -5.699  20.904  0.00  0.00    +0.013 C 
ENDBRANCH  15  16
BRANCH  15  18
ATOM     18  O   UNL     1       8.478  -5.326  23.740  0.00  0.00    -0.496 OA
ATOM     19  H   UNL     1       9.277  -5.394  23.202  0.00  0.00    +0.293 HD
ENDBRANCH  15  18
ENDBRANCH  13  14
ENDBRANCH   1  13
TORSDOF 5
ENDMDL
