MODEL 1
REMARK VINA RESULT:      -6.3      0.000      0.000
REMARK  Name = 
REMARK  7 active torsions:
REMARK  status: ('A' for Active; 'I' for Inactive)
REMARK    1  A    between atoms: C_1  and  O_2
REMARK    2  A    between atoms: O_2  and  C_3
REMARK    3  A    between atoms: C_3  and  C_4
REMARK    4  A    between atoms: C_4  and  O_5
REMARK    5  A    between atoms: O_5  and  C_6
REMARK    6  A    between atoms: N_10  and  S_11
REMARK    7  A    between atoms: S_11  and  C_14
REMARK                            x       y       z     vdW  Elec       q    Type
REMARK                         _______ _______ _______ _____ _____    ______ ____
ROOT
ATOM      1  C   UNL     1       8.039  -5.118  26.389  0.00  0.00    +0.157 A 
ATOM      2  C   UNL     1       8.117  -3.785  26.747  0.00  0.00    +0.161 A 
ATOM      3  N   UNL     1       8.688  -2.822  25.986  0.00  0.00    -0.218 NA
ATOM      4  C   UNL     1       9.156  -3.240  24.808  0.00  0.00    +0.235 A 
ATOM      5  N   UNL     1       9.817  -2.314  24.031  0.00  0.00    -0.184 N 
ATOM      6  H   UNL     1      10.755  -2.032  24.267  0.00  0.00    +0.177 HD
ATOM      7  N   UNL     1       9.189  -4.495  24.365  0.00  0.00    -0.218 NA
ATOM      8  C   UNL     1       8.605  -5.410  25.165  0.00  0.00    +0.161 A 
ENDROOT
BRANCH   5   9
ATOM      9  S   UNL     1       8.973  -1.546  22.844  0.00  0.00    +0.075 S 
ATOM     10  O   UNL     1       7.549  -1.696  23.057  0.00  0.00    -0.150 OA
ATOM     11  O   UNL     1       9.576  -1.947  21.589  0.00  0.00    -0.150 OA
BRANCH   9  12
ATOM     12  C   UNL     1       9.371   0.171  23.094  0.00  0.00    +0.109 A 
ATOM     13  C   UNL     1       9.090   0.776  24.322  0.00  0.00    +0.029 A 
ATOM     14  C   UNL     1       9.399   2.123  24.507  0.00  0.00    +0.002 A 
ATOM     15  C   UNL     1       9.961   2.862  23.463  0.00  0.00    +0.000 A 
ATOM     16  C   UNL     1      10.210   2.259  22.229  0.00  0.00    +0.002 A 
ATOM     17  C   UNL     1       9.911   0.911  22.037  0.00  0.00    +0.029 A 
ENDBRANCH   9  12
ENDBRANCH   5   9
BRANCH   1  18
ATOM     18  O   UNL     1       7.439  -5.983  27.252  0.00  0.00    -0.487 OA
BRANCH  18  19
ATOM     19  C   UNL     1       6.344  -5.441  27.995  0.00  0.00    +0.257 C 
BRANCH  19  20
ATOM     20  C   UNL     1       5.025  -5.761  27.301  0.00  0.00    +0.200 C 
BRANCH  20  22
ATOM     21  C   UNL     1       4.522  -6.937  25.317  0.00  0.00    +0.194 C 
ATOM     22  O   UNL     1       5.191  -6.975  26.569  0.00  0.00    -0.380 OA
ENDBRANCH  20  22
ENDBRANCH  19  20
ENDBRANCH  18  19
ENDBRANCH   1  18
TORSDOF 6
ENDMDL
MODEL 2
REMARK VINA RESULT:      -6.2      1.067      1.416
REMARK  Name = 
REMARK  7 active torsions:
REMARK  status: ('A' for Active; 'I' for Inactive)
REMARK    1  A    between atoms: C_1  and  O_2
REMARK    2  A    between atoms: O_2  and  C_3
REMARK    3  A    between atoms: C_3  and  C_4
REMARK    4  A    between atoms: C_4  and  O_5
REMARK    5  A    between atoms: O_5  and  C_6
REMARK    6  A    between atoms: N_10  and  S_11
REMARK    7  A    between atoms: S_11  and  C_14
REMARK                            x       y       z     vdW  Elec       q    Type
REMARK                         _______ _______ _______ _____ _____    ______ ____
ROOT
ATOM      1  C   UNL     1       7.934  -5.096  26.068  0.00  0.00    +0.157 A 
ATOM      2  C   UNL     1       7.550  -3.778  26.231  0.00  0.00    +0.161 A 
ATOM      3  N   UNL     1       8.159  -2.727  25.634  0.00  0.00    -0.218 NA
ATOM      4  C   UNL     1       9.166  -3.048  24.820  0.00  0.00    +0.235 A 
ATOM      5  N   UNL     1       9.869  -2.009  24.251  0.00  0.00    -0.184 N 
ATOM      6  H   UNL     1      10.526  -1.481  24.802  0.00  0.00    +0.177 HD
ATOM      7  N   UNL     1       9.666  -4.265  24.614  0.00  0.00    -0.218 NA
ATOM      8  C   UNL     1       9.018  -5.272  25.233  0.00  0.00    +0.161 A 
ENDROOT
BRANCH   5   9
ATOM      9  S   UNL     1       9.464  -1.535  22.727  0.00  0.00    +0.075 S 
ATOM     10  O   UNL     1       8.201  -2.122  22.332  0.00  0.00    -0.150 OA
ATOM     11  O   UNL     1      10.649  -1.721  21.913  0.00  0.00    -0.150 OA
BRANCH   9  12
ATOM     12  C   UNL     1       9.209   0.219  22.890  0.00  0.00    +0.109 A 
ATOM     13  C   UNL     1       9.439   0.842  24.120  0.00  0.00    +0.029 A 
ATOM     14  C   UNL     1       9.231   2.215  24.240  0.00  0.00    +0.002 A 
ATOM     15  C   UNL     1       8.774   2.952  23.146  0.00  0.00    +0.000 A 
ATOM     16  C   UNL     1       8.516   2.319  21.928  0.00  0.00    +0.002 A 
ATOM     17  C   UNL     1       8.728   0.948  21.797  0.00  0.00    +0.029 A 
ENDBRANCH   9  12
ENDBRANCH   5   9
BRANCH   1  18
ATOM     18  O   UNL     1       7.233  -6.057  26.731  0.00  0.00    -0.487 OA
BRANCH  18  19
ATOM     19  C   UNL     1       6.033  -5.609  27.366  0.00  0.00    +0.257 C 
BRANCH  19  20
ATOM     20  C   UNL     1       5.147  -6.797  27.720  0.00  0.00    +0.200 C 
BRANCH  20  22
ATOM     21  C   UNL     1       5.958  -6.523  29.919  0.00  0.00    +0.194 C 
ATOM     22  O   UNL     1       5.703  -7.441  28.866  0.00  0.00    -0.380 OA
ENDBRANCH  20  22
ENDBRANCH  19  20
ENDBRANCH  18  19
ENDBRANCH   1  18
TORSDOF 6
ENDMDL
MODEL 3
REMARK VINA RESULT:      -6.1      3.193      7.930
REMARK  Name = 
REMARK  7 active torsions:
REMARK  status: ('A' for Active; 'I' for Inactive)
REMARK    1  A    between atoms: C_1  and  O_2
REMARK    2  A    between atoms: O_2  and  C_3
REMARK    3  A    between atoms: C_3  and  C_4
REMARK    4  A    between atoms: C_4  and  O_5
REMARK    5  A    between atoms: O_5  and  C_6
REMARK    6  A    between atoms: N_10  and  S_11
REMARK    7  A    between atoms: S_11  and  C_14
REMARK                            x       y       z     vdW  Elec       q    Type
REMARK                         _______ _______ _______ _____ _____    ______ ____
ROOT
ATOM      1  C   UNL     1      10.217   1.293  22.999  0.00  0.00    +0.157 A 
ATOM      2  C   UNL     1       9.771   0.334  22.110  0.00  0.00    +0.161 A 
ATOM      3  N   UNL     1       9.586  -0.970  22.423  0.00  0.00    -0.218 NA
ATOM      4  C   UNL     1       9.831  -1.283  23.697  0.00  0.00    +0.235 A 
ATOM      5  N   UNL     1       9.735  -2.612  24.047  0.00  0.00    -0.184 N 
ATOM      6  H   UNL     1      10.460  -3.259  23.782  0.00  0.00    +0.177 HD
ATOM      7  N   UNL     1      10.310  -0.471  24.638  0.00  0.00    -0.218 NA
ATOM      8  C   UNL     1      10.473   0.815  24.268  0.00  0.00    +0.161 A 
ENDROOT
BRANCH   5   9
ATOM      9  S   UNL     1       8.330  -3.140  24.723  0.00  0.00    +0.075 S 
ATOM     10  O   UNL     1       7.494  -2.020  25.098  0.00  0.00    -0.150 OA
ATOM     11  O   UNL     1       8.700  -4.143  25.701  0.00  0.00    -0.150 OA
BRANCH   9  12
ATOM     12  C   UNL     1       7.517  -3.987  23.385  0.00  0.00    +0.109 A 
ATOM     13  C   UNL     1       7.777  -5.343  23.162  0.00  0.00    +0.029 A 
ATOM     14  C   UNL     1       7.141  -5.997  22.108  0.00  0.00    +0.002 A 
ATOM     15  C   UNL     1       6.271  -5.294  21.272  0.00  0.00    +0.000 A 
ATOM     16  C   UNL     1       6.038  -3.933  21.481  0.00  0.00    +0.002 A 
ATOM     17  C   UNL     1       6.665  -3.273  22.536  0.00  0.00    +0.029 A 
ENDBRANCH   9  12
ENDBRANCH   5   9
BRANCH   1  18
ATOM     18  O   UNL     1      10.361   2.571  22.550  0.00  0.00    -0.487 OA
BRANCH  18  19
ATOM     19  C   UNL     1      11.025   3.462  23.451  0.00  0.00    +0.257 C 
BRANCH  19  20
ATOM     20  C   UNL     1      10.133   4.657  23.766  0.00  0.00    +0.200 C 
BRANCH  20  22
ATOM     21  C   UNL     1      12.310   5.556  23.622  0.00  0.00    +0.194 C 
ATOM     22  O   UNL     1      10.919   5.842  23.649  0.00  0.00    -0.380 OA
ENDBRANCH  20  22
ENDBRANCH  19  20
ENDBRANCH  18  19
ENDBRANCH   1  18
TORSDOF 6
ENDMDL
MODEL 4
REMARK VINA RESULT:      -6.1      2.867      3.860
REMARK  Name = 
REMARK  7 active torsions:
REMARK  status: ('A' for Active; 'I' for Inactive)
REMARK    1  A    between atoms: C_1  and  O_2
REMARK    2  A    between atoms: O_2  and  C_3
REMARK    3  A    between atoms: C_3  and  C_4
REMARK    4  A    between atoms: C_4  and  O_5
REMARK    5  A    between atoms: O_5  and  C_6
REMARK    6  A    between atoms: N_10  and  S_11
REMARK    7  A    between atoms: S_11  and  C_14
REMARK                            x       y       z     vdW  Elec       q    Type
REMARK                         _______ _______ _______ _____ _____    ______ ____
ROOT
ATOM      1  C   UNL     1       9.346  -2.893  24.211  0.00  0.00    +0.157 A 
ATOM      2  C   UNL     1       8.825  -2.265  25.326  0.00  0.00    +0.161 A 
ATOM      3  N   UNL     1       8.967  -0.946  25.595  0.00  0.00    -0.218 NA
ATOM      4  C   UNL     1       9.631  -0.251  24.670  0.00  0.00    +0.235 A 
ATOM      5  N   UNL     1       9.871   1.079  24.935  0.00  0.00    -0.184 N 
ATOM      6  H   UNL     1      10.583   1.343  25.597  0.00  0.00    +0.177 HD
ATOM      7  N   UNL     1      10.223  -0.739  23.581  0.00  0.00    -0.218 NA
ATOM      8  C   UNL     1      10.047  -2.058  23.365  0.00  0.00    +0.161 A 
ENDROOT
BRANCH   5   9
ATOM      9  S   UNL     1       8.843   2.198  24.301  0.00  0.00    +0.075 S 
ATOM     10  O   UNL     1       7.874   2.617  25.293  0.00  0.00    -0.150 OA
ATOM     11  O   UNL     1       8.409   1.676  23.022  0.00  0.00    -0.150 OA
BRANCH   9  12
ATOM     12  C   UNL     1       9.899   3.592  23.968  0.00  0.00    +0.109 A 
ATOM     13  C   UNL     1      11.192   3.381  23.480  0.00  0.00    +0.029 A 
ATOM     14  C   UNL     1      12.015   4.478  23.227  0.00  0.00    +0.002 A 
ATOM     15  C   UNL     1      11.556   5.771  23.484  0.00  0.00    +0.000 A 
ATOM     16  C   UNL     1      10.274   5.974  24.000  0.00  0.00    +0.002 A 
ATOM     17  C   UNL     1       9.442   4.884  24.249  0.00  0.00    +0.029 A 
ENDBRANCH   9  12
ENDBRANCH   5   9
BRANCH   1  18
ATOM     18  O   UNL     1       9.130  -4.230  24.065  0.00  0.00    -0.487 OA
BRANCH  18  19
ATOM     19  C   UNL     1       7.850  -4.692  24.504  0.00  0.00    +0.257 C 
BRANCH  19  20
ATOM     20  C   UNL     1       6.873  -4.729  23.335  0.00  0.00    +0.200 C 
BRANCH  20  22
ATOM     21  C   UNL     1       6.616  -5.778  21.236  0.00  0.00    +0.194 C 
ATOM     22  O   UNL     1       7.176  -5.873  22.537  0.00  0.00    -0.380 OA
ENDBRANCH  20  22
ENDBRANCH  19  20
ENDBRANCH  18  19
ENDBRANCH   1  18
TORSDOF 6
ENDMDL
MODEL 5
REMARK VINA RESULT:      -6.0      2.158      7.603
REMARK  Name = 
REMARK  7 active torsions:
REMARK  status: ('A' for Active; 'I' for Inactive)
REMARK    1  A    between atoms: C_1  and  O_2
REMARK    2  A    between atoms: O_2  and  C_3
REMARK    3  A    between atoms: C_3  and  C_4
REMARK    4  A    between atoms: C_4  and  O_5
REMARK    5  A    between atoms: O_5  and  C_6
REMARK    6  A    between atoms: N_10  and  S_11
REMARK    7  A    between atoms: S_11  and  C_14
REMARK                            x       y       z     vdW  Elec       q    Type
REMARK                         _______ _______ _______ _____ _____    ______ ____
ROOT
ATOM      1  C   UNL     1       9.486  -1.659  22.539  0.00  0.00    +0.157 A 
ATOM      2  C   UNL     1       8.317  -2.258  22.110  0.00  0.00    +0.161 A 
ATOM      3  N   UNL     1       7.779  -3.368  22.668  0.00  0.00    -0.218 NA
ATOM      4  C   UNL     1       8.445  -3.848  23.720  0.00  0.00    +0.235 A 
ATOM      5  N   UNL     1       7.982  -5.021  24.274  0.00  0.00    -0.184 N 
ATOM      6  H   UNL     1       8.147  -5.900  23.810  0.00  0.00    +0.177 HD
ATOM      7  N   UNL     1       9.602  -3.399  24.202  0.00  0.00    -0.218 NA
ATOM      8  C   UNL     1      10.089  -2.291  23.607  0.00  0.00    +0.161 A 
ENDROOT
BRANCH   5   9
ATOM      9  S   UNL     1       6.996  -4.927  25.589  0.00  0.00    +0.075 S 
ATOM     10  O   UNL     1       6.670  -3.547  25.881  0.00  0.00    -0.150 OA
ATOM     11  O   UNL     1       7.587  -5.775  26.604  0.00  0.00    -0.150 OA
BRANCH   9  12
ATOM     12  C   UNL     1       5.500  -5.724  25.046  0.00  0.00    +0.109 A 
ATOM     13  C   UNL     1       4.909  -6.709  25.843  0.00  0.00    +0.029 A 
ATOM     14  C   UNL     1       3.741  -7.332  25.408  0.00  0.00    +0.002 A 
ATOM     15  C   UNL     1       3.184  -6.991  24.174  0.00  0.00    +0.000 A 
ATOM     16  C   UNL     1       3.795  -6.029  23.367  0.00  0.00    +0.002 A 
ATOM     17  C   UNL     1       4.959  -5.395  23.798  0.00  0.00    +0.029 A 
ENDBRANCH   9  12
ENDBRANCH   5   9
BRANCH   1  18
ATOM     18  O   UNL     1       9.918  -0.546  21.883  0.00  0.00    -0.487 OA
BRANCH  18  19
ATOM     19  C   UNL     1       9.144   0.635  22.114  0.00  0.00    +0.257 C 
BRANCH  19  20
ATOM     20  C   UNL     1      10.059   1.847  22.249  0.00  0.00    +0.200 C 
BRANCH  20  22
ATOM     21  C   UNL     1       9.436   1.694  24.520  0.00  0.00    +0.194 C 
ATOM     22  O   UNL     1      10.497   1.924  23.605  0.00  0.00    -0.380 OA
ENDBRANCH  20  22
ENDBRANCH  19  20
ENDBRANCH  18  19
ENDBRANCH   1  18
TORSDOF 6
ENDMDL
MODEL 6
REMARK VINA RESULT:      -5.9      2.039      2.938
REMARK  Name = 
REMARK  7 active torsions:
REMARK  status: ('A' for Active; 'I' for Inactive)
REMARK    1  A    between atoms: C_1  and  O_2
REMARK    2  A    between atoms: O_2  and  C_3
REMARK    3  A    between atoms: C_3  and  C_4
REMARK    4  A    between atoms: C_4  and  O_5
REMARK    5  A    between atoms: O_5  and  C_6
REMARK    6  A    between atoms: N_10  and  S_11
REMARK    7  A    between atoms: S_11  and  C_14
REMARK                            x       y       z     vdW  Elec       q    Type
REMARK                         _______ _______ _______ _____ _____    ______ ____
ROOT
ATOM      1  C   UNL     1       5.370  -4.253  23.908  0.00  0.00    +0.157 A 
ATOM      2  C   UNL     1       6.382  -4.820  23.157  0.00  0.00    +0.161 A 
ATOM      3  N   UNL     1       7.392  -4.122  22.586  0.00  0.00    -0.218 NA
ATOM      4  C   UNL     1       7.376  -2.810  22.830  0.00  0.00    +0.235 A 
ATOM      5  N   UNL     1       8.337  -2.045  22.206  0.00  0.00    -0.184 N 
ATOM      6  H   UNL     1       8.256  -1.831  21.225  0.00  0.00    +0.177 HD
ATOM      7  N   UNL     1       6.438  -2.134  23.490  0.00  0.00    -0.218 NA
ATOM      8  C   UNL     1       5.459  -2.882  24.037  0.00  0.00    +0.161 A 
ENDROOT
BRANCH   5   9
ATOM      9  S   UNL     1       9.700  -1.665  23.048  0.00  0.00    +0.075 S 
ATOM     10  O   UNL     1      10.879  -1.919  22.247  0.00  0.00    -0.150 OA
ATOM     11  O   UNL     1       9.554  -2.272  24.356  0.00  0.00    -0.150 OA
BRANCH   9  12
ATOM     12  C   UNL     1       9.575   0.097  23.270  0.00  0.00    +0.109 A 
ATOM     13  C   UNL     1       9.968   0.955  22.239  0.00  0.00    +0.029 A 
ATOM     14  C   UNL     1       9.874   2.333  22.424  0.00  0.00    +0.002 A 
ATOM     15  C   UNL     1       9.413   2.847  23.638  0.00  0.00    +0.000 A 
ATOM     16  C   UNL     1       9.051   1.985  24.675  0.00  0.00    +0.002 A 
ATOM     17  C   UNL     1       9.136   0.605  24.497  0.00  0.00    +0.029 A 
ENDBRANCH   9  12
ENDBRANCH   5   9
BRANCH   1  18
ATOM     18  O   UNL     1       4.413  -5.073  24.423  0.00  0.00    -0.487 OA
BRANCH  18  19
ATOM     19  C   UNL     1       4.878  -6.351  24.864  0.00  0.00    +0.257 C 
BRANCH  19  20
ATOM     20  C   UNL     1       5.032  -6.362  26.381  0.00  0.00    +0.200 C 
BRANCH  20  22
ATOM     21  C   UNL     1       6.749  -5.024  27.293  0.00  0.00    +0.194 C 
ATOM     22  O   UNL     1       6.423  -6.267  26.687  0.00  0.00    -0.380 OA
ENDBRANCH  20  22
ENDBRANCH  19  20
ENDBRANCH  18  19
ENDBRANCH   1  18
TORSDOF 6
ENDMDL
MODEL 7
REMARK VINA RESULT:      -5.7      2.355      6.784
REMARK  Name = 
REMARK  7 active torsions:
REMARK  status: ('A' for Active; 'I' for Inactive)
REMARK    1  A    between atoms: C_1  and  O_2
REMARK    2  A    between atoms: O_2  and  C_3
REMARK    3  A    between atoms: C_3  and  C_4
REMARK    4  A    between atoms: C_4  and  O_5
REMARK    5  A    between atoms: O_5  and  C_6
REMARK    6  A    between atoms: N_10  and  S_11
REMARK    7  A    between atoms: S_11  and  C_14
REMARK                            x       y       z     vdW  Elec       q    Type
REMARK                         _______ _______ _______ _____ _____    ______ ____
ROOT
ATOM      1  C   UNL     1       8.338   0.055  24.969  0.00  0.00    +0.157 A 
ATOM      2  C   UNL     1       8.908  -0.446  26.124  0.00  0.00    +0.161 A 
ATOM      3  N   UNL     1       8.571  -1.629  26.691  0.00  0.00    -0.218 NA
ATOM      4  C   UNL     1       7.650  -2.329  26.026  0.00  0.00    +0.235 A 
ATOM      5  N   UNL     1       7.215  -3.502  26.603  0.00  0.00    -0.184 N 
ATOM      6  H   UNL     1       6.583  -3.476  27.387  0.00  0.00    +0.177 HD
ATOM      7  N   UNL     1       6.990  -1.942  24.936  0.00  0.00    -0.218 NA
ATOM      8  C   UNL     1       7.369  -0.757  24.416  0.00  0.00    +0.161 A 
ENDROOT
BRANCH   5   9
ATOM      9  S   UNL     1       7.904  -4.914  26.112  0.00  0.00    +0.075 S 
ATOM     10  O   UNL     1       7.570  -5.986  27.027  0.00  0.00    -0.150 OA
ATOM     11  O   UNL     1       9.287  -4.611  25.808  0.00  0.00    -0.150 OA
BRANCH   9  12
ATOM     12  C   UNL     1       7.090  -5.260  24.567  0.00  0.00    +0.109 A 
ATOM     13  C   UNL     1       7.811  -5.183  23.372  0.00  0.00    +0.029 A 
ATOM     14  C   UNL     1       7.165  -5.449  22.166  0.00  0.00    +0.002 A 
ATOM     15  C   UNL     1       5.805  -5.764  22.155  0.00  0.00    +0.000 A 
ATOM     16  C   UNL     1       5.083  -5.808  23.349  0.00  0.00    +0.002 A 
ATOM     17  C   UNL     1       5.722  -5.551  24.561  0.00  0.00    +0.029 A 
ENDBRANCH   9  12
ENDBRANCH   5   9
BRANCH   1  18
ATOM     18  O   UNL     1       8.770   1.261  24.509  0.00  0.00    -0.487 OA
BRANCH  18  19
ATOM     19  C   UNL     1       8.813   1.390  23.085  0.00  0.00    +0.257 C 
BRANCH  19  20
ATOM     20  C   UNL     1      10.121   0.826  22.543  0.00  0.00    +0.200 C 
BRANCH  20  22
ATOM     21  C   UNL     1      10.195  -1.513  22.236  0.00  0.00    +0.194 C 
ATOM     22  O   UNL     1       9.811  -0.265  21.678  0.00  0.00    -0.380 OA
ENDBRANCH  20  22
ENDBRANCH  19  20
ENDBRANCH  18  19
ENDBRANCH   1  18
TORSDOF 6
ENDMDL
MODEL 8
REMARK VINA RESULT:      -5.7      2.506      7.052
REMARK  Name = 
REMARK  7 active torsions:
REMARK  status: ('A' for Active; 'I' for Inactive)
REMARK    1  A    between atoms: C_1  and  O_2
REMARK    2  A    between atoms: O_2  and  C_3
REMARK    3  A    between atoms: C_3  and  C_4
REMARK    4  A    between atoms: C_4  and  O_5
REMARK    5  A    between atoms: O_5  and  C_6
REMARK    6  A    between atoms: N_10  and  S_11
REMARK    7  A    between atoms: S_11  and  C_14
REMARK                            x       y       z     vdW  Elec       q    Type
REMARK                         _______ _______ _______ _____ _____    ______ ____
ROOT
ATOM      1  C   UNL     1       9.363  -0.928  24.913  0.00  0.00    +0.157 A 
ATOM      2  C   UNL     1      10.030  -1.671  23.957  0.00  0.00    +0.161 A 
ATOM      3  N   UNL     1       9.679  -2.923  23.581  0.00  0.00    -0.218 NA
ATOM      4  C   UNL     1       8.587  -3.404  24.178  0.00  0.00    +0.235 A 
ATOM      5  N   UNL     1       8.234  -4.704  23.887  0.00  0.00    -0.184 N 
ATOM      6  H   UNL     1       8.751  -5.470  24.287  0.00  0.00    +0.177 HD
ATOM      7  N   UNL     1       7.885  -2.817  25.145  0.00  0.00    -0.218 NA
ATOM      8  C   UNL     1       8.281  -1.572  25.477  0.00  0.00    +0.161 A 
ENDROOT
BRANCH   5   9
ATOM      9  S   UNL     1       7.091  -4.962  22.731  0.00  0.00    +0.075 S 
ATOM     10  O   UNL     1       7.339  -6.210  22.042  0.00  0.00    -0.150 OA
ATOM     11  O   UNL     1       6.972  -3.722  21.990  0.00  0.00    -0.150 OA
BRANCH   9  12
ATOM     12  C   UNL     1       5.589  -5.159  23.667  0.00  0.00    +0.109 A 
ATOM     13  C   UNL     1       4.377  -4.706  23.137  0.00  0.00    +0.029 A 
ATOM     14  C   UNL     1       3.207  -4.859  23.879  0.00  0.00    +0.002 A 
ATOM     15  C   UNL     1       3.254  -5.437  25.149  0.00  0.00    +0.000 A 
ATOM     16  C   UNL     1       4.472  -5.859  25.686  0.00  0.00    +0.002 A 
ATOM     17  C   UNL     1       5.646  -5.717  24.949  0.00  0.00    +0.029 A 
ENDBRANCH   9  12
ENDBRANCH   5   9
BRANCH   1  18
ATOM     18  O   UNL     1       9.826   0.320  25.198  0.00  0.00    -0.487 OA
BRANCH  18  19
ATOM     19  C   UNL     1      10.916   0.766  24.387  0.00  0.00    +0.257 C 
BRANCH  19  20
ATOM     20  C   UNL     1      10.580   2.105  23.740  0.00  0.00    +0.200 C 
BRANCH  20  22
ATOM     21  C   UNL     1       9.496   1.305  21.803  0.00  0.00    +0.194 C 
ATOM     22  O   UNL     1       9.339   1.966  23.050  0.00  0.00    -0.380 OA
ENDBRANCH  20  22
ENDBRANCH  19  20
ENDBRANCH  18  19
ENDBRANCH   1  18
TORSDOF 6
ENDMDL
MODEL 9
REMARK VINA RESULT:      -5.6      2.574      7.451
REMARK  Name = 
REMARK  7 active torsions:
REMARK  status: ('A' for Active; 'I' for Inactive)
REMARK    1  A    between atoms: C_1  and  O_2
REMARK    2  A    between atoms: O_2  and  C_3
REMARK    3  A    between atoms: C_3  and  C_4
REMARK    4  A    between atoms: C_4  and  O_5
REMARK    5  A    between atoms: O_5  and  C_6
REMARK    6  A    between atoms: N_10  and  S_11
REMARK    7  A    between atoms: S_11  and  C_14
REMARK                            x       y       z     vdW  Elec       q    Type
REMARK                         _______ _______ _______ _____ _____    ______ ____
ROOT
ATOM      1  C   UNL     1       9.489  -0.124  23.011  0.00  0.00    +0.157 A 
ATOM      2  C   UNL     1      10.064  -0.457  24.222  0.00  0.00    +0.161 A 
ATOM      3  N   UNL     1       9.592  -1.415  25.054  0.00  0.00    -0.218 NA
ATOM      4  C   UNL     1       8.521  -2.072  24.605  0.00  0.00    +0.235 A 
ATOM      5  N   UNL     1       7.955  -3.002  25.449  0.00  0.00    -0.184 N 
ATOM      6  H   UNL     1       7.401  -2.702  26.235  0.00  0.00    +0.177 HD
ATOM      7  N   UNL     1       7.844  -1.819  23.487  0.00  0.00    -0.218 NA
ATOM      8  C   UNL     1       8.361  -0.855  22.699  0.00  0.00    +0.161 A 
ENDROOT
BRANCH   5   9
ATOM      9  S   UNL     1       8.369  -4.584  25.257  0.00  0.00    +0.075 S 
ATOM     10  O   UNL     1       8.120  -5.325  26.475  0.00  0.00    -0.150 OA
ATOM     11  O   UNL     1       9.683  -4.591  24.647  0.00  0.00    -0.150 OA
BRANCH   9  12
ATOM     12  C   UNL     1       7.219  -5.170  24.031  0.00  0.00    +0.109 A 
ATOM     13  C   UNL     1       7.668  -5.455  22.739  0.00  0.00    +0.029 A 
ATOM     14  C   UNL     1       6.760  -5.908  21.783  0.00  0.00    +0.002 A 
ATOM     15  C   UNL     1       5.410  -6.049  22.112  0.00  0.00    +0.000 A 
ATOM     16  C   UNL     1       4.962  -5.732  23.396  0.00  0.00    +0.002 A 
ATOM     17  C   UNL     1       5.864  -5.286  24.360  0.00  0.00    +0.029 A 
ENDBRANCH   9  12
ENDBRANCH   5   9
BRANCH   1  18
ATOM     18  O   UNL     1      10.066   0.864  22.273  0.00  0.00    -0.487 OA
BRANCH  18  19
ATOM     19  C   UNL     1       9.165   1.851  21.765  0.00  0.00    +0.257 C 
BRANCH  19  20
ATOM     20  C   UNL     1       8.767   2.823  22.871  0.00  0.00    +0.200 C 
BRANCH  20  22
ATOM     21  C   UNL     1       9.742   4.688  23.939  0.00  0.00    +0.194 C 
ATOM     22  O   UNL     1       9.959   3.384  23.419  0.00  0.00    -0.380 OA
ENDBRANCH  20  22
ENDBRANCH  19  20
ENDBRANCH  18  19
ENDBRANCH   1  18
TORSDOF 6
ENDMDL
