MODEL 1
REMARK VINA RESULT:      -7.8      0.000      0.000
REMARK  Name = 
REMARK  6 active torsions:
REMARK  status: ('A' for Active; 'I' for Inactive)
REMARK    1  A    between atoms: O_1  and  C_2
REMARK    2  A    between atoms: C_2  and  CA_4
REMARK    3  A    between atoms: C_10  and  C_22
REMARK    4  A    between atoms: CA_12  and  C_19
REMARK    5  A    between atoms: C_19  and  O_20
REMARK    6  A    between atoms: C_22  and  O_23
REMARK                            x       y       z     vdW  Elec       q    Type
REMARK                         _______ _______ _______ _____ _____    ______ ____
ROOT
ATOM      1  CA  UNL     1       4.307  -6.764  24.880  0.00  0.00    +0.125 A 
ATOM      2  N   UNL     1       4.995  -5.975  23.972  0.00  0.00    -0.348 N 
ATOM      3  H   UNL     1       4.663  -5.804  23.023  0.00  0.00    +0.166 HD
ATOM      4  C   UNL     1       6.086  -5.379  24.571  0.00  0.00    +0.061 A 
ATOM      5  C   UNL     1       7.046  -4.402  24.024  0.00  0.00    +0.042 A 
ATOM      6  C   UNL     1       8.066  -3.961  24.895  0.00  0.00    +0.125 A 
ATOM      7  C   UNL     1       8.187  -4.462  26.301  0.00  0.00    +0.252 C 
ATOM      8  C   UNL     1       7.144  -5.454  26.805  0.00  0.00    +0.237 C 
ATOM      9  O   UNL     1       7.184  -5.872  27.953  0.00  0.00    -0.283 OA
ATOM     10  O   UNL     1       9.093  -4.088  27.035  0.00  0.00    -0.282 OA
ATOM     11  N   UNL     1       9.029  -3.053  24.568  0.00  0.00    -0.236 NA
ATOM     12  CA  UNL     1       8.981  -2.524  23.329  0.00  0.00    +0.149 A 
ATOM     13  C   UNL     1       8.031  -2.869  22.389  0.00  0.00    +0.050 A 
ATOM     14  C   UNL     1       7.068  -3.837  22.730  0.00  0.00    +0.072 A 
ATOM     15  C   UNL     1       6.119  -5.858  25.870  0.00  0.00    +0.052 A 
ATOM     16  C   UNL     1       5.020  -6.725  26.063  0.00  0.00    +0.046 A 
ENDROOT
BRANCH   1  17
ATOM     17  C   UNL     1       3.094  -7.466  24.522  0.00  0.00    +0.353 C 
ATOM     18  OXT UNL     1       2.283  -7.079  23.699  0.00  0.00    -0.243 OA
BRANCH  17  19
ATOM     19  O   UNL     1       2.931  -8.613  25.223  0.00  0.00    -0.476 OA
ATOM     20  H   UNL     1       2.025  -8.972  25.193  0.00  0.00    +0.295 HD
ENDBRANCH  17  19
ENDBRANCH   1  17
BRANCH  12  21
ATOM     21  C   UNL     1      10.038  -1.525  23.009  0.00  0.00    +0.355 C 
ATOM     22  OXT UNL     1      10.432  -0.684  23.798  0.00  0.00    -0.243 OA
BRANCH  21  23
ATOM     23  O   UNL     1      10.481  -1.668  21.740  0.00  0.00    -0.476 OA
ATOM     24  H   UNL     1      10.547  -2.622  21.494  0.00  0.00    +0.295 HD
ENDBRANCH  21  23
ENDBRANCH  12  21
BRANCH  14  25
ATOM     25  C   UNL     1       6.059  -4.152  21.692  0.00  0.00    +0.338 C 
ATOM     26  O   UNL     1       5.996  -5.239  21.147  0.00  0.00    -0.245 OA
BRANCH  25  27
ATOM     27  O   UNL     1       5.232  -3.132  21.392  0.00  0.00    -0.477 OA
ATOM     28  H   UNL     1       4.271  -3.264  21.493  0.00  0.00    +0.295 HD
ENDBRANCH  25  27
ENDBRANCH  14  25
TORSDOF 6
ENDMDL
MODEL 2
REMARK VINA RESULT:      -7.2      1.586      3.862
REMARK  Name = 
REMARK  6 active torsions:
REMARK  status: ('A' for Active; 'I' for Inactive)
REMARK    1  A    between atoms: O_1  and  C_2
REMARK    2  A    between atoms: C_2  and  CA_4
REMARK    3  A    between atoms: C_10  and  C_22
REMARK    4  A    between atoms: CA_12  and  C_19
REMARK    5  A    between atoms: C_19  and  O_20
REMARK    6  A    between atoms: C_22  and  O_23
REMARK                            x       y       z     vdW  Elec       q    Type
REMARK                         _______ _______ _______ _____ _____    ______ ____
ROOT
ATOM      1  CA  UNL     1       5.284  -6.286  26.520  0.00  0.00    +0.125 A 
ATOM      2  N   UNL     1       6.256  -5.315  26.342  0.00  0.00    -0.348 N 
ATOM      3  H   UNL     1       6.917  -5.052  27.072  0.00  0.00    +0.166 HD
ATOM      4  C   UNL     1       6.270  -4.871  25.035  0.00  0.00    +0.061 A 
ATOM      5  C   UNL     1       7.180  -3.918  24.372  0.00  0.00    +0.042 A 
ATOM      6  C   UNL     1       6.946  -3.668  23.003  0.00  0.00    +0.125 A 
ATOM      7  C   UNL     1       5.826  -4.321  22.252  0.00  0.00    +0.252 C 
ATOM      8  C   UNL     1       4.941  -5.314  22.997  0.00  0.00    +0.237 C 
ATOM      9  O   UNL     1       4.031  -5.892  22.421  0.00  0.00    -0.283 OA
ATOM     10  O   UNL     1       5.623  -4.073  21.070  0.00  0.00    -0.282 OA
ATOM     11  N   UNL     1       7.692  -2.831  22.227  0.00  0.00    -0.236 NA
ATOM     12  CA  UNL     1       8.742  -2.220  22.812  0.00  0.00    +0.149 A 
ATOM     13  C   UNL     1       9.076  -2.387  24.141  0.00  0.00    +0.050 A 
ATOM     14  C   UNL     1       8.273  -3.224  24.937  0.00  0.00    +0.072 A 
ATOM     15  C   UNL     1       5.238  -5.535  24.394  0.00  0.00    +0.052 A 
ATOM     16  C   UNL     1       4.618  -6.409  25.315  0.00  0.00    +0.046 A 
ENDROOT
BRANCH   1  17
ATOM     17  C   UNL     1       5.088  -6.954  27.788  0.00  0.00    +0.353 C 
ATOM     18  OXT UNL     1       5.984  -7.302  28.536  0.00  0.00    -0.243 OA
BRANCH  17  19
ATOM     19  O   UNL     1       3.782  -7.180  28.061  0.00  0.00    -0.476 OA
ATOM     20  H   UNL     1       3.211  -7.219  27.271  0.00  0.00    +0.295 HD
ENDBRANCH  17  19
ENDBRANCH   1  17
BRANCH  12  21
ATOM     21  C   UNL     1       9.543  -1.325  21.934  0.00  0.00    +0.355 C 
ATOM     22  OXT UNL     1       9.071  -0.386  21.317  0.00  0.00    -0.243 OA
BRANCH  21  23
ATOM     23  O   UNL     1      10.841  -1.700  21.903  0.00  0.00    -0.476 OA
ATOM     24  H   UNL     1      10.935  -2.623  21.567  0.00  0.00    +0.295 HD
ENDBRANCH  21  23
ENDBRANCH  12  21
BRANCH  14  25
ATOM     25  C   UNL     1       8.691  -3.385  26.349  0.00  0.00    +0.338 C 
ATOM     26  O   UNL     1       9.046  -4.454  26.811  0.00  0.00    -0.245 OA
BRANCH  25  27
ATOM     27  O   UNL     1       8.628  -2.255  27.080  0.00  0.00    -0.477 OA
ATOM     28  H   UNL     1       8.774  -2.312  28.043  0.00  0.00    +0.295 HD
ENDBRANCH  25  27
ENDBRANCH  14  25
TORSDOF 6
ENDMDL
MODEL 3
REMARK VINA RESULT:      -7.2      1.415      6.923
REMARK  Name = 
REMARK  6 active torsions:
REMARK  status: ('A' for Active; 'I' for Inactive)
REMARK    1  A    between atoms: O_1  and  C_2
REMARK    2  A    between atoms: C_2  and  CA_4
REMARK    3  A    between atoms: C_10  and  C_22
REMARK    4  A    between atoms: CA_12  and  C_19
REMARK    5  A    between atoms: C_19  and  O_20
REMARK    6  A    between atoms: C_22  and  O_23
REMARK                            x       y       z     vdW  Elec       q    Type
REMARK                         _______ _______ _______ _____ _____    ______ ____
ROOT
ATOM      1  CA  UNL     1       9.065  -2.026  22.747  0.00  0.00    +0.125 A 
ATOM      2  N   UNL     1       8.838  -2.774  23.891  0.00  0.00    -0.348 N 
ATOM      3  H   UNL     1       9.419  -2.701  24.725  0.00  0.00    +0.166 HD
ATOM      4  C   UNL     1       7.674  -3.507  23.773  0.00  0.00    +0.061 A 
ATOM      5  C   UNL     1       6.998  -4.369  24.760  0.00  0.00    +0.042 A 
ATOM      6  C   UNL     1       5.799  -4.988  24.344  0.00  0.00    +0.125 A 
ATOM      7  C   UNL     1       5.238  -4.798  22.968  0.00  0.00    +0.252 C 
ATOM      8  C   UNL     1       5.980  -3.873  22.009  0.00  0.00    +0.237 C 
ATOM      9  O   UNL     1       5.548  -3.665  20.884  0.00  0.00    -0.283 OA
ATOM     10  O   UNL     1       4.211  -5.362  22.615  0.00  0.00    -0.282 OA
ATOM     11  N   UNL     1       5.034  -5.803  25.124  0.00  0.00    -0.236 NA
ATOM     12  CA  UNL     1       5.446  -6.008  26.391  0.00  0.00    +0.149 A 
ATOM     13  C   UNL     1       6.597  -5.456  26.916  0.00  0.00    +0.050 A 
ATOM     14  C   UNL     1       7.396  -4.648  26.086  0.00  0.00    +0.072 A 
ATOM     15  C   UNL     1       7.195  -3.260  22.498  0.00  0.00    +0.052 A 
ATOM     16  C   UNL     1       8.060  -2.348  21.854  0.00  0.00    +0.046 A 
ENDROOT
BRANCH   1  17
ATOM     17  C   UNL     1      10.195  -1.131  22.626  0.00  0.00    +0.353 C 
ATOM     18  OXT UNL     1      10.381  -0.149  23.322  0.00  0.00    -0.243 OA
BRANCH  17  19
ATOM     19  O   UNL     1      11.035  -1.486  21.626  0.00  0.00    -0.476 OA
ATOM     20  H   UNL     1      11.105  -2.448  21.487  0.00  0.00    +0.295 HD
ENDBRANCH  17  19
ENDBRANCH   1  17
BRANCH  12  21
ATOM     21  C   UNL     1       4.581  -6.892  27.219  0.00  0.00    +0.355 C 
ATOM     22  OXT UNL     1       3.378  -7.001  27.058  0.00  0.00    -0.243 OA
BRANCH  21  23
ATOM     23  O   UNL     1       5.299  -7.533  28.168  0.00  0.00    -0.476 OA
ATOM     24  H   UNL     1       4.766  -7.660  28.990  0.00  0.00    +0.295 HD
ENDBRANCH  21  23
ENDBRANCH  12  21
BRANCH  14  25
ATOM     25  C   UNL     1       8.606  -4.063  26.709  0.00  0.00    +0.338 C 
ATOM     26  O   UNL     1       8.730  -2.868  26.904  0.00  0.00    -0.245 OA
BRANCH  25  27
ATOM     27  O   UNL     1       9.560  -4.961  27.021  0.00  0.00    -0.477 OA
ATOM     28  H   UNL     1       9.581  -5.324  27.927  0.00  0.00    +0.295 HD
ENDBRANCH  25  27
ENDBRANCH  14  25
TORSDOF 6
ENDMDL
MODEL 4
REMARK VINA RESULT:      -7.1      2.985      6.526
REMARK  Name = 
REMARK  6 active torsions:
REMARK  status: ('A' for Active; 'I' for Inactive)
REMARK    1  A    between atoms: O_1  and  C_2
REMARK    2  A    between atoms: C_2  and  CA_4
REMARK    3  A    between atoms: C_10  and  C_22
REMARK    4  A    between atoms: CA_12  and  C_19
REMARK    5  A    between atoms: C_19  and  O_20
REMARK    6  A    between atoms: C_22  and  O_23
REMARK                            x       y       z     vdW  Elec       q    Type
REMARK                         _______ _______ _______ _____ _____    ______ ____
ROOT
ATOM      1  CA  UNL     1       8.465  -1.371  23.011  0.00  0.00    +0.125 A 
ATOM      2  N   UNL     1       8.508  -2.570  23.705  0.00  0.00    -0.348 N 
ATOM      3  H   UNL     1       9.237  -3.268  23.561  0.00  0.00    +0.166 HD
ATOM      4  C   UNL     1       7.523  -2.611  24.671  0.00  0.00    +0.061 A 
ATOM      5  C   UNL     1       7.246  -3.638  25.693  0.00  0.00    +0.042 A 
ATOM      6  C   UNL     1       6.160  -3.391  26.560  0.00  0.00    +0.125 A 
ATOM      7  C   UNL     1       5.315  -2.159  26.451  0.00  0.00    +0.252 C 
ATOM      8  C   UNL     1       5.676  -1.130  25.385  0.00  0.00    +0.237 C 
ATOM      9  O   UNL     1       5.033  -0.097  25.273  0.00  0.00    -0.283 OA
ATOM     10  O   UNL     1       4.361  -1.973  27.196  0.00  0.00    -0.282 OA
ATOM     11  N   UNL     1       5.768  -4.220  27.570  0.00  0.00    -0.236 NA
ATOM     12  CA  UNL     1       6.491  -5.341  27.763  0.00  0.00    +0.149 A 
ATOM     13  C   UNL     1       7.577  -5.691  26.985  0.00  0.00    +0.050 A 
ATOM     14  C   UNL     1       7.944  -4.845  25.923  0.00  0.00    +0.072 A 
ATOM     15  C   UNL     1       6.805  -1.435  24.536  0.00  0.00    +0.052 A 
ATOM     16  C   UNL     1       7.381  -0.666  23.500  0.00  0.00    +0.046 A 
ENDROOT
BRANCH   1  17
ATOM     17  C   UNL     1       9.419  -1.050  21.973  0.00  0.00    +0.353 C 
ATOM     18  OXT UNL     1       9.274  -0.170  21.143  0.00  0.00    -0.243 OA
BRANCH  17  19
ATOM     19  O   UNL     1      10.506  -1.856  21.998  0.00  0.00    -0.476 OA
ATOM     20  H   UNL     1      10.303  -2.803  21.888  0.00  0.00    +0.295 HD
ENDBRANCH  17  19
ENDBRANCH   1  17
BRANCH  12  21
ATOM     21  C   UNL     1       6.044  -6.215  28.882  0.00  0.00    +0.355 C 
ATOM     22  OXT UNL     1       6.111  -5.895  30.055  0.00  0.00    -0.243 OA
BRANCH  21  23
ATOM     23  O   UNL     1       5.578  -7.399  28.424  0.00  0.00    -0.476 OA
ATOM     24  H   UNL     1       4.761  -7.273  27.885  0.00  0.00    +0.295 HD
ENDBRANCH  21  23
ENDBRANCH  12  21
BRANCH  14  25
ATOM     25  C   UNL     1       9.130  -5.256  25.137  0.00  0.00    +0.338 C 
ATOM     26  O   UNL     1       9.070  -5.525  23.951  0.00  0.00    -0.245 OA
BRANCH  25  27
ATOM     27  O   UNL     1      10.272  -5.325  25.848  0.00  0.00    -0.477 OA
ATOM     28  H   UNL     1      11.105  -5.049  25.422  0.00  0.00    +0.295 HD
ENDBRANCH  25  27
ENDBRANCH  14  25
TORSDOF 6
ENDMDL
MODEL 5
REMARK VINA RESULT:      -6.9      1.737      6.088
REMARK  Name = 
REMARK  6 active torsions:
REMARK  status: ('A' for Active; 'I' for Inactive)
REMARK    1  A    between atoms: O_1  and  C_2
REMARK    2  A    between atoms: C_2  and  CA_4
REMARK    3  A    between atoms: C_10  and  C_22
REMARK    4  A    between atoms: CA_12  and  C_19
REMARK    5  A    between atoms: C_19  and  O_20
REMARK    6  A    between atoms: C_22  and  O_23
REMARK                            x       y       z     vdW  Elec       q    Type
REMARK                         _______ _______ _______ _____ _____    ______ ____
ROOT
ATOM      1  CA  UNL     1       8.634  -1.471  22.807  0.00  0.00    +0.125 A 
ATOM      2  N   UNL     1       7.818  -2.565  22.567  0.00  0.00    -0.348 N 
ATOM      3  H   UNL     1       7.770  -3.032  21.661  0.00  0.00    +0.166 HD
ATOM      4  C   UNL     1       7.205  -2.982  23.730  0.00  0.00    +0.061 A 
ATOM      5  C   UNL     1       6.329  -4.145  23.970  0.00  0.00    +0.042 A 
ATOM      6  C   UNL     1       5.856  -4.319  25.289  0.00  0.00    +0.125 A 
ATOM      7  C   UNL     1       6.208  -3.372  26.395  0.00  0.00    +0.252 C 
ATOM      8  C   UNL     1       7.139  -2.207  26.078  0.00  0.00    +0.237 C 
ATOM      9  O   UNL     1       7.476  -1.422  26.952  0.00  0.00    -0.283 OA
ATOM     10  O   UNL     1       5.769  -3.525  27.528  0.00  0.00    -0.282 OA
ATOM     11  N   UNL     1       5.051  -5.341  25.697  0.00  0.00    -0.236 NA
ATOM     12  CA  UNL     1       4.707  -6.260  24.773  0.00  0.00    +0.149 A 
ATOM     13  C   UNL     1       5.109  -6.203  23.454  0.00  0.00    +0.050 A 
ATOM     14  C   UNL     1       5.907  -5.121  23.041  0.00  0.00    +0.072 A 
ATOM     15  C   UNL     1       7.598  -2.089  24.712  0.00  0.00    +0.052 A 
ATOM     16  C   UNL     1       8.478  -1.143  24.141  0.00  0.00    +0.046 A 
ENDROOT
BRANCH   1  17
ATOM     17  C   UNL     1       9.431  -0.863  21.765  0.00  0.00    +0.353 C 
ATOM     18  OXT UNL     1       9.110   0.128  21.133  0.00  0.00    -0.243 OA
BRANCH  17  19
ATOM     19  O   UNL     1      10.587  -1.530  21.537  0.00  0.00    -0.476 OA
ATOM     20  H   UNL     1      11.385  -1.059  21.842  0.00  0.00    +0.295 HD
ENDBRANCH  17  19
ENDBRANCH   1  17
BRANCH  12  21
ATOM     21  C   UNL     1       3.839  -7.370  25.255  0.00  0.00    +0.355 C 
ATOM     22  OXT UNL     1       3.182  -8.082  24.517  0.00  0.00    -0.243 OA
BRANCH  21  23
ATOM     23  O   UNL     1       3.868  -7.466  26.603  0.00  0.00    -0.476 OA
ATOM     24  H   UNL     1       3.727  -8.399  26.895  0.00  0.00    +0.295 HD
ENDBRANCH  21  23
ENDBRANCH  12  21
BRANCH  14  25
ATOM     25  C   UNL     1       6.328  -5.122  21.620  0.00  0.00    +0.338 C 
ATOM     26  O   UNL     1       7.151  -5.903  21.180  0.00  0.00    -0.245 OA
BRANCH  25  27
ATOM     27  O   UNL     1       5.738  -4.175  20.865  0.00  0.00    -0.477 OA
ATOM     28  H   UNL     1       6.166  -3.909  20.029  0.00  0.00    +0.295 HD
ENDBRANCH  25  27
ENDBRANCH  14  25
TORSDOF 6
ENDMDL
MODEL 6
REMARK VINA RESULT:      -6.8      3.875      8.012
REMARK  Name = 
REMARK  6 active torsions:
REMARK  status: ('A' for Active; 'I' for Inactive)
REMARK    1  A    between atoms: O_1  and  C_2
REMARK    2  A    between atoms: C_2  and  CA_4
REMARK    3  A    between atoms: C_10  and  C_22
REMARK    4  A    between atoms: CA_12  and  C_19
REMARK    5  A    between atoms: C_19  and  O_20
REMARK    6  A    between atoms: C_22  and  O_23
REMARK                            x       y       z     vdW  Elec       q    Type
REMARK                         _______ _______ _______ _____ _____    ______ ____
ROOT
ATOM      1  CA  UNL     1       8.404   3.185  24.932  0.00  0.00    +0.125 A 
ATOM      2  N   UNL     1       8.317   1.981  25.613  0.00  0.00    -0.348 N 
ATOM      3  H   UNL     1       7.864   1.889  26.522  0.00  0.00    +0.166 HD
ATOM      4  C   UNL     1       8.806   0.946  24.841  0.00  0.00    +0.061 A 
ATOM      5  C   UNL     1       8.836  -0.503  25.115  0.00  0.00    +0.042 A 
ATOM      6  C   UNL     1       9.399  -1.324  24.114  0.00  0.00    +0.125 A 
ATOM      7  C   UNL     1       9.953  -0.764  22.840  0.00  0.00    +0.252 C 
ATOM      8  C   UNL     1       9.866   0.741  22.616  0.00  0.00    +0.237 C 
ATOM      9  O   UNL     1      10.281   1.243  21.581  0.00  0.00    -0.283 OA
ATOM     10  O   UNL     1      10.461  -1.489  21.994  0.00  0.00    -0.282 OA
ATOM     11  N   UNL     1       9.497  -2.682  24.187  0.00  0.00    -0.236 NA
ATOM     12  CA  UNL     1       8.995  -3.277  25.288  0.00  0.00    +0.149 A 
ATOM     13  C   UNL     1       8.416  -2.584  26.332  0.00  0.00    +0.050 A 
ATOM     14  C   UNL     1       8.358  -1.181  26.258  0.00  0.00    +0.072 A 
ATOM     15  C   UNL     1       9.269   1.527  23.673  0.00  0.00    +0.052 A 
ATOM     16  C   UNL     1       9.029   2.918  23.729  0.00  0.00    +0.046 A 
ENDROOT
BRANCH   1  17
ATOM     17  C   UNL     1       7.916   4.423  25.498  0.00  0.00    +0.353 C 
ATOM     18  OXT UNL     1       7.892   4.682  26.688  0.00  0.00    -0.243 OA
BRANCH  17  19
ATOM     19  O   UNL     1       7.458   5.281  24.556  0.00  0.00    -0.476 OA
ATOM     20  H   UNL     1       8.155   5.668  23.996  0.00  0.00    +0.295 HD
ENDBRANCH  17  19
ENDBRANCH   1  17
BRANCH  12  21
ATOM     21  C   UNL     1       9.106  -4.761  25.330  0.00  0.00    +0.355 C 
ATOM     22  OXT UNL     1       9.039  -5.471  24.342  0.00  0.00    -0.243 OA
BRANCH  21  23
ATOM     23  O   UNL     1       9.272  -5.206  26.596  0.00  0.00    -0.476 OA
ATOM     24  H   UNL     1       9.967  -4.685  27.065  0.00  0.00    +0.295 HD
ENDBRANCH  21  23
ENDBRANCH  12  21
BRANCH  14  25
ATOM     25  C   UNL     1       7.705  -0.490  27.394  0.00  0.00    +0.338 C 
ATOM     26  O   UNL     1       6.497  -0.455  27.534  0.00  0.00    -0.245 OA
BRANCH  25  27
ATOM     27  O   UNL     1       8.561   0.107  28.247  0.00  0.00    -0.477 OA
ATOM     28  H   UNL     1       8.800   1.040  28.091  0.00  0.00    +0.295 HD
ENDBRANCH  25  27
ENDBRANCH  14  25
TORSDOF 6
ENDMDL
MODEL 7
REMARK VINA RESULT:      -6.8      3.075      4.038
REMARK  Name = 
REMARK  6 active torsions:
REMARK  status: ('A' for Active; 'I' for Inactive)
REMARK    1  A    between atoms: O_1  and  C_2
REMARK    2  A    between atoms: C_2  and  CA_4
REMARK    3  A    between atoms: C_10  and  C_22
REMARK    4  A    between atoms: CA_12  and  C_19
REMARK    5  A    between atoms: C_19  and  O_20
REMARK    6  A    between atoms: C_22  and  O_23
REMARK                            x       y       z     vdW  Elec       q    Type
REMARK                         _______ _______ _______ _____ _____    ______ ____
ROOT
ATOM      1  CA  UNL     1       5.960  -5.323  28.149  0.00  0.00    +0.125 A 
ATOM      2  N   UNL     1       7.016  -5.023  27.303  0.00  0.00    -0.348 N 
ATOM      3  H   UNL     1       7.818  -5.639  27.178  0.00  0.00    +0.166 HD
ATOM      4  C   UNL     1       6.760  -3.867  26.593  0.00  0.00    +0.061 A 
ATOM      5  C   UNL     1       7.550  -3.219  25.529  0.00  0.00    +0.042 A 
ATOM      6  C   UNL     1       7.017  -2.034  24.978  0.00  0.00    +0.125 A 
ATOM      7  C   UNL     1       5.722  -1.447  25.448  0.00  0.00    +0.252 C 
ATOM      8  C   UNL     1       4.948  -2.185  26.535  0.00  0.00    +0.237 C 
ATOM      9  O   UNL     1       3.874  -1.760  26.934  0.00  0.00    -0.283 OA
ATOM     10  O   UNL     1       5.286  -0.405  24.976  0.00  0.00    -0.282 OA
ATOM     11  N   UNL     1       7.599  -1.311  23.980  0.00  0.00    -0.236 NA
ATOM     12  CA  UNL     1       8.756  -1.782  23.472  0.00  0.00    +0.149 A 
ATOM     13  C   UNL     1       9.374  -2.931  23.923  0.00  0.00    +0.050 A 
ATOM     14  C   UNL     1       8.780  -3.644  24.979  0.00  0.00    +0.072 A 
ATOM     15  C   UNL     1       5.541  -3.398  27.052  0.00  0.00    +0.052 A 
ATOM     16  C   UNL     1       5.045  -4.295  28.024  0.00  0.00    +0.046 A 
ENDROOT
BRANCH   1  17
ATOM     17  C   UNL     1       5.951  -6.510  28.975  0.00  0.00    +0.353 C 
ATOM     18  OXT UNL     1       6.406  -6.576  30.103  0.00  0.00    -0.243 OA
BRANCH  17  19
ATOM     19  O   UNL     1       5.395  -7.575  28.350  0.00  0.00    -0.476 OA
ATOM     20  H   UNL     1       5.387  -8.390  28.884  0.00  0.00    +0.295 HD
ENDBRANCH  17  19
ENDBRANCH   1  17
BRANCH  12  21
ATOM     21  C   UNL     1       9.358  -0.975  22.374  0.00  0.00    +0.355 C 
ATOM     22  OXT UNL     1       9.000   0.155  22.094  0.00  0.00    -0.243 OA
BRANCH  21  23
ATOM     23  O   UNL     1      10.328  -1.665  21.734  0.00  0.00    -0.476 OA
ATOM     24  H   UNL     1      11.221  -1.306  21.953  0.00  0.00    +0.295 HD
ENDBRANCH  21  23
ENDBRANCH  12  21
BRANCH  14  25
ATOM     25  C   UNL     1       9.474  -4.881  25.408  0.00  0.00    +0.338 C 
ATOM     26  O   UNL     1       9.600  -5.848  24.679  0.00  0.00    -0.245 OA
BRANCH  25  27
ATOM     27  O   UNL     1       9.935  -4.850  26.673  0.00  0.00    -0.477 OA
ATOM     28  H   UNL     1      10.857  -5.123  26.841  0.00  0.00    +0.295 HD
ENDBRANCH  25  27
ENDBRANCH  14  25
TORSDOF 6
ENDMDL
MODEL 8
REMARK VINA RESULT:      -6.7      3.595      6.767
REMARK  Name = 
REMARK  6 active torsions:
REMARK  status: ('A' for Active; 'I' for Inactive)
REMARK    1  A    between atoms: O_1  and  C_2
REMARK    2  A    between atoms: C_2  and  CA_4
REMARK    3  A    between atoms: C_10  and  C_22
REMARK    4  A    between atoms: CA_12  and  C_19
REMARK    5  A    between atoms: C_19  and  O_20
REMARK    6  A    between atoms: C_22  and  O_23
REMARK                            x       y       z     vdW  Elec       q    Type
REMARK                         _______ _______ _______ _____ _____    ______ ____
ROOT
ATOM      1  CA  UNL     1       6.982   2.069  23.171  0.00  0.00    +0.125 A 
ATOM      2  N   UNL     1       7.797   0.950  23.125  0.00  0.00    -0.348 N 
ATOM      3  H   UNL     1       8.676   0.926  22.607  0.00  0.00    +0.166 HD
ATOM      4  C   UNL     1       7.317  -0.040  23.957  0.00  0.00    +0.061 A 
ATOM      5  C   UNL     1       7.896  -1.355  24.291  0.00  0.00    +0.042 A 
ATOM      6  C   UNL     1       7.166  -2.156  25.196  0.00  0.00    +0.125 A 
ATOM      7  C   UNL     1       5.862  -1.711  25.784  0.00  0.00    +0.252 C 
ATOM      8  C   UNL     1       5.338  -0.329  25.412  0.00  0.00    +0.237 C 
ATOM      9  O   UNL     1       4.292   0.090  25.886  0.00  0.00    -0.283 OA
ATOM     10  O   UNL     1       5.230  -2.430  26.548  0.00  0.00    -0.282 OA
ATOM     11  N   UNL     1       7.553  -3.390  25.628  0.00  0.00    -0.236 NA
ATOM     12  CA  UNL     1       8.732  -3.860  25.173  0.00  0.00    +0.149 A 
ATOM     13  C   UNL     1       9.538  -3.170  24.290  0.00  0.00    +0.050 A 
ATOM     14  C   UNL     1       9.105  -1.916  23.823  0.00  0.00    +0.072 A 
ATOM     15  C   UNL     1       6.136   0.448  24.490  0.00  0.00    +0.052 A 
ATOM     16  C   UNL     1       5.919   1.754  23.997  0.00  0.00    +0.046 A 
ENDROOT
BRANCH   1  17
ATOM     17  C   UNL     1       7.284   3.271  22.426  0.00  0.00    +0.353 C 
ATOM     18  OXT UNL     1       6.499   4.182  22.228  0.00  0.00    -0.243 OA
BRANCH  17  19
ATOM     19  O   UNL     1       8.547   3.279  21.939  0.00  0.00    -0.476 OA
ATOM     20  H   UNL     1       8.868   4.161  21.679  0.00  0.00    +0.295 HD
ENDBRANCH  17  19
ENDBRANCH   1  17
BRANCH  12  21
ATOM     21  C   UNL     1       9.131  -5.204  25.676  0.00  0.00    +0.355 C 
ATOM     22  OXT UNL     1       8.418  -5.902  26.374  0.00  0.00    -0.243 OA
BRANCH  21  23
ATOM     23  O   UNL     1      10.380  -5.528  25.271  0.00  0.00    -0.476 OA
ATOM     24  H   UNL     1      10.995  -4.763  25.373  0.00  0.00    +0.295 HD
ENDBRANCH  21  23
ENDBRANCH  12  21
BRANCH  14  25
ATOM     25  C   UNL     1      10.020  -1.210  22.896  0.00  0.00    +0.338 C 
ATOM     26  O   UNL     1      10.689  -0.252  23.238  0.00  0.00    -0.245 OA
BRANCH  25  27
ATOM     27  O   UNL     1      10.033  -1.706  21.644  0.00  0.00    -0.477 OA
ATOM     28  H   UNL     1      10.808  -2.224  21.355  0.00  0.00    +0.295 HD
ENDBRANCH  25  27
ENDBRANCH  14  25
TORSDOF 6
ENDMDL
MODEL 9
REMARK VINA RESULT:      -6.7      3.634      6.780
REMARK  Name = 
REMARK  6 active torsions:
REMARK  status: ('A' for Active; 'I' for Inactive)
REMARK    1  A    between atoms: O_1  and  C_2
REMARK    2  A    between atoms: C_2  and  CA_4
REMARK    3  A    between atoms: C_10  and  C_22
REMARK    4  A    between atoms: CA_12  and  C_19
REMARK    5  A    between atoms: C_19  and  O_20
REMARK    6  A    between atoms: C_22  and  O_23
REMARK                            x       y       z     vdW  Elec       q    Type
REMARK                         _______ _______ _______ _____ _____    ______ ____
ROOT
ATOM      1  CA  UNL     1       6.117   1.961  22.962  0.00  0.00    +0.125 A 
ATOM      2  N   UNL     1       6.021   0.848  23.783  0.00  0.00    -0.348 N 
ATOM      3  H   UNL     1       5.210   0.662  24.371  0.00  0.00    +0.166 HD
ATOM      4  C   UNL     1       7.096   0.004  23.589  0.00  0.00    +0.061 A 
ATOM      5  C   UNL     1       7.370  -1.323  24.173  0.00  0.00    +0.042 A 
ATOM      6  C   UNL     1       8.565  -1.957  23.769  0.00  0.00    +0.125 A 
ATOM      7  C   UNL     1       9.521  -1.320  22.807  0.00  0.00    +0.252 C 
ATOM      8  C   UNL     1       9.159   0.042  22.226  0.00  0.00    +0.237 C 
ATOM      9  O   UNL     1       9.893   0.591  21.418  0.00  0.00    -0.283 OA
ATOM     10  O   UNL     1      10.565  -1.874  22.487  0.00  0.00    -0.282 OA
ATOM     11  N   UNL     1       8.974  -3.187  24.192  0.00  0.00    -0.236 NA
ATOM     12  CA  UNL     1       8.160  -3.849  25.038  0.00  0.00    +0.149 A 
ATOM     13  C   UNL     1       6.964  -3.338  25.502  0.00  0.00    +0.050 A 
ATOM     14  C   UNL     1       6.576  -2.051  25.086  0.00  0.00    +0.072 A 
ATOM     15  C   UNL     1       7.917   0.635  22.671  0.00  0.00    +0.052 A 
ATOM     16  C   UNL     1       7.317   1.854  22.285  0.00  0.00    +0.046 A 
ENDROOT
BRANCH   1  17
ATOM     17  C   UNL     1       5.095   2.984  22.933  0.00  0.00    +0.353 C 
ATOM     18  OXT UNL     1       5.277   4.138  22.588  0.00  0.00    -0.243 OA
BRANCH  17  19
ATOM     19  O   UNL     1       3.893   2.530  23.358  0.00  0.00    -0.476 OA
ATOM     20  H   UNL     1       3.769   1.570  23.250  0.00  0.00    +0.295 HD
ENDBRANCH  17  19
ENDBRANCH   1  17
BRANCH  12  21
ATOM     21  C   UNL     1       8.629  -5.195  25.469  0.00  0.00    +0.355 C 
ATOM     22  OXT UNL     1       8.068  -5.864  26.318  0.00  0.00    -0.243 OA
BRANCH  21  23
ATOM     23  O   UNL     1       9.752  -5.557  24.811  0.00  0.00    -0.476 OA
ATOM     24  H   UNL     1       9.915  -6.527  24.895  0.00  0.00    +0.295 HD
ENDBRANCH  21  23
ENDBRANCH  12  21
BRANCH  14  25
ATOM     25  C   UNL     1       5.273  -1.562  25.595  0.00  0.00    +0.338 C 
ATOM     26  O   UNL     1       5.178  -0.609  26.345  0.00  0.00    -0.245 OA
BRANCH  25  27
ATOM     27  O   UNL     1       4.209  -2.272  25.171  0.00  0.00    -0.477 OA
ATOM     28  H   UNL     1       3.380  -2.221  25.682  0.00  0.00    +0.295 HD
ENDBRANCH  25  27
ENDBRANCH  14  25
TORSDOF 6
ENDMDL
