MODEL 1
REMARK VINA RESULT:      -7.8      0.000      0.000
REMARK  Name = 
REMARK  8 active torsions:
REMARK  status: ('A' for Active; 'I' for Inactive)
REMARK    1  A    between atoms: C_1  and  S_2
REMARK    2  A    between atoms: S_2  and  C_5
REMARK    3  A    between atoms: C_8  and  C_9
REMARK    4  A    between atoms: C_9  and  N_10
REMARK    5  A    between atoms: N_13  and  C_16
REMARK    6  A    between atoms: C_17  and  C_21
REMARK    7  A    between atoms: C_25  and  O_26
REMARK    8  A    between atoms: C_28  and  O_29
REMARK                            x       y       z     vdW  Elec       q    Type
REMARK                         _______ _______ _______ _____ _____    ______ ____
ROOT
ATOM      1  N   UNL     1       9.423  -1.686  22.606  0.00  0.00    -0.295 NA
ATOM      2  C   UNL     1      10.148  -1.195  23.813  0.00  0.00    +0.103 C 
ATOM      3  C   UNL     1       9.970   0.299  24.255  0.00  0.00    +0.120 C 
ATOM      4  N   UNL     1       9.995   1.261  23.131  0.00  0.00    -0.325 N 
ATOM      5  C   UNL     1       9.416   0.749  21.887  0.00  0.00    +0.120 C 
ATOM      6  C   UNL     1       9.703  -0.714  21.544  0.00  0.00    +0.103 C 
ENDROOT
BRANCH   4   7
ATOM      7  C   UNL     1      10.118   2.631  23.353  0.00  0.00    +0.076 A 
ATOM      8  C   UNL     1      11.340   3.361  23.440  0.00  0.00    +0.157 A 
ATOM      9  N   UNL     1      11.169   4.684  23.504  0.00  0.00    -0.180 NA
ATOM     10  N   UNL     1       9.837   4.815  23.426  0.00  0.00    -0.275 N 
ATOM     11  H   UNL     1       9.440   5.745  23.338  0.00  0.00    +0.189 HD
ATOM     12  C   UNL     1       9.140   3.631  23.491  0.00  0.00    +0.090 A 
BRANCH  12  13
ATOM     13  C   UNL     1       7.662   3.643  23.568  0.00  0.00    +0.045 A 
ATOM     14  C   UNL     1       6.834   4.248  22.607  0.00  0.00    +0.130 A 
ATOM     15  C   UNL     1       5.474   3.926  22.527  0.00  0.00    +0.093 A 
ATOM     16  C   UNL     1       4.950   2.975  23.396  0.00  0.00    +0.139 A 
ATOM     17  C   UNL     1       5.727   2.484  24.439  0.00  0.00    +0.083 A 
ATOM     18 CL   UNL     1       5.150   1.210  25.448  0.00  0.00    -0.080 Cl
ATOM     19  C   UNL     1       7.037   2.927  24.592  0.00  0.00    +0.037 A 
BRANCH  14  20
ATOM     20  O   UNL     1       7.361   5.163  21.734  0.00  0.00    -0.506 OA
ATOM     21  H   UNL     1       6.826   5.155  20.919  0.00  0.00    +0.292 HD
ENDBRANCH  14  20
BRANCH  16  22
ATOM     22  O   UNL     1       3.671   2.543  23.184  0.00  0.00    -0.505 OA
ATOM     23  H   UNL     1       3.383   2.082  23.996  0.00  0.00    +0.292 HD
ENDBRANCH  16  22
ENDBRANCH  12  13
ENDBRANCH   4   7
BRANCH   1  24
ATOM     24  C   UNL     1       7.988  -1.882  22.881  0.00  0.00    +0.119 C 
BRANCH  24  28
ATOM     25  C   UNL     1       6.733  -4.639  26.012  0.00  0.00    +0.088 A 
ATOM     26  C   UNL     1       6.317  -3.311  25.999  0.00  0.00    +0.027 A 
ATOM     27  C   UNL     1       6.735  -2.466  24.969  0.00  0.00    +0.007 A 
ATOM     28  C   UNL     1       7.559  -2.923  23.921  0.00  0.00    -0.033 A 
ATOM     29  C   UNL     1       7.995  -4.259  23.962  0.00  0.00    +0.007 A 
ATOM     30  C   UNL     1       7.563  -5.124  24.999  0.00  0.00    +0.027 A 
BRANCH  25  32
ATOM     31  C   UNL     1       4.945  -4.691  28.166  0.00  0.00    +0.200 C 
ATOM     32  S   UNL     1       6.117  -5.711  27.297  0.00  0.00    -0.006 S 
ATOM     33  O   UNL     1       5.373  -6.773  26.642  0.00  0.00    -0.170 OA
ATOM     34  O   UNL     1       7.207  -6.005  28.202  0.00  0.00    -0.170 OA
ENDBRANCH  25  32
ENDBRANCH  24  28
ENDBRANCH   1  24
TORSDOF 7
ENDMDL
MODEL 2
REMARK VINA RESULT:      -7.5      3.625      9.162
REMARK  Name = 
REMARK  8 active torsions:
REMARK  status: ('A' for Active; 'I' for Inactive)
REMARK    1  A    between atoms: C_1  and  S_2
REMARK    2  A    between atoms: S_2  and  C_5
REMARK    3  A    between atoms: C_8  and  C_9
REMARK    4  A    between atoms: C_9  and  N_10
REMARK    5  A    between atoms: N_13  and  C_16
REMARK    6  A    between atoms: C_17  and  C_21
REMARK    7  A    between atoms: C_25  and  O_26
REMARK    8  A    between atoms: C_28  and  O_29
REMARK                            x       y       z     vdW  Elec       q    Type
REMARK                         _______ _______ _______ _____ _____    ______ ____
ROOT
ATOM      1  N   UNL     1       8.582  -0.757  24.366  0.00  0.00    -0.295 NA
ATOM      2  C   UNL     1       9.137  -2.139  24.438  0.00  0.00    +0.103 C 
ATOM      3  C   UNL     1       8.624  -3.222  23.426  0.00  0.00    +0.120 C 
ATOM      4  N   UNL     1       7.160  -3.194  23.213  0.00  0.00    -0.325 N 
ATOM      5  C   UNL     1       6.567  -1.857  23.282  0.00  0.00    +0.120 C 
ATOM      6  C   UNL     1       7.123  -0.909  24.345  0.00  0.00    +0.103 C 
ENDROOT
BRANCH   4   7
ATOM      7  C   UNL     1       6.503  -4.237  22.564  0.00  0.00    +0.076 A 
ATOM      8  C   UNL     1       6.499  -4.480  21.158  0.00  0.00    +0.157 A 
ATOM      9  N   UNL     1       5.918  -5.633  20.817  0.00  0.00    -0.180 NA
ATOM     10  N   UNL     1       5.573  -6.154  22.004  0.00  0.00    -0.275 N 
ATOM     11  H   UNL     1       5.207  -7.101  22.036  0.00  0.00    +0.189 HD
ATOM     12  C   UNL     1       5.750  -5.308  23.074  0.00  0.00    +0.090 A 
BRANCH  12  13
ATOM     13  C   UNL     1       5.271  -5.702  24.418  0.00  0.00    +0.045 A 
ATOM     14  C   UNL     1       4.294  -6.686  24.643  0.00  0.00    +0.130 A 
ATOM     15  C   UNL     1       4.141  -7.270  25.905  0.00  0.00    +0.093 A 
ATOM     16  C   UNL     1       4.989  -6.885  26.939  0.00  0.00    +0.139 A 
ATOM     17  C   UNL     1       5.855  -5.812  26.762  0.00  0.00    +0.083 A 
ATOM     18 CL   UNL     1       7.009  -5.398  27.974  0.00  0.00    -0.080 Cl
ATOM     19  C   UNL     1       5.890  -5.145  25.541  0.00  0.00    +0.037 A 
BRANCH  14  20
ATOM     20  O   UNL     1       3.479  -7.083  23.615  0.00  0.00    -0.506 OA
ATOM     21  H   UNL     1       3.619  -8.035  23.462  0.00  0.00    +0.292 HD
ENDBRANCH  14  20
BRANCH  16  22
ATOM     22  O   UNL     1       4.946  -7.592  28.106  0.00  0.00    -0.505 OA
ATOM     23  H   UNL     1       5.256  -8.497  27.908  0.00  0.00    +0.292 HD
ENDBRANCH  16  22
ENDBRANCH  12  13
ENDBRANCH   4   7
BRANCH   1  24
ATOM     24  C   UNL     1       9.127  -0.016  23.214  0.00  0.00    +0.119 C 
BRANCH  24  28
ATOM     25  C   UNL     1       8.260   4.249  23.036  0.00  0.00    +0.088 A 
ATOM     26  C   UNL     1       9.124   3.719  23.991  0.00  0.00    +0.027 A 
ATOM     27  C   UNL     1       9.382   2.346  24.003  0.00  0.00    +0.007 A 
ATOM     28  C   UNL     1       8.804   1.473  23.059  0.00  0.00    -0.033 A 
ATOM     29  C   UNL     1       7.911   2.018  22.120  0.00  0.00    +0.007 A 
ATOM     30  C   UNL     1       7.657   3.413  22.095  0.00  0.00    +0.027 A 
BRANCH  25  32
ATOM     31  C   UNL     1       6.927   6.316  24.375  0.00  0.00    +0.200 C 
ATOM     32  S   UNL     1       8.016   6.015  22.999  0.00  0.00    -0.006 S 
ATOM     33  O   UNL     1       9.296   6.626  23.310  0.00  0.00    -0.170 OA
ATOM     34  O   UNL     1       7.301   6.347  21.785  0.00  0.00    -0.170 OA
ENDBRANCH  25  32
ENDBRANCH  24  28
ENDBRANCH   1  24
TORSDOF 7
ENDMDL
MODEL 3
REMARK VINA RESULT:      -7.2      3.529      8.454
REMARK  Name = 
REMARK  8 active torsions:
REMARK  status: ('A' for Active; 'I' for Inactive)
REMARK    1  A    between atoms: C_1  and  S_2
REMARK    2  A    between atoms: S_2  and  C_5
REMARK    3  A    between atoms: C_8  and  C_9
REMARK    4  A    between atoms: C_9  and  N_10
REMARK    5  A    between atoms: N_13  and  C_16
REMARK    6  A    between atoms: C_17  and  C_21
REMARK    7  A    between atoms: C_25  and  O_26
REMARK    8  A    between atoms: C_28  and  O_29
REMARK                            x       y       z     vdW  Elec       q    Type
REMARK                         _______ _______ _______ _____ _____    ______ ____
ROOT
ATOM      1  N   UNL     1       9.887  -1.321  23.537  0.00  0.00    -0.295 NA
ATOM      2  C   UNL     1       9.303  -1.482  22.175  0.00  0.00    +0.103 C 
ATOM      3  C   UNL     1       7.984  -2.312  22.003  0.00  0.00    +0.120 C 
ATOM      4  N   UNL     1       7.955  -3.559  22.798  0.00  0.00    -0.325 N 
ATOM      5  C   UNL     1       8.651  -3.469  24.084  0.00  0.00    +0.120 C 
ATOM      6  C   UNL     1       9.954  -2.670  24.109  0.00  0.00    +0.103 C 
ENDROOT
BRANCH   4   7
ATOM      7  C   UNL     1       6.993  -4.541  22.572  0.00  0.00    +0.076 A 
ATOM      8  C   UNL     1       6.974  -5.462  21.483  0.00  0.00    +0.157 A 
ATOM      9  N   UNL     1       6.025  -6.395  21.589  0.00  0.00    -0.180 NA
ATOM     10  N   UNL     1       5.448  -6.100  22.763  0.00  0.00    -0.275 N 
ATOM     11  H   UNL     1       4.755  -6.738  23.143  0.00  0.00    +0.189 HD
ATOM     12  C   UNL     1       5.870  -4.918  23.327  0.00  0.00    +0.090 A 
BRANCH  12  13
ATOM     13  C   UNL     1       5.207  -4.399  24.544  0.00  0.00    +0.045 A 
ATOM     14  C   UNL     1       4.922  -5.184  25.674  0.00  0.00    +0.130 A 
ATOM     15  C   UNL     1       4.638  -4.588  26.909  0.00  0.00    +0.093 A 
ATOM     16  C   UNL     1       4.667  -3.202  27.016  0.00  0.00    +0.139 A 
ATOM     17  C   UNL     1       4.803  -2.421  25.874  0.00  0.00    +0.083 A 
ATOM     18 CL   UNL     1       4.976  -0.709  25.990  0.00  0.00    -0.080 Cl
ATOM     19  C   UNL     1       4.938  -3.031  24.631  0.00  0.00    +0.037 A 
BRANCH  14  20
ATOM     20  O   UNL     1       4.922  -6.551  25.572  0.00  0.00    -0.506 OA
ATOM     21  H   UNL     1       5.205  -6.924  26.426  0.00  0.00    +0.292 HD
ENDBRANCH  14  20
BRANCH  16  22
ATOM     22  O   UNL     1       4.568  -2.649  28.261  0.00  0.00    -0.505 OA
ATOM     23  H   UNL     1       3.651  -2.788  28.568  0.00  0.00    +0.292 HD
ENDBRANCH  16  22
ENDBRANCH  12  13
ENDBRANCH   4   7
BRANCH   1  24
ATOM     24  C   UNL     1       9.116  -0.360  24.345  0.00  0.00    +0.119 C 
BRANCH  24  28
ATOM     25  C   UNL     1       9.704   3.943  24.008  0.00  0.00    +0.088 A 
ATOM     26  C   UNL     1       8.600   3.406  24.665  0.00  0.00    +0.027 A 
ATOM     27  C   UNL     1       8.459   2.020  24.759  0.00  0.00    +0.007 A 
ATOM     28  C   UNL     1       9.416   1.137  24.220  0.00  0.00    -0.033 A 
ATOM     29  C   UNL     1      10.510   1.692  23.534  0.00  0.00    +0.007 A 
ATOM     30  C   UNL     1      10.665   3.099  23.448  0.00  0.00    +0.027 A 
BRANCH  25  32
ATOM     31  C   UNL     1       9.315   6.228  25.579  0.00  0.00    +0.200 C 
ATOM     32  S   UNL     1       9.895   5.715  23.976  0.00  0.00    -0.006 S 
ATOM     33  O   UNL     1      11.321   5.987  23.919  0.00  0.00    -0.170 OA
ATOM     34  O   UNL     1       8.989   6.250  22.983  0.00  0.00    -0.170 OA
ENDBRANCH  25  32
ENDBRANCH  24  28
ENDBRANCH   1  24
TORSDOF 7
ENDMDL
MODEL 4
REMARK VINA RESULT:      -7.1      3.874      8.654
REMARK  Name = 
REMARK  8 active torsions:
REMARK  status: ('A' for Active; 'I' for Inactive)
REMARK    1  A    between atoms: C_1  and  S_2
REMARK    2  A    between atoms: S_2  and  C_5
REMARK    3  A    between atoms: C_8  and  C_9
REMARK    4  A    between atoms: C_9  and  N_10
REMARK    5  A    between atoms: N_13  and  C_16
REMARK    6  A    between atoms: C_17  and  C_21
REMARK    7  A    between atoms: C_25  and  O_26
REMARK    8  A    between atoms: C_28  and  O_29
REMARK                            x       y       z     vdW  Elec       q    Type
REMARK                         _______ _______ _______ _____ _____    ______ ____
ROOT
ATOM      1  N   UNL     1       9.254  -1.038  23.320  0.00  0.00    -0.295 NA
ATOM      2  C   UNL     1       7.779  -1.205  23.457  0.00  0.00    +0.103 C 
ATOM      3  C   UNL     1       7.218  -2.149  24.576  0.00  0.00    +0.120 C 
ATOM      4  N   UNL     1       7.961  -3.421  24.712  0.00  0.00    -0.325 N 
ATOM      5  C   UNL     1       9.396  -3.312  24.439  0.00  0.00    +0.120 C 
ATOM      6  C   UNL     1       9.812  -2.395  23.289  0.00  0.00    +0.103 C 
ENDROOT
BRANCH   4   7
ATOM      7  C   UNL     1       7.453  -4.481  25.460  0.00  0.00    +0.076 A 
ATOM      8  C   UNL     1       8.127  -5.160  26.518  0.00  0.00    +0.157 A 
ATOM      9  N   UNL     1       7.356  -6.035  27.168  0.00  0.00    -0.180 NA
ATOM     10  N   UNL     1       6.171  -5.900  26.554  0.00  0.00    -0.275 N 
ATOM     11  H   UNL     1       5.363  -6.381  26.937  0.00  0.00    +0.189 HD
ATOM     12  C   UNL     1       6.196  -5.108  25.430  0.00  0.00    +0.090 A 
BRANCH  12  13
ATOM     13  C   UNL     1       4.994  -4.996  24.574  0.00  0.00    +0.045 A 
ATOM     14  C   UNL     1       4.716  -5.857  23.500  0.00  0.00    +0.130 A 
ATOM     15  C   UNL     1       3.425  -5.943  22.964  0.00  0.00    +0.093 A 
ATOM     16  C   UNL     1       2.405  -5.183  23.526  0.00  0.00    +0.139 A 
ATOM     17  C   UNL     1       2.703  -4.225  24.489  0.00  0.00    +0.083 A 
ATOM     18 CL   UNL     1       1.448  -3.363  25.298  0.00  0.00    -0.080 Cl
ATOM     19  C   UNL     1       4.019  -4.050  24.905  0.00  0.00    +0.037 A 
BRANCH  14  20
ATOM     20  O   UNL     1       5.717  -6.625  22.966  0.00  0.00    -0.506 OA
ATOM     21  H   UNL     1       5.424  -6.953  22.096  0.00  0.00    +0.292 HD
ENDBRANCH  14  20
BRANCH  16  22
ATOM     22  O   UNL     1       1.124  -5.415  23.113  0.00  0.00    -0.505 OA
ATOM     23  H   UNL     1       1.130  -6.252  22.608  0.00  0.00    +0.292 HD
ENDBRANCH  16  22
ENDBRANCH  12  13
ENDBRANCH   4   7
BRANCH   1  24
ATOM     24  C   UNL     1       9.802  -0.184  24.388  0.00  0.00    +0.119 C 
BRANCH  24  28
ATOM     25  C   UNL     1       9.078   4.111  24.391  0.00  0.00    +0.088 A 
ATOM     26  C   UNL     1      10.125   3.547  23.665  0.00  0.00    +0.027 A 
ATOM     27  C   UNL     1      10.312   2.164  23.685  0.00  0.00    +0.007 A 
ATOM     28  C   UNL     1       9.457   1.308  24.408  0.00  0.00    -0.033 A 
ATOM     29  C   UNL     1       8.422   1.894  25.159  0.00  0.00    +0.007 A 
ATOM     30  C   UNL     1       8.220   3.297  25.131  0.00  0.00    +0.027 A 
BRANCH  25  32
ATOM     31  C   UNL     1       9.356   6.475  25.866  0.00  0.00    +0.200 C 
ATOM     32  S   UNL     1       8.820   5.872  24.280  0.00  0.00    -0.006 S 
ATOM     33  O   UNL     1       9.749   6.375  23.282  0.00  0.00    -0.170 OA
ATOM     34  O   UNL     1       7.397   6.114  24.170  0.00  0.00    -0.170 OA
ENDBRANCH  25  32
ENDBRANCH  24  28
ENDBRANCH   1  24
TORSDOF 7
ENDMDL
MODEL 5
REMARK VINA RESULT:      -7.1      1.766      1.921
REMARK  Name = 
REMARK  8 active torsions:
REMARK  status: ('A' for Active; 'I' for Inactive)
REMARK    1  A    between atoms: C_1  and  S_2
REMARK    2  A    between atoms: S_2  and  C_5
REMARK    3  A    between atoms: C_8  and  C_9
REMARK    4  A    between atoms: C_9  and  N_10
REMARK    5  A    between atoms: N_13  and  C_16
REMARK    6  A    between atoms: C_17  and  C_21
REMARK    7  A    between atoms: C_25  and  O_26
REMARK    8  A    between atoms: C_28  and  O_29
REMARK                            x       y       z     vdW  Elec       q    Type
REMARK                         _______ _______ _______ _____ _____    ______ ____
ROOT
ATOM      1  N   UNL     1       9.431  -0.683  23.007  0.00  0.00    -0.295 NA
ATOM      2  C   UNL     1      10.192  -0.177  24.185  0.00  0.00    +0.103 C 
ATOM      3  C   UNL     1      10.193   1.361  24.491  0.00  0.00    +0.120 C 
ATOM      4  N   UNL     1      10.354   2.208  23.289  0.00  0.00    -0.325 N 
ATOM      5  C   UNL     1       9.736   1.660  22.079  0.00  0.00    +0.120 C 
ATOM      6  C   UNL     1       9.845   0.149  21.872  0.00  0.00    +0.103 C 
ENDROOT
BRANCH   4   7
ATOM      7  C   UNL     1      10.641   3.567  23.393  0.00  0.00    +0.076 A 
ATOM      8  C   UNL     1      11.937   4.160  23.317  0.00  0.00    +0.157 A 
ATOM      9  N   UNL     1      11.913   5.494  23.295  0.00  0.00    -0.180 NA
ATOM     10  N   UNL     1      10.600   5.769  23.323  0.00  0.00    -0.275 N 
ATOM     11  H   UNL     1      10.298   6.730  23.198  0.00  0.00    +0.189 HD
ATOM     12  C   UNL     1       9.792   4.677  23.538  0.00  0.00    +0.090 A 
BRANCH  12  13
ATOM     13  C   UNL     1       8.338   4.860  23.741  0.00  0.00    +0.045 A 
ATOM     14  C   UNL     1       7.477   5.411  22.777  0.00  0.00    +0.130 A 
ATOM     15  C   UNL     1       6.091   5.231  22.865  0.00  0.00    +0.093 A 
ATOM     16  C   UNL     1       5.571   4.474  23.909  0.00  0.00    +0.139 A 
ATOM     17  C   UNL     1       6.400   4.052  24.941  0.00  0.00    +0.083 A 
ATOM     18 CL   UNL     1       5.812   3.001  26.176  0.00  0.00    -0.080 Cl
ATOM     19  C   UNL     1       7.755   4.367  24.912  0.00  0.00    +0.037 A 
BRANCH  14  20
ATOM     20  O   UNL     1       7.995   6.134  21.735  0.00  0.00    -0.506 OA
ATOM     21  H   UNL     1       8.214   7.028  22.057  0.00  0.00    +0.292 HD
ENDBRANCH  14  20
BRANCH  16  22
ATOM     22  O   UNL     1       4.242   4.158  23.877  0.00  0.00    -0.505 OA
ATOM     23  H   UNL     1       4.170   3.243  23.542  0.00  0.00    +0.292 HD
ENDBRANCH  16  22
ENDBRANCH  12  13
ENDBRANCH   4   7
BRANCH   1  24
ATOM     24  C   UNL     1       7.979  -0.678  23.260  0.00  0.00    +0.119 C 
BRANCH  24  28
ATOM     25  C   UNL     1       5.749  -4.301  24.196  0.00  0.00    +0.088 A 
ATOM     26  C   UNL     1       5.323  -3.415  23.210  0.00  0.00    +0.027 A 
ATOM     27  C   UNL     1       6.075  -2.272  22.936  0.00  0.00    +0.007 A 
ATOM     28  C   UNL     1       7.276  -1.991  23.619  0.00  0.00    -0.033 A 
ATOM     29  C   UNL     1       7.679  -2.879  24.632  0.00  0.00    +0.007 A 
ATOM     30  C   UNL     1       6.924  -4.048  24.905  0.00  0.00    +0.027 A 
BRANCH  25  32
ATOM     31  C   UNL     1       5.307  -6.315  26.090  0.00  0.00    +0.200 C 
ATOM     32  S   UNL     1       4.806  -5.791  24.465  0.00  0.00    -0.006 S 
ATOM     33  O   UNL     1       3.409  -5.400  24.541  0.00  0.00    -0.170 OA
ATOM     34  O   UNL     1       5.256  -6.788  23.517  0.00  0.00    -0.170 OA
ENDBRANCH  25  32
ENDBRANCH  24  28
ENDBRANCH   1  24
TORSDOF 7
ENDMDL
MODEL 6
REMARK VINA RESULT:      -7.1      1.960      2.119
REMARK  Name = 
REMARK  8 active torsions:
REMARK  status: ('A' for Active; 'I' for Inactive)
REMARK    1  A    between atoms: C_1  and  S_2
REMARK    2  A    between atoms: S_2  and  C_5
REMARK    3  A    between atoms: C_8  and  C_9
REMARK    4  A    between atoms: C_9  and  N_10
REMARK    5  A    between atoms: N_13  and  C_16
REMARK    6  A    between atoms: C_17  and  C_21
REMARK    7  A    between atoms: C_25  and  O_26
REMARK    8  A    between atoms: C_28  and  O_29
REMARK                            x       y       z     vdW  Elec       q    Type
REMARK                         _______ _______ _______ _____ _____    ______ ____
ROOT
ATOM      1  N   UNL     1       8.794  -2.181  23.140  0.00  0.00    -0.295 NA
ATOM      2  C   UNL     1       8.720  -1.472  24.449  0.00  0.00    +0.103 C 
ATOM      3  C   UNL     1       8.643   0.094  24.466  0.00  0.00    +0.120 C 
ATOM      4  N   UNL     1       9.557   0.747  23.504  0.00  0.00    -0.325 N 
ATOM      5  C   UNL     1       9.762  -0.004  22.263  0.00  0.00    +0.120 C 
ATOM      6  C   UNL     1       9.868  -1.525  22.387  0.00  0.00    +0.103 C 
ENDROOT
BRANCH   4   7
ATOM      7  C   UNL     1       9.817   2.114  23.564  0.00  0.00    +0.076 A 
ATOM      8  C   UNL     1      11.106   2.725  23.577  0.00  0.00    +0.157 A 
ATOM      9  N   UNL     1      11.068   4.056  23.484  0.00  0.00    -0.180 NA
ATOM     10  N   UNL     1       9.755   4.309  23.376  0.00  0.00    -0.275 N 
ATOM     11  H   UNL     1       9.454   5.257  23.174  0.00  0.00    +0.189 HD
ATOM     12  C   UNL     1       8.944   3.216  23.572  0.00  0.00    +0.090 A 
BRANCH  12  13
ATOM     13  C   UNL     1       7.475   3.383  23.630  0.00  0.00    +0.045 A 
ATOM     14  C   UNL     1       6.711   3.954  22.598  0.00  0.00    +0.130 A 
ATOM     15  C   UNL     1       5.326   3.762  22.539  0.00  0.00    +0.093 A 
ATOM     16  C   UNL     1       4.709   2.974  23.505  0.00  0.00    +0.139 A 
ATOM     17  C   UNL     1       5.433   2.531  24.606  0.00  0.00    +0.083 A 
ATOM     18 CL   UNL     1       4.732   1.445  25.746  0.00  0.00    -0.080 Cl
ATOM     19  C   UNL     1       6.781   2.856  24.723  0.00  0.00    +0.037 A 
BRANCH  14  20
ATOM     20  O   UNL     1       7.327   4.707  21.632  0.00  0.00    -0.506 OA
ATOM     21  H   UNL     1       7.794   5.444  22.067  0.00  0.00    +0.292 HD
ENDBRANCH  14  20
BRANCH  16  22
ATOM     22  O   UNL     1       3.394   2.650  23.330  0.00  0.00    -0.505 OA
ATOM     23  H   UNL     1       3.346   2.033  22.573  0.00  0.00    +0.292 HD
ENDBRANCH  16  22
ENDBRANCH  12  13
ENDBRANCH   4   7
BRANCH   1  24
ATOM     24  C   UNL     1       7.490  -2.185  22.453  0.00  0.00    +0.119 C 
BRANCH  24  28
ATOM     25  C   UNL     1       4.593  -5.272  23.478  0.00  0.00    +0.088 A 
ATOM     26  C   UNL     1       4.442  -3.956  23.909  0.00  0.00    +0.027 A 
ATOM     27  C   UNL     1       5.390  -2.998  23.547  0.00  0.00    +0.007 A 
ATOM     28  C   UNL     1       6.497  -3.317  22.735  0.00  0.00    -0.033 A 
ATOM     29  C   UNL     1       6.652  -4.654  22.331  0.00  0.00    +0.007 A 
ATOM     30  C   UNL     1       5.685  -5.629  22.685  0.00  0.00    +0.027 A 
BRANCH  25  32
ATOM     31  C   UNL     1       2.504  -5.715  25.289  0.00  0.00    +0.200 C 
ATOM     32  S   UNL     1       3.322  -6.453  23.892  0.00  0.00    -0.006 S 
ATOM     33  O   UNL     1       2.379  -6.465  22.787  0.00  0.00    -0.170 OA
ATOM     34  O   UNL     1       3.965  -7.668  24.344  0.00  0.00    -0.170 OA
ENDBRANCH  25  32
ENDBRANCH  24  28
ENDBRANCH   1  24
TORSDOF 7
ENDMDL
MODEL 7
REMARK VINA RESULT:      -7.1      1.961      3.052
REMARK  Name = 
REMARK  8 active torsions:
REMARK  status: ('A' for Active; 'I' for Inactive)
REMARK    1  A    between atoms: C_1  and  S_2
REMARK    2  A    between atoms: S_2  and  C_5
REMARK    3  A    between atoms: C_8  and  C_9
REMARK    4  A    between atoms: C_9  and  N_10
REMARK    5  A    between atoms: N_13  and  C_16
REMARK    6  A    between atoms: C_17  and  C_21
REMARK    7  A    between atoms: C_25  and  O_26
REMARK    8  A    between atoms: C_28  and  O_29
REMARK                            x       y       z     vdW  Elec       q    Type
REMARK                         _______ _______ _______ _____ _____    ______ ____
ROOT
ATOM      1  N   UNL     1       6.108  -3.624  23.139  0.00  0.00    -0.295 NA
ATOM      2  C   UNL     1       7.036  -3.029  22.136  0.00  0.00    +0.103 C 
ATOM      3  C   UNL     1       8.287  -2.226  22.635  0.00  0.00    +0.120 C 
ATOM      4  N   UNL     1       8.001  -1.320  23.770  0.00  0.00    -0.325 N 
ATOM      5  C   UNL     1       6.982  -1.819  24.696  0.00  0.00    +0.120 C 
ATOM      6  C   UNL     1       5.785  -2.545  24.079  0.00  0.00    +0.103 C 
ENDROOT
BRANCH   4   7
ATOM      7  C   UNL     1       8.914  -0.346  24.167  0.00  0.00    +0.076 A 
ATOM      8  C   UNL     1      10.190  -0.583  24.758  0.00  0.00    +0.157 A 
ATOM      9  N   UNL     1      10.926   0.522  24.901  0.00  0.00    -0.180 NA
ATOM     10  N   UNL     1      10.141   1.472  24.372  0.00  0.00    -0.275 N 
ATOM     11  H   UNL     1      10.517   2.407  24.251  0.00  0.00    +0.189 HD
ATOM     12  C   UNL     1       8.869   1.054  24.059  0.00  0.00    +0.090 A 
BRANCH  12  13
ATOM     13  C   UNL     1       7.855   2.035  23.609  0.00  0.00    +0.045 A 
ATOM     14  C   UNL     1       7.880   2.666  22.354  0.00  0.00    +0.130 A 
ATOM     15  C   UNL     1       6.736   3.288  21.841  0.00  0.00    +0.093 A 
ATOM     16  C   UNL     1       5.557   3.254  22.578  0.00  0.00    +0.139 A 
ATOM     17  C   UNL     1       5.565   2.762  23.878  0.00  0.00    +0.083 A 
ATOM     18 CL   UNL     1       4.097   2.584  24.765  0.00  0.00    -0.080 Cl
ATOM     19  C   UNL     1       6.749   2.280  24.427  0.00  0.00    +0.037 A 
BRANCH  14  20
ATOM     20  O   UNL     1       9.036   2.673  21.618  0.00  0.00    -0.506 OA
ATOM     21  H   UNL     1       9.214   1.764  21.314  0.00  0.00    +0.292 HD
ENDBRANCH  14  20
BRANCH  16  22
ATOM     22  O   UNL     1       4.412   3.704  21.984  0.00  0.00    -0.505 OA
ATOM     23  H   UNL     1       4.598   3.796  21.029  0.00  0.00    +0.292 HD
ENDBRANCH  16  22
ENDBRANCH  12  13
ENDBRANCH   4   7
BRANCH   1  24
ATOM     24  C   UNL     1       6.691  -4.821  23.771  0.00  0.00    +0.119 C 
BRANCH  24  28
ATOM     25  C   UNL     1       5.648  -6.027  27.825  0.00  0.00    +0.088 A 
ATOM     26  C   UNL     1       6.915  -5.543  27.510  0.00  0.00    +0.027 A 
ATOM     27  C   UNL     1       7.201  -5.157  26.199  0.00  0.00    +0.007 A 
ATOM     28  C   UNL     1       6.234  -5.225  25.176  0.00  0.00    -0.033 A 
ATOM     29  C   UNL     1       4.967  -5.743  25.502  0.00  0.00    +0.007 A 
ATOM     30  C   UNL     1       4.668  -6.123  26.835  0.00  0.00    +0.027 A 
BRANCH  25  32
ATOM     31  C   UNL     1       4.720  -4.897  30.213  0.00  0.00    +0.200 C 
ATOM     32  S   UNL     1       5.293  -6.435  29.524  0.00  0.00    -0.006 S 
ATOM     33  O   UNL     1       4.169  -7.356  29.512  0.00  0.00    -0.170 OA
ATOM     34  O   UNL     1       6.538  -6.779  30.177  0.00  0.00    -0.170 OA
ENDBRANCH  25  32
ENDBRANCH  24  28
ENDBRANCH   1  24
TORSDOF 7
ENDMDL
MODEL 8
REMARK VINA RESULT:      -6.9      2.879      3.799
REMARK  Name = 
REMARK  8 active torsions:
REMARK  status: ('A' for Active; 'I' for Inactive)
REMARK    1  A    between atoms: C_1  and  S_2
REMARK    2  A    between atoms: S_2  and  C_5
REMARK    3  A    between atoms: C_8  and  C_9
REMARK    4  A    between atoms: C_9  and  N_10
REMARK    5  A    between atoms: N_13  and  C_16
REMARK    6  A    between atoms: C_17  and  C_21
REMARK    7  A    between atoms: C_25  and  O_26
REMARK    8  A    between atoms: C_28  and  O_29
REMARK                            x       y       z     vdW  Elec       q    Type
REMARK                         _______ _______ _______ _____ _____    ______ ____
ROOT
ATOM      1  N   UNL     1       8.546  -3.012  23.061  0.00  0.00    -0.295 NA
ATOM      2  C   UNL     1       9.617  -2.105  23.564  0.00  0.00    +0.103 C 
ATOM      3  C   UNL     1       9.310  -1.161  24.778  0.00  0.00    +0.120 C 
ATOM      4  N   UNL     1       7.983  -0.509  24.707  0.00  0.00    -0.325 N 
ATOM      5  C   UNL     1       6.943  -1.329  24.082  0.00  0.00    +0.120 C 
ATOM      6  C   UNL     1       7.359  -2.170  22.875  0.00  0.00    +0.103 C 
ENDROOT
BRANCH   4   7
ATOM      7  C   UNL     1       7.651   0.551  25.547  0.00  0.00    +0.076 A 
ATOM      8  C   UNL     1       7.341   0.456  26.937  0.00  0.00    +0.157 A 
ATOM      9  N   UNL     1       7.209   1.641  27.536  0.00  0.00    -0.180 NA
ATOM     10  N   UNL     1       7.466   2.507  26.545  0.00  0.00    -0.275 N 
ATOM     11  H   UNL     1       7.544   3.495  26.765  0.00  0.00    +0.189 HD
ATOM     12  C   UNL     1       7.584   1.933  25.301  0.00  0.00    +0.090 A 
BRANCH  12  13
ATOM     13  C   UNL     1       7.718   2.787  24.099  0.00  0.00    +0.045 A 
ATOM     14  C   UNL     1       6.810   2.777  23.027  0.00  0.00    +0.130 A 
ATOM     15  C   UNL     1       6.772   3.832  22.108  0.00  0.00    +0.093 A 
ATOM     16  C   UNL     1       7.630   4.913  22.281  0.00  0.00    +0.139 A 
ATOM     17  C   UNL     1       8.626   4.861  23.249  0.00  0.00    +0.083 A 
ATOM     18 CL   UNL     1       9.615   6.235  23.575  0.00  0.00    -0.080 Cl
ATOM     19  C   UNL     1       8.743   3.736  24.061  0.00  0.00    +0.037 A 
BRANCH  14  20
ATOM     20  O   UNL     1       5.947   1.723  22.876  0.00  0.00    -0.506 OA
ATOM     21  H   UNL     1       5.888   1.506  21.928  0.00  0.00    +0.292 HD
ENDBRANCH  14  20
BRANCH  16  22
ATOM     22  O   UNL     1       7.454   6.009  21.486  0.00  0.00    -0.505 OA
ATOM     23  H   UNL     1       8.175   6.007  20.826  0.00  0.00    +0.292 HD
ENDBRANCH  16  22
ENDBRANCH  12  13
ENDBRANCH   4   7
BRANCH   1  24
ATOM     24  C   UNL     1       8.337  -4.156  23.966  0.00  0.00    +0.119 C 
BRANCH  24  28
ATOM     25  C   UNL     1       4.510  -6.214  24.269  0.00  0.00    +0.088 A 
ATOM     26  C   UNL     1       5.083  -5.572  25.364  0.00  0.00    +0.027 A 
ATOM     27  C   UNL     1       6.306  -4.915  25.218  0.00  0.00    +0.007 A 
ATOM     28  C   UNL     1       6.979  -4.864  23.980  0.00  0.00    -0.033 A 
ATOM     29  C   UNL     1       6.403  -5.540  22.890  0.00  0.00    +0.007 A 
ATOM     30  C   UNL     1       5.155  -6.198  23.031  0.00  0.00    +0.027 A 
BRANCH  25  32
ATOM     31  C   UNL     1       2.093  -6.648  22.924  0.00  0.00    +0.200 C 
ATOM     32  S   UNL     1       2.910  -6.974  24.471  0.00  0.00    -0.006 S 
ATOM     33  O   UNL     1       3.130  -8.408  24.557  0.00  0.00    -0.170 OA
ATOM     34  O   UNL     1       2.198  -6.261  25.510  0.00  0.00    -0.170 OA
ENDBRANCH  25  32
ENDBRANCH  24  28
ENDBRANCH   1  24
TORSDOF 7
ENDMDL
MODEL 9
REMARK VINA RESULT:      -6.9      3.331      4.764
REMARK  Name = 
REMARK  8 active torsions:
REMARK  status: ('A' for Active; 'I' for Inactive)
REMARK    1  A    between atoms: C_1  and  S_2
REMARK    2  A    between atoms: S_2  and  C_5
REMARK    3  A    between atoms: C_8  and  C_9
REMARK    4  A    between atoms: C_9  and  N_10
REMARK    5  A    between atoms: N_13  and  C_16
REMARK    6  A    between atoms: C_17  and  C_21
REMARK    7  A    between atoms: C_25  and  O_26
REMARK    8  A    between atoms: C_28  and  O_29
REMARK                            x       y       z     vdW  Elec       q    Type
REMARK                         _______ _______ _______ _____ _____    ______ ____
ROOT
ATOM      1  N   UNL     1       9.601   0.239  23.453  0.00  0.00    -0.295 NA
ATOM      2  C   UNL     1      10.230   1.499  23.939  0.00  0.00    +0.103 C 
ATOM      3  C   UNL     1       9.320   2.742  24.232  0.00  0.00    +0.120 C 
ATOM      4  N   UNL     1       8.275   2.972  23.210  0.00  0.00    -0.325 N 
ATOM      5  C   UNL     1       7.742   1.747  22.609  0.00  0.00    +0.120 C 
ATOM      6  C   UNL     1       8.741   0.624  22.328  0.00  0.00    +0.103 C 
ENDROOT
BRANCH   4   7
ATOM      7  C   UNL     1       7.556   4.164  23.164  0.00  0.00    +0.076 A 
ATOM      8  C   UNL     1       6.205   4.313  22.731  0.00  0.00    +0.157 A 
ATOM      9  N   UNL     1       5.712   5.537  22.932  0.00  0.00    -0.180 NA
ATOM     10  N   UNL     1       6.732   6.175  23.525  0.00  0.00    -0.275 N 
ATOM     11  H   UNL     1       6.578   7.109  23.893  0.00  0.00    +0.189 HD
ATOM     12  C   UNL     1       7.910   5.467  23.553  0.00  0.00    +0.090 A 
BRANCH  12  13
ATOM     13  C   UNL     1       9.150   6.110  24.043  0.00  0.00    +0.045 A 
ATOM     14  C   UNL     1       9.263   6.741  25.293  0.00  0.00    +0.130 A 
ATOM     15  C   UNL     1      10.518   7.004  25.853  0.00  0.00    +0.093 A 
ATOM     16  C   UNL     1      11.663   6.609  25.169  0.00  0.00    +0.139 A 
ATOM     17  C   UNL     1      11.562   6.119  23.873  0.00  0.00    +0.083 A 
ATOM     18 CL   UNL     1      12.946   5.497  23.052  0.00  0.00    -0.080 Cl
ATOM     19  C   UNL     1      10.312   6.001  23.273  0.00  0.00    +0.037 A 
BRANCH  14  20
ATOM     20  O   UNL     1       8.132   7.105  25.976  0.00  0.00    -0.506 OA
ATOM     21  H   UNL     1       7.438   6.445  25.796  0.00  0.00    +0.292 HD
ENDBRANCH  14  20
BRANCH  16  22
ATOM     22  O   UNL     1      12.865   6.709  25.811  0.00  0.00    -0.505 OA
ATOM     23  H   UNL     1      12.698   6.566  26.763  0.00  0.00    +0.292 HD
ENDBRANCH  16  22
ENDBRANCH  12  13
ENDBRANCH   4   7
BRANCH   1  24
ATOM     24  C   UNL     1       8.895  -0.467  24.537  0.00  0.00    +0.119 C 
BRANCH  24  28
ATOM     25  C   UNL     1       6.392  -3.839  23.380  0.00  0.00    +0.088 A 
ATOM     26  C   UNL     1       7.780  -3.893  23.286  0.00  0.00    +0.027 A 
ATOM     27  C   UNL     1       8.543  -2.792  23.679  0.00  0.00    +0.007 A 
ATOM     28  C   UNL     1       7.949  -1.621  24.191  0.00  0.00    -0.033 A 
ATOM     29  C   UNL     1       6.545  -1.569  24.254  0.00  0.00    +0.007 A 
ATOM     30  C   UNL     1       5.767  -2.689  23.868  0.00  0.00    +0.027 A 
BRANCH  25  32
ATOM     31  C   UNL     1       6.340  -5.963  21.556  0.00  0.00    +0.200 C 
ATOM     32  S   UNL     1       5.452  -5.290  22.945  0.00  0.00    -0.006 S 
ATOM     33  O   UNL     1       5.586  -6.228  24.047  0.00  0.00    -0.170 OA
ATOM     34  O   UNL     1       4.151  -4.864  22.477  0.00  0.00    -0.170 OA
ENDBRANCH  25  32
ENDBRANCH  24  28
ENDBRANCH   1  24
TORSDOF 7
ENDMDL
