MODEL 1
REMARK VINA RESULT:      -6.7      0.000      0.000
REMARK  Name = 
REMARK  9 active torsions:
REMARK  status: ('A' for Active; 'I' for Inactive)
REMARK    1  A    between atoms: C_5  and  C_6
REMARK    2  A    between atoms: C_6  and  O_7
REMARK    3  A    between atoms: O_7  and  C_8
REMARK    4  A    between atoms: C_8  and  C_9
REMARK    5  A    between atoms: CA_11  and  C_26
REMARK    6  A    between atoms: CA_15  and  N_17
REMARK    7  A    between atoms: C_18  and  C_20
REMARK    8  A    between atoms: C_20  and  C_21
REMARK    9  A    between atoms: C_26  and  O_27
REMARK                            x       y       z     vdW  Elec       q    Type
REMARK                         _______ _______ _______ _____ _____    ______ ____
ROOT
ATOM      1  C   UNL     1       8.199  -4.853  25.080  0.00  0.00    +0.169 C 
ATOM      2  CA  UNL     1       8.976  -3.733  24.316  0.00  0.00    +0.191 C 
ATOM      3  C   UNL     1       7.872  -3.932  23.234  0.00  0.00    +0.244 C 
ATOM      4  O   UNL     1       7.584  -3.483  22.149  0.00  0.00    -0.273 OA
ATOM      5  N   UNL     1       7.186  -4.768  24.039  0.00  0.00    -0.249 N 
ATOM      6  CA  UNL     1       5.926  -5.311  24.108  0.00  0.00    +0.125 C 
ATOM      7  C   UNL     1       5.469  -5.800  25.295  0.00  0.00    +0.006 C 
ATOM      8  C   UNL     1       6.238  -5.713  26.599  0.00  0.00    +0.107 C 
ATOM      9  S   UNL     1       7.449  -4.385  26.655  0.00  0.00    -0.131 S 
ENDROOT
BRANCH   2  10
ATOM     10  N   UNL     1       9.010  -2.375  24.933  0.00  0.00    -0.301 N 
ATOM     11  H   UNL     1       8.647  -2.231  25.870  0.00  0.00    +0.150 HD
ATOM     12  C   UNL     1       9.722  -1.348  24.348  0.00  0.00    +0.219 C 
ATOM     13  O   UNL     1      10.217  -1.451  23.227  0.00  0.00    -0.275 OA
BRANCH  12  14
ATOM     14  C   UNL     1       9.867  -0.108  25.209  0.00  0.00    +0.138 C 
BRANCH  14  15
ATOM     15  C   UNL     1       9.407   1.094  24.451  0.00  0.00    -0.001 A 
ATOM     16  S   UNL     1       7.758   1.269  24.023  0.00  0.00    -0.101 S 
ATOM     17  C   UNL     1       8.046   2.785  23.286  0.00  0.00    +0.045 A 
ATOM     18  C   UNL     1       9.371   3.149  23.355  0.00  0.00    +0.008 A 
ATOM     19  C   UNL     1      10.160   2.170  24.024  0.00  0.00    +0.011 A 
ENDBRANCH  14  15
ENDBRANCH  12  14
ENDBRANCH   2  10
BRANCH   6  20
ATOM     20  C   UNL     1       5.016  -5.307  22.888  0.00  0.00    +0.351 C 
ATOM     21  OXT UNL     1       4.246  -4.393  22.624  0.00  0.00    -0.244 OA
BRANCH  20  22
ATOM     22  O   UNL     1       5.023  -6.405  22.108  0.00  0.00    -0.476 OA
ATOM     23  H   UNL     1       5.105  -7.277  22.550  0.00  0.00    +0.295 HD
ENDBRANCH  20  22
ENDBRANCH   6  20
BRANCH   7  24
ATOM     24  C   UNL     1       4.083  -6.417  25.503  0.00  0.00    +0.266 C 
BRANCH  24  25
ATOM     25  O   UNL     1       3.957  -7.634  24.736  0.00  0.00    -0.460 OA
BRANCH  25  26
ATOM     26  C   UNL     1       2.694  -8.087  24.516  0.00  0.00    +0.304 C 
ATOM     27  O   UNL     1       2.252  -9.175  24.860  0.00  0.00    -0.251 OA
ATOM     28  C   UNL     1       1.904  -7.087  23.725  0.00  0.00    +0.136 C 
ENDBRANCH  25  26
ENDBRANCH  24  25
ENDBRANCH   7  24
TORSDOF 8
ENDMDL
MODEL 2
REMARK VINA RESULT:      -6.7      3.147      3.915
REMARK  Name = 
REMARK  9 active torsions:
REMARK  status: ('A' for Active; 'I' for Inactive)
REMARK    1  A    between atoms: C_5  and  C_6
REMARK    2  A    between atoms: C_6  and  O_7
REMARK    3  A    between atoms: O_7  and  C_8
REMARK    4  A    between atoms: C_8  and  C_9
REMARK    5  A    between atoms: CA_11  and  C_26
REMARK    6  A    between atoms: CA_15  and  N_17
REMARK    7  A    between atoms: C_18  and  C_20
REMARK    8  A    between atoms: C_20  and  C_21
REMARK    9  A    between atoms: C_26  and  O_27
REMARK                            x       y       z     vdW  Elec       q    Type
REMARK                         _______ _______ _______ _____ _____    ______ ____
ROOT
ATOM      1  C   UNL     1       8.617  -1.359  25.588  0.00  0.00    +0.169 C 
ATOM      2  CA  UNL     1       9.329  -0.644  24.394  0.00  0.00    +0.191 C 
ATOM      3  C   UNL     1       9.768  -2.088  24.005  0.00  0.00    +0.244 C 
ATOM      4  O   UNL     1      10.425  -2.627  23.144  0.00  0.00    -0.273 OA
ATOM      5  N   UNL     1       8.990  -2.621  24.968  0.00  0.00    -0.249 N 
ATOM      6  CA  UNL     1       8.481  -3.853  25.300  0.00  0.00    +0.125 C 
ATOM      7  C   UNL     1       7.397  -3.932  26.123  0.00  0.00    +0.006 C 
ATOM      8  C   UNL     1       6.642  -2.726  26.647  0.00  0.00    +0.107 C 
ATOM      9  S   UNL     1       6.815  -1.249  25.636  0.00  0.00    -0.131 S 
ENDROOT
BRANCH   2  10
ATOM     10  N   UNL     1       8.466   0.041  23.388  0.00  0.00    -0.301 N 
ATOM     11  H   UNL     1       7.460   0.076  23.518  0.00  0.00    +0.150 HD
ATOM     12  C   UNL     1       9.019   0.818  22.391  0.00  0.00    +0.219 C 
ATOM     13  O   UNL     1      10.231   0.852  22.185  0.00  0.00    -0.275 OA
BRANCH  12  14
ATOM     14  C   UNL     1       8.019   1.642  21.603  0.00  0.00    +0.138 C 
BRANCH  14  15
ATOM     15  C   UNL     1       7.523   2.775  22.440  0.00  0.00    -0.001 A 
ATOM     16  S   UNL     1       5.841   3.027  22.649  0.00  0.00    -0.101 S 
ATOM     17  C   UNL     1       6.105   4.368  23.674  0.00  0.00    +0.045 A 
ATOM     18  C   UNL     1       7.446   4.627  23.851  0.00  0.00    +0.008 A 
ATOM     19  C   UNL     1       8.266   3.710  23.134  0.00  0.00    +0.011 A 
ENDBRANCH  14  15
ENDBRANCH  12  14
ENDBRANCH   2  10
BRANCH   6  20
ATOM     20  C   UNL     1       9.074  -5.121  24.703  0.00  0.00    +0.351 C 
ATOM     21  OXT UNL     1       8.627  -5.668  23.704  0.00  0.00    -0.244 OA
BRANCH  20  22
ATOM     22  O   UNL     1      10.101  -5.692  25.360  0.00  0.00    -0.476 OA
ATOM     23  H   UNL     1      10.642  -6.350  24.872  0.00  0.00    +0.295 HD
ENDBRANCH  20  22
ENDBRANCH   6  20
BRANCH   7  24
ATOM     24  C   UNL     1       6.731  -5.241  26.556  0.00  0.00    +0.266 C 
BRANCH  24  25
ATOM     25  O   UNL     1       7.272  -5.683  27.819  0.00  0.00    -0.460 OA
BRANCH  25  26
ATOM     26  C   UNL     1       6.394  -6.238  28.698  0.00  0.00    +0.304 C 
ATOM     27  O   UNL     1       6.346  -7.418  29.014  0.00  0.00    -0.251 OA
ATOM     28  C   UNL     1       5.426  -5.208  29.199  0.00  0.00    +0.136 C 
ENDBRANCH  25  26
ENDBRANCH  24  25
ENDBRANCH   7  24
TORSDOF 8
ENDMDL
MODEL 3
REMARK VINA RESULT:      -6.5      2.467      3.741
REMARK  Name = 
REMARK  9 active torsions:
REMARK  status: ('A' for Active; 'I' for Inactive)
REMARK    1  A    between atoms: C_5  and  C_6
REMARK    2  A    between atoms: C_6  and  O_7
REMARK    3  A    between atoms: O_7  and  C_8
REMARK    4  A    between atoms: C_8  and  C_9
REMARK    5  A    between atoms: CA_11  and  C_26
REMARK    6  A    between atoms: CA_15  and  N_17
REMARK    7  A    between atoms: C_18  and  C_20
REMARK    8  A    between atoms: C_20  and  C_21
REMARK    9  A    between atoms: C_26  and  O_27
REMARK                            x       y       z     vdW  Elec       q    Type
REMARK                         _______ _______ _______ _____ _____    ______ ____
ROOT
ATOM      1  C   UNL     1       8.770  -1.048  25.419  0.00  0.00    +0.169 C 
ATOM      2  CA  UNL     1       9.461  -0.476  24.139  0.00  0.00    +0.191 C 
ATOM      3  C   UNL     1       9.898  -1.955  23.913  0.00  0.00    +0.244 C 
ATOM      4  O   UNL     1      10.543  -2.590  23.110  0.00  0.00    -0.273 OA
ATOM      5  N   UNL     1       9.137  -2.373  24.944  0.00  0.00    -0.249 N 
ATOM      6  CA  UNL     1       8.637  -3.559  25.425  0.00  0.00    +0.125 C 
ATOM      7  C   UNL     1       7.567  -3.543  26.269  0.00  0.00    +0.006 C 
ATOM      8  C   UNL     1       6.817  -2.285  26.662  0.00  0.00    +0.107 C 
ATOM      9  S   UNL     1       6.969  -0.936  25.483  0.00  0.00    -0.131 S 
ENDROOT
BRANCH   2  10
ATOM     10  N   UNL     1       8.580   0.086  23.074  0.00  0.00    -0.301 N 
ATOM     11  H   UNL     1       7.648  -0.290  22.931  0.00  0.00    +0.150 HD
ATOM     12  C   UNL     1       8.917   1.252  22.417  0.00  0.00    +0.219 C 
ATOM     13  O   UNL     1      10.015   1.787  22.555  0.00  0.00    -0.275 OA
BRANCH  12  14
ATOM     14  C   UNL     1       7.817   1.828  21.546  0.00  0.00    +0.138 C 
BRANCH  14  15
ATOM     15  C   UNL     1       7.092   2.903  22.288  0.00  0.00    -0.001 A 
ATOM     16  S   UNL     1       5.796   2.509  23.338  0.00  0.00    -0.101 S 
ATOM     17  C   UNL     1       5.570   4.146  23.774  0.00  0.00    +0.045 A 
ATOM     18  C   UNL     1       6.457   4.980  23.130  0.00  0.00    +0.008 A 
ATOM     19  C   UNL     1       7.333   4.262  22.267  0.00  0.00    +0.011 A 
ENDBRANCH  14  15
ENDBRANCH  12  14
ENDBRANCH   2  10
BRANCH   6  20
ATOM     20  C   UNL     1       9.225  -4.887  24.970  0.00  0.00    +0.351 C 
ATOM     21  OXT UNL     1       8.812  -5.509  24.000  0.00  0.00    -0.244 OA
BRANCH  20  22
ATOM     22  O   UNL     1      10.204  -5.421  25.724  0.00  0.00    -0.476 OA
ATOM     23  H   UNL     1      11.112  -5.070  25.605  0.00  0.00    +0.295 HD
ENDBRANCH  20  22
ENDBRANCH   6  20
BRANCH   7  24
ATOM     24  C   UNL     1       6.912  -4.793  26.862  0.00  0.00    +0.266 C 
BRANCH  24  25
ATOM     25  O   UNL     1       5.863  -5.269  25.992  0.00  0.00    -0.460 OA
BRANCH  25  26
ATOM     26  C   UNL     1       5.266  -6.441  26.341  0.00  0.00    +0.304 C 
ATOM     27  O   UNL     1       5.426  -7.039  27.395  0.00  0.00    -0.251 OA
ATOM     28  C   UNL     1       4.412  -6.953  25.220  0.00  0.00    +0.136 C 
ENDBRANCH  25  26
ENDBRANCH  24  25
ENDBRANCH   7  24
TORSDOF 8
ENDMDL
MODEL 4
REMARK VINA RESULT:      -6.4      1.849      2.509
REMARK  Name = 
REMARK  9 active torsions:
REMARK  status: ('A' for Active; 'I' for Inactive)
REMARK    1  A    between atoms: C_5  and  C_6
REMARK    2  A    between atoms: C_6  and  O_7
REMARK    3  A    between atoms: O_7  and  C_8
REMARK    4  A    between atoms: C_8  and  C_9
REMARK    5  A    between atoms: CA_11  and  C_26
REMARK    6  A    between atoms: CA_15  and  N_17
REMARK    7  A    between atoms: C_18  and  C_20
REMARK    8  A    between atoms: C_20  and  C_21
REMARK    9  A    between atoms: C_26  and  O_27
REMARK                            x       y       z     vdW  Elec       q    Type
REMARK                         _______ _______ _______ _____ _____    ______ ____
ROOT
ATOM      1  C   UNL     1       7.952  -4.493  23.602  0.00  0.00    +0.169 C 
ATOM      2  CA  UNL     1       8.040  -3.381  22.508  0.00  0.00    +0.191 C 
ATOM      3  C   UNL     1       6.553  -3.761  22.234  0.00  0.00    +0.244 C 
ATOM      4  O   UNL     1       5.663  -3.430  21.486  0.00  0.00    -0.273 OA
ATOM      5  N   UNL     1       6.531  -4.580  23.305  0.00  0.00    -0.249 N 
ATOM      6  CA  UNL     1       5.593  -5.219  24.080  0.00  0.00    +0.125 C 
ATOM      7  C   UNL     1       5.930  -5.642  25.331  0.00  0.00    +0.006 C 
ATOM      8  C   UNL     1       7.277  -5.382  25.978  0.00  0.00    +0.107 C 
ATOM      9  S   UNL     1       8.152  -3.958  25.315  0.00  0.00    -0.131 S 
ENDROOT
BRANCH   2  10
ATOM     10  N   UNL     1       8.253  -1.977  22.968  0.00  0.00    -0.301 N 
ATOM     11  H   UNL     1       7.539  -1.505  23.513  0.00  0.00    +0.150 HD
ATOM     12  C   UNL     1       9.489  -1.375  22.856  0.00  0.00    +0.219 C 
ATOM     13  O   UNL     1      10.416  -1.892  22.236  0.00  0.00    -0.275 OA
BRANCH  12  14
ATOM     14  C   UNL     1       9.615  -0.050  23.584  0.00  0.00    +0.138 C 
BRANCH  14  15
ATOM     15  C   UNL     1       8.643   0.934  23.021  0.00  0.00    -0.001 A 
ATOM     16  S   UNL     1       7.335   1.502  23.971  0.00  0.00    -0.101 S 
ATOM     17  C   UNL     1       6.786   2.524  22.716  0.00  0.00    +0.045 A 
ATOM     18  C   UNL     1       7.575   2.432  21.592  0.00  0.00    +0.008 A 
ATOM     19  C   UNL     1       8.646   1.509  21.766  0.00  0.00    +0.011 A 
ENDBRANCH  14  15
ENDBRANCH  12  14
ENDBRANCH   2  10
BRANCH   6  20
ATOM     20  C   UNL     1       4.167  -5.393  23.579  0.00  0.00    +0.351 C 
ATOM     21  OXT UNL     1       3.280  -4.571  23.770  0.00  0.00    -0.244 OA
BRANCH  20  22
ATOM     22  O   UNL     1       3.867  -6.548  22.955  0.00  0.00    -0.476 OA
ATOM     23  H   UNL     1       4.522  -7.276  23.008  0.00  0.00    +0.295 HD
ENDBRANCH  20  22
ENDBRANCH   6  20
BRANCH   7  24
ATOM     24  C   UNL     1       4.975  -6.352  26.293  0.00  0.00    +0.266 C 
BRANCH  24  25
ATOM     25  O   UNL     1       5.692  -6.821  27.455  0.00  0.00    -0.460 OA
BRANCH  25  26
ATOM     26  C   UNL     1       5.085  -6.643  28.659  0.00  0.00    +0.304 C 
ATOM     27  O   UNL     1       4.397  -7.468  29.243  0.00  0.00    -0.251 OA
ATOM     28  C   UNL     1       5.319  -5.252  29.169  0.00  0.00    +0.136 C 
ENDBRANCH  25  26
ENDBRANCH  24  25
ENDBRANCH   7  24
TORSDOF 8
ENDMDL
MODEL 5
REMARK VINA RESULT:      -6.3      1.923      2.487
REMARK  Name = 
REMARK  9 active torsions:
REMARK  status: ('A' for Active; 'I' for Inactive)
REMARK    1  A    between atoms: C_5  and  C_6
REMARK    2  A    between atoms: C_6  and  O_7
REMARK    3  A    between atoms: O_7  and  C_8
REMARK    4  A    between atoms: C_8  and  C_9
REMARK    5  A    between atoms: CA_11  and  C_26
REMARK    6  A    between atoms: CA_15  and  N_17
REMARK    7  A    between atoms: C_18  and  C_20
REMARK    8  A    between atoms: C_20  and  C_21
REMARK    9  A    between atoms: C_26  and  O_27
REMARK                            x       y       z     vdW  Elec       q    Type
REMARK                         _______ _______ _______ _____ _____    ______ ____
ROOT
ATOM      1  C   UNL     1       8.881  -3.238  24.772  0.00  0.00    +0.169 C 
ATOM      2  CA  UNL     1       9.437  -1.936  24.110  0.00  0.00    +0.191 C 
ATOM      3  C   UNL     1       8.771  -2.502  22.820  0.00  0.00    +0.244 C 
ATOM      4  O   UNL     1       8.648  -2.189  21.658  0.00  0.00    -0.273 OA
ATOM      5  N   UNL     1       8.199  -3.506  23.515  0.00  0.00    -0.249 N 
ATOM      6  CA  UNL     1       7.201  -4.433  23.332  0.00  0.00    +0.125 C 
ATOM      7  C   UNL     1       6.630  -5.028  24.417  0.00  0.00    +0.006 C 
ATOM      8  C   UNL     1       6.967  -4.674  25.852  0.00  0.00    +0.107 C 
ATOM      9  S   UNL     1       7.641  -3.021  26.067  0.00  0.00    -0.131 S 
ENDROOT
BRANCH   2  10
ATOM     10  N   UNL     1       8.881  -0.634  24.581  0.00  0.00    -0.301 N 
ATOM     11  H   UNL     1       8.222  -0.609  25.353  0.00  0.00    +0.150 HD
ATOM     12  C   UNL     1       9.405   0.563  24.136  0.00  0.00    +0.219 C 
ATOM     13  O   UNL     1      10.227   0.619  23.224  0.00  0.00    -0.275 OA
BRANCH  12  14
ATOM     14  C   UNL     1       8.910   1.787  24.883  0.00  0.00    +0.138 C 
BRANCH  14  15
ATOM     15  C   UNL     1       8.200   2.704  23.941  0.00  0.00    -0.001 A 
ATOM     16  S   UNL     1       8.590   4.372  23.898  0.00  0.00    -0.101 S 
ATOM     17  C   UNL     1       7.463   4.666  22.647  0.00  0.00    +0.045 A 
ATOM     18  C   UNL     1       6.795   3.522  22.273  0.00  0.00    +0.008 A 
ATOM     19  C   UNL     1       7.218   2.388  23.024  0.00  0.00    +0.011 A 
ENDBRANCH  14  15
ENDBRANCH  12  14
ENDBRANCH   2  10
BRANCH   6  20
ATOM     20  C   UNL     1       6.685  -4.746  21.935  0.00  0.00    +0.351 C 
ATOM     21  OXT UNL     1       7.063  -5.704  21.275  0.00  0.00    -0.244 OA
BRANCH  20  22
ATOM     22  O   UNL     1       5.818  -3.874  21.387  0.00  0.00    -0.476 OA
ATOM     23  H   UNL     1       6.185  -3.171  20.808  0.00  0.00    +0.295 HD
ENDBRANCH  20  22
ENDBRANCH   6  20
BRANCH   7  24
ATOM     24  C   UNL     1       5.505  -6.063  24.346  0.00  0.00    +0.266 C 
BRANCH  24  25
ATOM     25  O   UNL     1       4.309  -5.546  24.967  0.00  0.00    -0.460 OA
BRANCH  25  26
ATOM     26  C   UNL     1       3.551  -4.699  24.219  0.00  0.00    +0.304 C 
ATOM     27  O   UNL     1       3.350  -4.791  23.016  0.00  0.00    -0.251 OA
ATOM     28  C   UNL     1       3.027  -3.574  25.061  0.00  0.00    +0.136 C 
ENDBRANCH  25  26
ENDBRANCH  24  25
ENDBRANCH   7  24
TORSDOF 8
ENDMDL
MODEL 6
REMARK VINA RESULT:      -6.3      2.751      8.440
REMARK  Name = 
REMARK  9 active torsions:
REMARK  status: ('A' for Active; 'I' for Inactive)
REMARK    1  A    between atoms: C_5  and  C_6
REMARK    2  A    between atoms: C_6  and  O_7
REMARK    3  A    between atoms: O_7  and  C_8
REMARK    4  A    between atoms: C_8  and  C_9
REMARK    5  A    between atoms: CA_11  and  C_26
REMARK    6  A    between atoms: CA_15  and  N_17
REMARK    7  A    between atoms: C_18  and  C_20
REMARK    8  A    between atoms: C_20  and  C_21
REMARK    9  A    between atoms: C_26  and  O_27
REMARK                            x       y       z     vdW  Elec       q    Type
REMARK                         _______ _______ _______ _____ _____    ______ ____
ROOT
ATOM      1  C   UNL     1       7.292  -1.332  22.898  0.00  0.00    +0.169 C 
ATOM      2  CA  UNL     1       8.225  -2.585  22.958  0.00  0.00    +0.191 C 
ATOM      3  C   UNL     1       9.360  -1.549  22.696  0.00  0.00    +0.244 C 
ATOM      4  O   UNL     1      10.560  -1.547  22.550  0.00  0.00    -0.273 OA
ATOM      5  N   UNL     1       8.497  -0.520  22.824  0.00  0.00    -0.249 N 
ATOM      6  CA  UNL     1       8.554   0.840  23.008  0.00  0.00    +0.125 C 
ATOM      7  C   UNL     1       7.465   1.498  23.498  0.00  0.00    +0.006 C 
ATOM      8  C   UNL     1       6.190   0.809  23.944  0.00  0.00    +0.107 C 
ATOM      9  S   UNL     1       6.406  -0.913  24.415  0.00  0.00    -0.131 S 
ENDROOT
BRANCH   2  10
ATOM     10  N   UNL     1       8.326  -3.307  24.259  0.00  0.00    -0.301 N 
ATOM     11  H   UNL     1       8.301  -2.791  25.133  0.00  0.00    +0.150 HD
ATOM     12  C   UNL     1       8.234  -4.683  24.315  0.00  0.00    +0.219 C 
ATOM     13  O   UNL     1       8.230  -5.381  23.303  0.00  0.00    -0.275 OA
BRANCH  12  14
ATOM     14  C   UNL     1       8.105  -5.252  25.715  0.00  0.00    +0.138 C 
BRANCH  14  15
ATOM     15  C   UNL     1       6.668  -5.288  26.120  0.00  0.00    -0.001 A 
ATOM     16  S   UNL     1       6.135  -4.428  27.503  0.00  0.00    -0.101 S 
ATOM     17  C   UNL     1       4.515  -4.916  27.259  0.00  0.00    +0.045 A 
ATOM     18  C   UNL     1       4.380  -5.724  26.152  0.00  0.00    +0.008 A 
ATOM     19  C   UNL     1       5.625  -5.943  25.496  0.00  0.00    +0.011 A 
ENDBRANCH  14  15
ENDBRANCH  12  14
ENDBRANCH   2  10
BRANCH   6  20
ATOM     20  C   UNL     1       9.841   1.603  22.734  0.00  0.00    +0.351 C 
ATOM     21  OXT UNL     1      10.722   1.760  23.568  0.00  0.00    -0.244 OA
BRANCH  20  22
ATOM     22  O   UNL     1       9.970   2.186  21.527  0.00  0.00    -0.476 OA
ATOM     23  H   UNL     1      10.042   3.165  21.500  0.00  0.00    +0.295 HD
ENDBRANCH  20  22
ENDBRANCH   6  20
BRANCH   7  24
ATOM     24  C   UNL     1       7.407   3.005  23.758  0.00  0.00    +0.266 C 
BRANCH  24  25
ATOM     25  O   UNL     1       7.388   3.728  22.508  0.00  0.00    -0.460 OA
BRANCH  25  26
ATOM     26  C   UNL     1       7.758   5.036  22.555  0.00  0.00    +0.304 C 
ATOM     27  O   UNL     1       7.345   5.924  21.823  0.00  0.00    -0.251 OA
ATOM     28  C   UNL     1       8.810   5.250  23.602  0.00  0.00    +0.136 C 
ENDBRANCH  25  26
ENDBRANCH  24  25
ENDBRANCH   7  24
TORSDOF 8
ENDMDL
MODEL 7
REMARK VINA RESULT:      -6.3      2.210      7.958
REMARK  Name = 
REMARK  9 active torsions:
REMARK  status: ('A' for Active; 'I' for Inactive)
REMARK    1  A    between atoms: C_5  and  C_6
REMARK    2  A    between atoms: C_6  and  O_7
REMARK    3  A    between atoms: O_7  and  C_8
REMARK    4  A    between atoms: C_8  and  C_9
REMARK    5  A    between atoms: CA_11  and  C_26
REMARK    6  A    between atoms: CA_15  and  N_17
REMARK    7  A    between atoms: C_18  and  C_20
REMARK    8  A    between atoms: C_20  and  C_21
REMARK    9  A    between atoms: C_26  and  O_27
REMARK                            x       y       z     vdW  Elec       q    Type
REMARK                         _______ _______ _______ _____ _____    ______ ____
ROOT
ATOM      1  C   UNL     1       6.127  -1.596  23.316  0.00  0.00    +0.169 C 
ATOM      2  CA  UNL     1       5.476  -2.968  22.949  0.00  0.00    +0.191 C 
ATOM      3  C   UNL     1       6.952  -3.442  22.793  0.00  0.00    +0.244 C 
ATOM      4  O   UNL     1       7.546  -4.452  22.493  0.00  0.00    -0.273 OA
ATOM      5  N   UNL     1       7.415  -2.272  23.278  0.00  0.00    -0.249 N 
ATOM      6  CA  UNL     1       8.594  -1.770  23.772  0.00  0.00    +0.125 C 
ATOM      7  C   UNL     1       8.574  -0.648  24.546  0.00  0.00    +0.006 C 
ATOM      8  C   UNL     1       7.305   0.059  24.981  0.00  0.00    +0.107 C 
ATOM      9  S   UNL     1       5.843  -0.989  24.994  0.00  0.00    -0.131 S 
ENDROOT
BRANCH   2  10
ATOM     10  N   UNL     1       4.702  -3.669  24.015  0.00  0.00    -0.301 N 
ATOM     11  H   UNL     1       4.618  -3.259  24.939  0.00  0.00    +0.150 HD
ATOM     12  C   UNL     1       3.912  -4.760  23.715  0.00  0.00    +0.219 C 
ATOM     13  O   UNL     1       3.933  -5.301  22.611  0.00  0.00    -0.275 OA
BRANCH  12  14
ATOM     14  C   UNL     1       3.001  -5.210  24.842  0.00  0.00    +0.138 C 
BRANCH  14  15
ATOM     15  C   UNL     1       3.816  -5.572  26.040  0.00  0.00    -0.001 A 
ATOM     16  S   UNL     1       3.736  -4.620  27.463  0.00  0.00    -0.101 S 
ATOM     17  C   UNL     1       4.831  -5.643  28.284  0.00  0.00    +0.045 A 
ATOM     18  C   UNL     1       5.258  -6.686  27.492  0.00  0.00    +0.008 A 
ATOM     19  C   UNL     1       4.675  -6.642  26.193  0.00  0.00    +0.011 A 
ENDBRANCH  14  15
ENDBRANCH  12  14
ENDBRANCH   2  10
BRANCH   6  20
ATOM     20  C   UNL     1       9.908  -2.494  23.519  0.00  0.00    +0.351 C 
ATOM     21  OXT UNL     1      10.283  -3.458  24.172  0.00  0.00    -0.244 OA
BRANCH  20  22
ATOM     22  O   UNL     1      10.718  -1.991  22.568  0.00  0.00    -0.476 OA
ATOM     23  H   UNL     1      10.297  -1.557  21.795  0.00  0.00    +0.295 HD
ENDBRANCH  20  22
ENDBRANCH   6  20
BRANCH   7  24
ATOM     24  C   UNL     1       9.815   0.001  25.164  0.00  0.00    +0.266 C 
BRANCH  24  25
ATOM     25  O   UNL     1      10.632   0.600  24.135  0.00  0.00    -0.460 OA
BRANCH  25  26
ATOM     26  C   UNL     1      10.160   1.746  23.573  0.00  0.00    +0.304 C 
ATOM     27  O   UNL     1       9.815   2.751  24.178  0.00  0.00    -0.251 OA
ATOM     28  C   UNL     1      10.056   1.599  22.084  0.00  0.00    +0.136 C 
ENDBRANCH  25  26
ENDBRANCH  24  25
ENDBRANCH   7  24
TORSDOF 8
ENDMDL
MODEL 8
REMARK VINA RESULT:      -6.3      1.699      1.974
REMARK  Name = 
REMARK  9 active torsions:
REMARK  status: ('A' for Active; 'I' for Inactive)
REMARK    1  A    between atoms: C_5  and  C_6
REMARK    2  A    between atoms: C_6  and  O_7
REMARK    3  A    between atoms: O_7  and  C_8
REMARK    4  A    between atoms: C_8  and  C_9
REMARK    5  A    between atoms: CA_11  and  C_26
REMARK    6  A    between atoms: CA_15  and  N_17
REMARK    7  A    between atoms: C_18  and  C_20
REMARK    8  A    between atoms: C_20  and  C_21
REMARK    9  A    between atoms: C_26  and  O_27
REMARK                            x       y       z     vdW  Elec       q    Type
REMARK                         _______ _______ _______ _____ _____    ______ ____
ROOT
ATOM      1  C   UNL     1       8.169  -4.913  25.460  0.00  0.00    +0.169 C 
ATOM      2  CA  UNL     1       8.861  -4.138  24.294  0.00  0.00    +0.191 C 
ATOM      3  C   UNL     1       7.682  -4.695  23.440  0.00  0.00    +0.244 C 
ATOM      4  O   UNL     1       7.303  -4.654  22.293  0.00  0.00    -0.273 OA
ATOM      5  N   UNL     1       7.077  -5.191  24.539  0.00  0.00    -0.249 N 
ATOM      6  CA  UNL     1       5.838  -5.667  24.892  0.00  0.00    +0.125 C 
ATOM      7  C   UNL     1       5.483  -5.706  26.208  0.00  0.00    +0.006 C 
ATOM      8  C   UNL     1       6.348  -5.172  27.334  0.00  0.00    +0.107 C 
ATOM      9  S   UNL     1       7.531  -3.917  26.826  0.00  0.00    -0.131 S 
ENDROOT
BRANCH   2  10
ATOM     10  N   UNL     1       8.914  -2.650  24.392  0.00  0.00    -0.301 N 
ATOM     11  H   UNL     1       8.327  -2.161  25.060  0.00  0.00    +0.150 HD
ATOM     12  C   UNL     1       9.900  -1.932  23.746  0.00  0.00    +0.219 C 
ATOM     13  O   UNL     1      10.670  -2.453  22.941  0.00  0.00    -0.275 OA
BRANCH  12  14
ATOM     14  C   UNL     1       9.973  -0.468  24.135  0.00  0.00    +0.138 C 
BRANCH  14  15
ATOM     15  C   UNL     1       9.126   0.346  23.213  0.00  0.00    -0.001 A 
ATOM     16  S   UNL     1       7.536   0.796  23.667  0.00  0.00    -0.101 S 
ATOM     17  C   UNL     1       7.299   1.661  22.212  0.00  0.00    +0.045 A 
ATOM     18  C   UNL     1       8.402   1.604  21.390  0.00  0.00    +0.008 A 
ATOM     19  C   UNL     1       9.457   0.840  21.967  0.00  0.00    +0.011 A 
ENDBRANCH  14  15
ENDBRANCH  12  14
ENDBRANCH   2  10
BRANCH   6  20
ATOM     20  C   UNL     1       4.838  -6.085  23.824  0.00  0.00    +0.351 C 
ATOM     21  OXT UNL     1       4.151  -5.290  23.197  0.00  0.00    -0.244 OA
BRANCH  20  22
ATOM     22  O   UNL     1       4.665  -7.404  23.621  0.00  0.00    -0.476 OA
ATOM     23  H   UNL     1       4.474  -7.702  22.705  0.00  0.00    +0.295 HD
ENDBRANCH  20  22
ENDBRANCH   6  20
BRANCH   7  24
ATOM     24  C   UNL     1       4.131  -6.200  26.727  0.00  0.00    +0.266 C 
BRANCH  24  25
ATOM     25  O   UNL     1       3.307  -5.082  27.122  0.00  0.00    -0.460 OA
BRANCH  25  26
ATOM     26  C   UNL     1       2.456  -4.590  26.181  0.00  0.00    +0.304 C 
ATOM     27  O   UNL     1       1.568  -5.217  25.621  0.00  0.00    -0.251 OA
ATOM     28  C   UNL     1       2.789  -3.163  25.863  0.00  0.00    +0.136 C 
ENDBRANCH  25  26
ENDBRANCH  24  25
ENDBRANCH   7  24
TORSDOF 8
ENDMDL
MODEL 9
REMARK VINA RESULT:      -6.2      1.949      2.539
REMARK  Name = 
REMARK  9 active torsions:
REMARK  status: ('A' for Active; 'I' for Inactive)
REMARK    1  A    between atoms: C_5  and  C_6
REMARK    2  A    between atoms: C_6  and  O_7
REMARK    3  A    between atoms: O_7  and  C_8
REMARK    4  A    between atoms: C_8  and  C_9
REMARK    5  A    between atoms: CA_11  and  C_26
REMARK    6  A    between atoms: CA_15  and  N_17
REMARK    7  A    between atoms: C_18  and  C_20
REMARK    8  A    between atoms: C_20  and  C_21
REMARK    9  A    between atoms: C_26  and  O_27
REMARK                            x       y       z     vdW  Elec       q    Type
REMARK                         _______ _______ _______ _____ _____    ______ ____
ROOT
ATOM      1  C   UNL     1       7.591  -3.819  24.437  0.00  0.00    +0.169 C 
ATOM      2  CA  UNL     1       8.330  -3.738  23.062  0.00  0.00    +0.191 C 
ATOM      3  C   UNL     1       7.354  -4.883  22.655  0.00  0.00    +0.244 C 
ATOM      4  O   UNL     1       7.128  -5.571  21.687  0.00  0.00    -0.273 OA
ATOM      5  N   UNL     1       6.675  -4.762  23.814  0.00  0.00    -0.249 N 
ATOM      6  CA  UNL     1       5.469  -5.164  24.335  0.00  0.00    +0.125 C 
ATOM      7  C   UNL     1       4.950  -4.508  25.411  0.00  0.00    +0.006 C 
ATOM      8  C   UNL     1       5.584  -3.284  26.043  0.00  0.00    +0.107 C 
ATOM      9  S   UNL     1       6.659  -2.356  24.939  0.00  0.00    -0.131 S 
ENDROOT
BRANCH   2  10
ATOM     10  N   UNL     1       8.184  -2.480  22.274  0.00  0.00    -0.301 N 
ATOM     11  H   UNL     1       7.262  -2.148  22.010  0.00  0.00    +0.150 HD
ATOM     12  C   UNL     1       9.258  -1.637  22.078  0.00  0.00    +0.219 C 
ATOM     13  O   UNL     1      10.404  -1.952  22.394  0.00  0.00    -0.275 OA
BRANCH  12  14
ATOM     14  C   UNL     1       8.904  -0.290  21.477  0.00  0.00    +0.138 C 
BRANCH  14  15
ATOM     15  C   UNL     1       9.299   0.804  22.414  0.00  0.00    -0.001 A 
ATOM     16  S   UNL     1       8.627   0.883  23.988  0.00  0.00    -0.101 S 
ATOM     17  C   UNL     1       9.548   2.268  24.380  0.00  0.00    +0.045 A 
ATOM     18  C   UNL     1      10.347   2.671  23.333  0.00  0.00    +0.008 A 
ATOM     19  C   UNL     1      10.200   1.828  22.195  0.00  0.00    +0.011 A 
ENDBRANCH  14  15
ENDBRANCH  12  14
ENDBRANCH   2  10
BRANCH   6  20
ATOM     20  C   UNL     1       4.680  -6.286  23.677  0.00  0.00    +0.351 C 
ATOM     21  OXT UNL     1       4.601  -7.416  24.140  0.00  0.00    -0.244 OA
BRANCH  20  22
ATOM     22  O   UNL     1       4.100  -6.022  22.491  0.00  0.00    -0.476 OA
ATOM     23  H   UNL     1       4.668  -5.657  21.779  0.00  0.00    +0.295 HD
ENDBRANCH  20  22
ENDBRANCH   6  20
BRANCH   7  24
ATOM     24  C   UNL     1       3.614  -4.851  26.073  0.00  0.00    +0.266 C 
BRANCH  24  25
ATOM     25  O   UNL     1       3.678  -6.158  26.683  0.00  0.00    -0.460 OA
BRANCH  25  26
ATOM     26  C   UNL     1       4.496  -6.288  27.762  0.00  0.00    +0.304 C 
ATOM     27  O   UNL     1       5.433  -7.068  27.860  0.00  0.00    -0.251 OA
ATOM     28  C   UNL     1       4.061  -5.375  28.869  0.00  0.00    +0.136 C 
ENDBRANCH  25  26
ENDBRANCH  24  25
ENDBRANCH   7  24
TORSDOF 8
ENDMDL
