MODEL 1
REMARK VINA RESULT:      -4.2      0.000      0.000
REMARK  Name = 
REMARK  8 active torsions:
REMARK  status: ('A' for Active; 'I' for Inactive)
REMARK    1  A    between atoms: C_1  and  C_2
REMARK    2  A    between atoms: C_2  and  C_4
REMARK    3  A    between atoms: C_2  and  CA_8
REMARK    4  A    between atoms: C_4  and  C_5
REMARK    5  A    between atoms: C_5  and  O_6
REMARK    6  A    between atoms: CA_8  and  N_10
REMARK    7  A    between atoms: CA_8  and  C_11
REMARK    8  A    between atoms: C_11  and  O_12
REMARK                            x       y       z     vdW  Elec       q    Type
REMARK                         _______ _______ _______ _____ _____    ______ ____
ROOT
ATOM      1  CA  UNL     1       7.878  -4.855  26.011  0.00  0.00    +0.164 C 
ENDROOT
BRANCH   1   2
ATOM      2  N   UNL     1       7.977  -5.708  27.232  0.00  0.00    -0.318 NA
ATOM      3  H1  UNL     1       8.802  -6.310  27.126  0.00  0.00    +0.119 HD
ATOM      4  H2  UNL     1       8.216  -5.113  28.026  0.00  0.00    +0.119 HD
ENDBRANCH   1   2
BRANCH   1   6
ATOM      5  C   UNL     1       5.584  -6.000  25.875  0.00  0.00    +0.010 C 
ATOM      6  C   UNL     1       6.675  -5.231  25.110  0.00  0.00    +0.024 C 
BRANCH   6   7
ATOM      7  C   UNL     1       6.090  -3.969  24.444  0.00  0.00    +0.125 C 
BRANCH   7   8
ATOM      8  C   UNL     1       6.076  -4.025  22.934  0.00  0.00    +0.305 C 
ATOM      9  O   UNL     1       5.066  -4.060  22.245  0.00  0.00    -0.251 OA
BRANCH   8  10
ATOM     10  O   UNL     1       7.313  -4.085  22.400  0.00  0.00    -0.481 OA
ATOM     11  H   UNL     1       7.860  -3.289  22.536  0.00  0.00    +0.295 HD
ENDBRANCH   8  10
ENDBRANCH   7   8
ENDBRANCH   6   7
ENDBRANCH   1   6
BRANCH   1  12
ATOM     12  C   UNL     1       9.207  -4.968  25.240  0.00  0.00    +0.322 C 
ATOM     13  OXT UNL     1       9.614  -4.162  24.421  0.00  0.00    -0.249 OA
BRANCH  12  14
ATOM     14  O   UNL     1       9.885  -6.092  25.592  0.00  0.00    -0.480 OA
ATOM     15  H   UNL     1      10.527  -5.833  26.296  0.00  0.00    +0.295 HD
ENDBRANCH  12  14
ENDBRANCH   1  12
TORSDOF 7
ENDMDL
MODEL 2
REMARK VINA RESULT:      -4.2      2.672      3.317
REMARK  Name = 
REMARK  8 active torsions:
REMARK  status: ('A' for Active; 'I' for Inactive)
REMARK    1  A    between atoms: C_1  and  C_2
REMARK    2  A    between atoms: C_2  and  C_4
REMARK    3  A    between atoms: C_2  and  CA_8
REMARK    4  A    between atoms: C_4  and  C_5
REMARK    5  A    between atoms: C_5  and  O_6
REMARK    6  A    between atoms: CA_8  and  N_10
REMARK    7  A    between atoms: CA_8  and  C_11
REMARK    8  A    between atoms: C_11  and  O_12
REMARK                            x       y       z     vdW  Elec       q    Type
REMARK                         _______ _______ _______ _____ _____    ______ ____
ROOT
ATOM      1  CA  UNL     1       8.793  -4.735  24.748  0.00  0.00    +0.164 C 
ENDROOT
BRANCH   1   2
ATOM      2  N   UNL     1      10.163  -5.165  25.159  0.00  0.00    -0.318 NA
ATOM      3  H1  UNL     1      10.422  -5.974  24.582  0.00  0.00    +0.119 HD
ATOM      4  H2  UNL     1      10.829  -4.445  24.872  0.00  0.00    +0.119 HD
ENDBRANCH   1   2
BRANCH   1   6
ATOM      5  C   UNL     1       8.570  -2.537  26.055  0.00  0.00    +0.010 C 
ATOM      6  C   UNL     1       8.645  -3.195  24.667  0.00  0.00    +0.024 C 
BRANCH   6   7
ATOM      7  C   UNL     1       9.793  -2.590  23.835  0.00  0.00    +0.125 C 
BRANCH   7   8
ATOM      8  C   UNL     1       9.341  -1.948  22.544  0.00  0.00    +0.305 C 
ATOM      9  O   UNL     1       8.175  -1.776  22.219  0.00  0.00    -0.251 OA
BRANCH   8  10
ATOM     10  O   UNL     1      10.369  -1.616  21.735  0.00  0.00    -0.481 OA
ATOM     11  H   UNL     1      11.249  -1.637  22.158  0.00  0.00    +0.295 HD
ENDBRANCH   8  10
ENDBRANCH   7   8
ENDBRANCH   6   7
ENDBRANCH   1   6
BRANCH   1  12
ATOM     12  C   UNL     1       7.785  -5.340  25.743  0.00  0.00    +0.322 C 
ATOM     13  OXT UNL     1       6.574  -5.348  25.598  0.00  0.00    -0.249 OA
BRANCH  12  14
ATOM     14  O   UNL     1       8.416  -5.877  26.819  0.00  0.00    -0.480 OA
ATOM     15  H   UNL     1       9.354  -5.570  26.786  0.00  0.00    +0.295 HD
ENDBRANCH  12  14
ENDBRANCH   1  12
TORSDOF 7
ENDMDL
MODEL 3
REMARK VINA RESULT:      -4.1      5.849      6.825
REMARK  Name = 
REMARK  8 active torsions:
REMARK  status: ('A' for Active; 'I' for Inactive)
REMARK    1  A    between atoms: C_1  and  C_2
REMARK    2  A    between atoms: C_2  and  C_4
REMARK    3  A    between atoms: C_2  and  CA_8
REMARK    4  A    between atoms: C_4  and  C_5
REMARK    5  A    between atoms: C_5  and  O_6
REMARK    6  A    between atoms: CA_8  and  N_10
REMARK    7  A    between atoms: CA_8  and  C_11
REMARK    8  A    between atoms: C_11  and  O_12
REMARK                            x       y       z     vdW  Elec       q    Type
REMARK                         _______ _______ _______ _____ _____    ______ ____
ROOT
ATOM      1  CA  UNL     1       8.984   1.336  23.631  0.00  0.00    +0.164 C 
ENDROOT
BRANCH   1   2
ATOM      2  N   UNL     1       9.009   2.209  24.842  0.00  0.00    -0.318 NA
ATOM      3  H1  UNL     1       8.150   2.771  24.839  0.00  0.00    +0.119 HD
ATOM      4  H2  UNL     1       8.905   1.620  25.670  0.00  0.00    +0.119 HD
ENDBRANCH   1   2
BRANCH   1   6
ATOM      5  C   UNL     1      11.238   0.662  24.660  0.00  0.00    +0.010 C 
ATOM      6  C   UNL     1      10.224   0.413  23.530  0.00  0.00    +0.024 C 
BRANCH   6   7
ATOM      7  C   UNL     1       9.790  -1.066  23.501  0.00  0.00    +0.125 C 
BRANCH   7   8
ATOM      8  C   UNL     1       9.183  -1.500  22.186  0.00  0.00    +0.305 C 
ATOM      9  O   UNL     1       8.246  -2.277  22.071  0.00  0.00    -0.251 OA
BRANCH   8  10
ATOM     10  O   UNL     1       9.820  -0.978  21.117  0.00  0.00    -0.481 OA
ATOM     11  H   UNL     1      10.006  -1.612  20.399  0.00  0.00    +0.295 HD
ENDBRANCH   8  10
ENDBRANCH   7   8
ENDBRANCH   6   7
ENDBRANCH   1   6
BRANCH   1  12
ATOM     12  C   UNL     1       8.861   2.243  22.392  0.00  0.00    +0.322 C 
ATOM     13  OXT UNL     1       7.965   3.048  22.198  0.00  0.00    -0.249 OA
BRANCH  12  14
ATOM     14  O   UNL     1       9.888   2.037  21.528  0.00  0.00    -0.480 OA
ATOM     15  H   UNL     1       9.864   2.773  20.870  0.00  0.00    +0.295 HD
ENDBRANCH  12  14
ENDBRANCH   1  12
TORSDOF 7
ENDMDL
MODEL 4
REMARK VINA RESULT:      -4.1      2.905      4.468
REMARK  Name = 
REMARK  8 active torsions:
REMARK  status: ('A' for Active; 'I' for Inactive)
REMARK    1  A    between atoms: C_1  and  C_2
REMARK    2  A    between atoms: C_2  and  C_4
REMARK    3  A    between atoms: C_2  and  CA_8
REMARK    4  A    between atoms: C_4  and  C_5
REMARK    5  A    between atoms: C_5  and  O_6
REMARK    6  A    between atoms: CA_8  and  N_10
REMARK    7  A    between atoms: CA_8  and  C_11
REMARK    8  A    between atoms: C_11  and  O_12
REMARK                            x       y       z     vdW  Elec       q    Type
REMARK                         _______ _______ _______ _____ _____    ______ ____
ROOT
ATOM      1  CA  UNL     1       5.393  -5.635  23.601  0.00  0.00    +0.164 C 
ENDROOT
BRANCH   1   2
ATOM      2  N   UNL     1       4.572  -5.911  22.385  0.00  0.00    -0.318 NA
ATOM      3  H1  UNL     1       5.217  -6.060  21.600  0.00  0.00    +0.119 HD
ATOM      4  H2  UNL     1       4.119  -6.819  22.497  0.00  0.00    +0.119 HD
ENDBRANCH   1   2
BRANCH   1   6
ATOM      5  C   UNL     1       7.252  -5.626  21.831  0.00  0.00    +0.010 C 
ATOM      6  C   UNL     1       6.916  -5.716  23.330  0.00  0.00    +0.024 C 
BRANCH   6   7
ATOM      7  C   UNL     1       7.660  -4.624  24.124  0.00  0.00    +0.125 C 
BRANCH   7   8
ATOM      8  C   UNL     1       8.731  -5.161  25.045  0.00  0.00    +0.305 C 
ATOM      9  O   UNL     1       9.935  -5.044  24.861  0.00  0.00    -0.251 OA
BRANCH   8  10
ATOM     10  O   UNL     1       8.227  -5.844  26.094  0.00  0.00    -0.481 OA
ATOM     11  H   UNL     1       8.309  -5.395  26.956  0.00  0.00    +0.295 HD
ENDBRANCH   8  10
ENDBRANCH   7   8
ENDBRANCH   6   7
ENDBRANCH   1   6
BRANCH   1  12
ATOM     12  C   UNL     1       4.969  -6.630  24.699  0.00  0.00    +0.322 C 
ATOM     13  OXT UNL     1       5.262  -6.539  25.879  0.00  0.00    -0.249 OA
BRANCH  12  14
ATOM     14  O   UNL     1       4.213  -7.635  24.187  0.00  0.00    -0.480 OA
ATOM     15  H   UNL     1       3.832  -8.128  24.952  0.00  0.00    +0.295 HD
ENDBRANCH  12  14
ENDBRANCH   1  12
TORSDOF 7
ENDMDL
MODEL 5
REMARK VINA RESULT:      -4.1      5.241      6.435
REMARK  Name = 
REMARK  8 active torsions:
REMARK  status: ('A' for Active; 'I' for Inactive)
REMARK    1  A    between atoms: C_1  and  C_2
REMARK    2  A    between atoms: C_2  and  C_4
REMARK    3  A    between atoms: C_2  and  CA_8
REMARK    4  A    between atoms: C_4  and  C_5
REMARK    5  A    between atoms: C_5  and  O_6
REMARK    6  A    between atoms: CA_8  and  N_10
REMARK    7  A    between atoms: CA_8  and  C_11
REMARK    8  A    between atoms: C_11  and  O_12
REMARK                            x       y       z     vdW  Elec       q    Type
REMARK                         _______ _______ _______ _____ _____    ______ ____
ROOT
ATOM      1  CA  UNL     1      10.210   0.010  22.219  0.00  0.00    +0.164 C 
ENDROOT
BRANCH   1   2
ATOM      2  N   UNL     1       9.753  -1.148  21.394  0.00  0.00    -0.318 NA
ATOM      3  H1  UNL     1      10.567  -1.506  20.880  0.00  0.00    +0.119 HD
ATOM      4  H2  UNL     1       9.510  -1.918  22.020  0.00  0.00    +0.119 HD
ENDBRANCH   1   2
BRANCH   1   6
ATOM      5  C   UNL     1      10.069   1.044  24.564  0.00  0.00    +0.010 C 
ATOM      6  C   UNL     1      10.100  -0.255  23.741  0.00  0.00    +0.024 C 
BRANCH   6   7
ATOM      7  C   UNL     1       8.865  -1.126  24.045  0.00  0.00    +0.125 C 
BRANCH   7   8
ATOM      8  C   UNL     1       9.200  -2.490  24.602  0.00  0.00    +0.305 C 
ATOM      9  O   UNL     1       8.692  -2.982  25.601  0.00  0.00    -0.251 OA
BRANCH   8  10
ATOM     10  O   UNL     1      10.174  -3.115  23.909  0.00  0.00    -0.481 OA
ATOM     11  H   UNL     1      10.601  -3.857  24.377  0.00  0.00    +0.295 HD
ENDBRANCH   8  10
ENDBRANCH   7   8
ENDBRANCH   6   7
ENDBRANCH   1   6
BRANCH   1  12
ATOM     12  C   UNL     1       9.385   1.244  21.807  0.00  0.00    +0.322 C 
ATOM     13  OXT UNL     1       8.168   1.281  21.731  0.00  0.00    -0.249 OA
BRANCH  12  14
ATOM     14  O   UNL     1      10.188   2.306  21.538  0.00  0.00    -0.480 OA
ATOM     15  H   UNL     1      10.817   2.020  20.833  0.00  0.00    +0.295 HD
ENDBRANCH  12  14
ENDBRANCH   1  12
TORSDOF 7
ENDMDL
MODEL 6
REMARK VINA RESULT:      -4.0      5.606      6.483
REMARK  Name = 
REMARK  8 active torsions:
REMARK  status: ('A' for Active; 'I' for Inactive)
REMARK    1  A    between atoms: C_1  and  C_2
REMARK    2  A    between atoms: C_2  and  C_4
REMARK    3  A    between atoms: C_2  and  CA_8
REMARK    4  A    between atoms: C_4  and  C_5
REMARK    5  A    between atoms: C_5  and  O_6
REMARK    6  A    between atoms: CA_8  and  N_10
REMARK    7  A    between atoms: CA_8  and  C_11
REMARK    8  A    between atoms: C_11  and  O_12
REMARK                            x       y       z     vdW  Elec       q    Type
REMARK                         _______ _______ _______ _____ _____    ______ ____
ROOT
ATOM      1  CA  UNL     1       8.525  -0.985  23.087  0.00  0.00    +0.164 C 
ENDROOT
BRANCH   1   2
ATOM      2  N   UNL     1       7.354  -1.817  22.682  0.00  0.00    -0.318 NA
ATOM      3  H1  UNL     1       6.957  -1.404  21.830  0.00  0.00    +0.119 HD
ATOM      4  H2  UNL     1       7.694  -2.727  22.368  0.00  0.00    +0.119 HD
ENDBRANCH   1   2
BRANCH   1   6
ATOM      5  C   UNL     1       6.847   0.957  23.161  0.00  0.00    +0.010 C 
ATOM      6  C   UNL     1       8.294   0.530  22.860  0.00  0.00    +0.024 C 
BRANCH   6   7
ATOM      7  C   UNL     1       9.293   1.355  23.695  0.00  0.00    +0.125 C 
BRANCH   7   8
ATOM      8  C   UNL     1      10.180   2.259  22.871  0.00  0.00    +0.305 C 
ATOM      9  O   UNL     1      10.912   3.126  23.328  0.00  0.00    -0.251 OA
BRANCH   8  10
ATOM     10  O   UNL     1      10.052   2.052  21.544  0.00  0.00    -0.481 OA
ATOM     11  H   UNL     1       9.275   1.523  21.284  0.00  0.00    +0.295 HD
ENDBRANCH   8  10
ENDBRANCH   7   8
ENDBRANCH   6   7
ENDBRANCH   1   6
BRANCH   1  12
ATOM     12  C   UNL     1       9.757  -1.483  22.307  0.00  0.00    +0.322 C 
ATOM     13  OXT UNL     1      10.592  -2.260  22.738  0.00  0.00    -0.249 OA
BRANCH  12  14
ATOM     14  O   UNL     1       9.801  -0.947  21.060  0.00  0.00    -0.480 OA
ATOM     15  H   UNL     1       9.323  -0.084  21.100  0.00  0.00    +0.295 HD
ENDBRANCH  12  14
ENDBRANCH   1  12
TORSDOF 7
ENDMDL
MODEL 7
REMARK VINA RESULT:      -4.0      2.093      2.588
REMARK  Name = 
REMARK  8 active torsions:
REMARK  status: ('A' for Active; 'I' for Inactive)
REMARK    1  A    between atoms: C_1  and  C_2
REMARK    2  A    between atoms: C_2  and  C_4
REMARK    3  A    between atoms: C_2  and  CA_8
REMARK    4  A    between atoms: C_4  and  C_5
REMARK    5  A    between atoms: C_5  and  O_6
REMARK    6  A    between atoms: CA_8  and  N_10
REMARK    7  A    between atoms: CA_8  and  C_11
REMARK    8  A    between atoms: C_11  and  O_12
REMARK                            x       y       z     vdW  Elec       q    Type
REMARK                         _______ _______ _______ _____ _____    ______ ____
ROOT
ATOM      1  CA  UNL     1       8.327  -5.444  25.250  0.00  0.00    +0.164 C 
ENDROOT
BRANCH   1   2
ATOM      2  N   UNL     1       9.819  -5.505  25.256  0.00  0.00    -0.318 NA
ATOM      3  H1  UNL     1      10.137  -5.464  24.281  0.00  0.00    +0.119 HD
ATOM      4  H2  UNL     1      10.179  -4.639  25.660  0.00  0.00    +0.119 HD
ENDBRANCH   1   2
BRANCH   1   6
ATOM      5  C   UNL     1       8.716  -3.394  23.753  0.00  0.00    +0.010 C 
ATOM      6  C   UNL     1       7.767  -4.550  24.116  0.00  0.00    +0.024 C 
BRANCH   6   7
ATOM      7  C   UNL     1       7.441  -5.402  22.874  0.00  0.00    +0.125 C 
BRANCH   7   8
ATOM      8  C   UNL     1       5.969  -5.457  22.537  0.00  0.00    +0.305 C 
ATOM      9  O   UNL     1       5.324  -4.529  22.069  0.00  0.00    -0.251 OA
BRANCH   8  10
ATOM     10  O   UNL     1       5.402  -6.639  22.855  0.00  0.00    -0.481 OA
ATOM     11  H   UNL     1       6.030  -7.344  23.100  0.00  0.00    +0.295 HD
ENDBRANCH   8  10
ENDBRANCH   7   8
ENDBRANCH   6   7
ENDBRANCH   1   6
BRANCH   1  12
ATOM     12  C   UNL     1       7.865  -4.946  26.633  0.00  0.00    +0.322 C 
ATOM     13  OXT UNL     1       7.507  -3.808  26.885  0.00  0.00    -0.249 OA
BRANCH  12  14
ATOM     14  O   UNL     1       7.900  -5.945  27.553  0.00  0.00    -0.480 OA
ATOM     15  H   UNL     1       7.144  -5.796  28.170  0.00  0.00    +0.295 HD
ENDBRANCH  12  14
ENDBRANCH   1  12
TORSDOF 7
ENDMDL
MODEL 8
REMARK VINA RESULT:      -4.0      2.026      2.385
REMARK  Name = 
REMARK  8 active torsions:
REMARK  status: ('A' for Active; 'I' for Inactive)
REMARK    1  A    between atoms: C_1  and  C_2
REMARK    2  A    between atoms: C_2  and  C_4
REMARK    3  A    between atoms: C_2  and  CA_8
REMARK    4  A    between atoms: C_4  and  C_5
REMARK    5  A    between atoms: C_5  and  O_6
REMARK    6  A    between atoms: CA_8  and  N_10
REMARK    7  A    between atoms: CA_8  and  C_11
REMARK    8  A    between atoms: C_11  and  O_12
REMARK                            x       y       z     vdW  Elec       q    Type
REMARK                         _______ _______ _______ _____ _____    ______ ____
ROOT
ATOM      1  CA  UNL     1       8.447  -4.384  24.330  0.00  0.00    +0.164 C 
ENDROOT
BRANCH   1   2
ATOM      2  N   UNL     1       8.409  -3.008  24.910  0.00  0.00    -0.318 NA
ATOM      3  H1  UNL     1       9.302  -2.552  24.691  0.00  0.00    +0.119 HD
ATOM      4  H2  UNL     1       7.726  -2.455  24.389  0.00  0.00    +0.119 HD
ENDBRANCH   1   2
BRANCH   1   6
ATOM      5  C   UNL     1       5.908  -4.012  24.247  0.00  0.00    +0.010 C 
ATOM      6  C   UNL     1       7.103  -4.802  23.685  0.00  0.00    +0.024 C 
BRANCH   6   7
ATOM      7  C   UNL     1       7.179  -4.663  22.151  0.00  0.00    +0.125 C 
BRANCH   7   8
ATOM      8  C   UNL     1       6.409  -5.725  21.401  0.00  0.00    +0.305 C 
ATOM      9  O   UNL     1       5.951  -5.593  20.275  0.00  0.00    -0.251 OA
BRANCH   8  10
ATOM     10  O   UNL     1       6.223  -6.848  22.126  0.00  0.00    -0.481 OA
ATOM     11  H   UNL     1       6.420  -6.761  23.077  0.00  0.00    +0.295 HD
ENDBRANCH   8  10
ENDBRANCH   7   8
ENDBRANCH   6   7
ENDBRANCH   1   6
BRANCH   1  12
ATOM     12  C   UNL     1       8.857  -5.361  25.448  0.00  0.00    +0.322 C 
ATOM     13  OXT UNL     1       8.121  -5.764  26.333  0.00  0.00    -0.249 OA
BRANCH  12  14
ATOM     14  O   UNL     1      10.159  -5.730  25.327  0.00  0.00    -0.480 OA
ATOM     15  H   UNL     1      10.700  -5.024  25.755  0.00  0.00    +0.295 HD
ENDBRANCH  12  14
ENDBRANCH   1  12
TORSDOF 7
ENDMDL
MODEL 9
REMARK VINA RESULT:      -4.0      4.519      5.491
REMARK  Name = 
REMARK  8 active torsions:
REMARK  status: ('A' for Active; 'I' for Inactive)
REMARK    1  A    between atoms: C_1  and  C_2
REMARK    2  A    between atoms: C_2  and  C_4
REMARK    3  A    between atoms: C_2  and  CA_8
REMARK    4  A    between atoms: C_4  and  C_5
REMARK    5  A    between atoms: C_5  and  O_6
REMARK    6  A    between atoms: CA_8  and  N_10
REMARK    7  A    between atoms: CA_8  and  C_11
REMARK    8  A    between atoms: C_11  and  O_12
REMARK                            x       y       z     vdW  Elec       q    Type
REMARK                         _______ _______ _______ _____ _____    ______ ____
ROOT
ATOM      1  CA  UNL     1       9.832  -2.142  23.842  0.00  0.00    +0.164 C 
ENDROOT
BRANCH   1   2
ATOM      2  N   UNL     1       9.669  -3.564  24.268  0.00  0.00    -0.318 NA
ATOM      3  H1  UNL     1       9.172  -3.566  25.167  0.00  0.00    +0.119 HD
ATOM      4  H2  UNL     1       9.012  -4.021  23.633  0.00  0.00    +0.119 HD
ENDBRANCH   1   2
BRANCH   1   6
ATOM      5  C   UNL     1       8.642  -1.820  26.094  0.00  0.00    +0.010 C 
ATOM      6  C   UNL     1       9.148  -1.143  24.808  0.00  0.00    +0.024 C 
BRANCH   6   7
ATOM      7  C   UNL     1      10.104   0.019  25.142  0.00  0.00    +0.125 C 
BRANCH   7   8
ATOM      8  C   UNL     1       9.936   1.226  24.246  0.00  0.00    +0.305 C 
ATOM      9  O   UNL     1      10.335   1.301  23.093  0.00  0.00    -0.251 OA
BRANCH   8  10
ATOM     10  O   UNL     1       9.335   2.261  24.869  0.00  0.00    -0.481 OA
ATOM     11  H   UNL     1       8.369   2.175  24.970  0.00  0.00    +0.295 HD
ENDBRANCH   8  10
ENDBRANCH   7   8
ENDBRANCH   6   7
ENDBRANCH   1   6
BRANCH   1  12
ATOM     12  C   UNL     1       9.274  -2.005  22.413  0.00  0.00    +0.322 C 
ATOM     13  OXT UNL     1       8.148  -2.319  22.066  0.00  0.00    -0.249 OA
BRANCH  12  14
ATOM     14  O   UNL     1      10.202  -1.481  21.571  0.00  0.00    -0.480 OA
ATOM     15  H   UNL     1      10.962  -1.185  22.127  0.00  0.00    +0.295 HD
ENDBRANCH  12  14
ENDBRANCH   1  12
TORSDOF 7
ENDMDL
