MODEL 1
REMARK VINA RESULT:      -5.4      0.000      0.000
REMARK  Name = 
REMARK  9 active torsions:
REMARK  status: ('A' for Active; 'I' for Inactive)
REMARK    1  A    between atoms: C_1  and  C_2
REMARK    2  A    between atoms: C_3  and  O_4
REMARK    3  A    between atoms: C_5  and  C_6
REMARK    4  A    between atoms: C_8  and  C_9
REMARK    5  A    between atoms: C_9  and  O_10
REMARK    6  A    between atoms: O_10  and  P_11
REMARK    7  A    between atoms: P_11  and  O_12
REMARK    8  A    between atoms: P_11  and  O_13
REMARK    9  A    between atoms: N_16  and  C_17
REMARK                            x       y       z     vdW  Elec       q    Type
REMARK                         _______ _______ _______ _____ _____    ______ ____
ROOT
ATOM      1  C   UNL     1       9.711   0.497  24.600  0.00  0.00    +0.126 C 
ATOM      2  C   UNL     1       9.198  -0.904  24.409  0.00  0.00    +0.223 A 
ATOM      3  N   UNL     1       9.129  -1.421  23.141  0.00  0.00    -0.201 N 
ATOM      4  C   UNL     1       9.556  -0.626  21.970  0.00  0.00    +0.439 C 
ATOM      5  C   UNL     1       8.676  -2.683  22.931  0.00  0.00    +0.315 A 
ATOM      6  C   UNL     1       8.265  -3.526  23.973  0.00  0.00    +0.056 A 
ATOM      7  C   UNL     1       8.349  -3.024  25.270  0.00  0.00    +0.073 A 
ATOM      8  C   UNL     1       8.794  -1.713  25.491  0.00  0.00    +0.195 A 
ENDROOT
BRANCH   7   9
ATOM      9  C   UNL     1       8.076  -3.870  26.457  0.00  0.00    +0.263 C 
ATOM     10  O   UNL     1       8.968  -4.504  27.006  0.00  0.00    -0.296 OA
ENDBRANCH   7   9
BRANCH   8  11
ATOM     11  O   UNL     1       8.828  -1.274  26.789  0.00  0.00    -0.501 OA
ATOM     12  H   UNL     1       8.877  -0.305  26.863  0.00  0.00    +0.292 HD
ENDBRANCH   8  11
BRANCH   6  13
ATOM     13  C   UNL     1       7.889  -4.937  23.595  0.00  0.00    +0.214 C 
BRANCH  13  14
ATOM     14  O   UNL     1       6.539  -5.055  23.178  0.00  0.00    -0.282 OA
BRANCH  14  15
ATOM     15  P   UNL     1       6.225  -5.398  21.512  0.00  0.00    +0.473 P 
ATOM     16  O   UNL     1       5.942  -5.705  20.021  0.00  0.00    -0.228 OA
BRANCH  15  17
ATOM     17  O   UNL     1       5.703  -3.856  21.325  0.00  0.00    -0.303 OA
ATOM     18  H   UNL     1       4.930  -3.846  20.729  0.00  0.00    +0.222 HD
ENDBRANCH  15  17
BRANCH  15  19
ATOM     19  O   UNL     1       4.818  -6.074  22.015  0.00  0.00    -0.303 OA
ATOM     20  H   UNL     1       4.080  -5.591  21.598  0.00  0.00    +0.222 HD
ENDBRANCH  15  19
ENDBRANCH  14  15
ENDBRANCH  13  14
ENDBRANCH   6  13
TORSDOF 7
ENDMDL
MODEL 2
REMARK VINA RESULT:      -5.4      3.153      4.769
REMARK  Name = 
REMARK  9 active torsions:
REMARK  status: ('A' for Active; 'I' for Inactive)
REMARK    1  A    between atoms: C_1  and  C_2
REMARK    2  A    between atoms: C_3  and  O_4
REMARK    3  A    between atoms: C_5  and  C_6
REMARK    4  A    between atoms: C_8  and  C_9
REMARK    5  A    between atoms: C_9  and  O_10
REMARK    6  A    between atoms: O_10  and  P_11
REMARK    7  A    between atoms: P_11  and  O_12
REMARK    8  A    between atoms: P_11  and  O_13
REMARK    9  A    between atoms: N_16  and  C_17
REMARK                            x       y       z     vdW  Elec       q    Type
REMARK                         _______ _______ _______ _____ _____    ______ ____
ROOT
ATOM      1  C   UNL     1       8.564   4.226  23.225  0.00  0.00    +0.126 C 
ATOM      2  C   UNL     1       8.792   2.793  23.624  0.00  0.00    +0.223 A 
ATOM      3  N   UNL     1       8.402   2.379  24.871  0.00  0.00    -0.201 N 
ATOM      4  C   UNL     1       7.759   3.314  25.819  0.00  0.00    +0.439 C 
ATOM      5  C   UNL     1       8.588   1.094  25.265  0.00  0.00    +0.315 A 
ATOM      6  C   UNL     1       9.171   0.124  24.438  0.00  0.00    +0.056 A 
ATOM      7  C   UNL     1       9.553   0.521  23.159  0.00  0.00    +0.073 A 
ATOM      8  C   UNL     1       9.385   1.854  22.755  0.00  0.00    +0.195 A 
ENDROOT
BRANCH   7   9
ATOM      9  C   UNL     1      10.049  -0.446  22.151  0.00  0.00    +0.263 C 
ATOM     10  O   UNL     1       9.300  -0.934  21.313  0.00  0.00    -0.296 OA
ENDBRANCH   7   9
BRANCH   8  11
ATOM     11  O   UNL     1       9.806   2.185  21.494  0.00  0.00    -0.501 OA
ATOM     12  H   UNL     1       9.086   2.193  20.840  0.00  0.00    +0.292 HD
ENDBRANCH   8  11
BRANCH   6  13
ATOM     13  C   UNL     1       9.212  -1.287  24.972  0.00  0.00    +0.214 C 
BRANCH  13  14
ATOM     14  O   UNL     1       8.080  -2.052  24.596  0.00  0.00    -0.282 OA
BRANCH  14  15
ATOM     15  P   UNL     1       8.321  -3.708  24.156  0.00  0.00    +0.473 P 
ATOM     16  O   UNL     1       8.537  -5.190  23.762  0.00  0.00    -0.228 OA
BRANCH  15  17
ATOM     17  O   UNL     1       9.937  -3.437  24.142  0.00  0.00    -0.303 OA
ATOM     18  H   UNL     1      10.408  -4.291  24.117  0.00  0.00    +0.222 HD
ENDBRANCH  15  17
BRANCH  15  19
ATOM     19  O   UNL     1       7.981  -3.250  22.619  0.00  0.00    -0.303 OA
ATOM     20  H   UNL     1       8.024  -4.041  22.048  0.00  0.00    +0.222 HD
ENDBRANCH  15  19
ENDBRANCH  14  15
ENDBRANCH  13  14
ENDBRANCH   6  13
TORSDOF 7
ENDMDL
MODEL 3
REMARK VINA RESULT:      -5.4      3.234      5.394
REMARK  Name = 
REMARK  9 active torsions:
REMARK  status: ('A' for Active; 'I' for Inactive)
REMARK    1  A    between atoms: C_1  and  C_2
REMARK    2  A    between atoms: C_3  and  O_4
REMARK    3  A    between atoms: C_5  and  C_6
REMARK    4  A    between atoms: C_8  and  C_9
REMARK    5  A    between atoms: C_9  and  O_10
REMARK    6  A    between atoms: O_10  and  P_11
REMARK    7  A    between atoms: P_11  and  O_12
REMARK    8  A    between atoms: P_11  and  O_13
REMARK    9  A    between atoms: N_16  and  C_17
REMARK                            x       y       z     vdW  Elec       q    Type
REMARK                         _______ _______ _______ _____ _____    ______ ____
ROOT
ATOM      1  C   UNL     1       8.002  -2.376  22.233  0.00  0.00    +0.126 C 
ATOM      2  C   UNL     1       7.340  -3.358  23.161  0.00  0.00    +0.223 A 
ATOM      3  N   UNL     1       8.051  -3.854  24.223  0.00  0.00    -0.201 N 
ATOM      4  C   UNL     1       9.447  -3.435  24.469  0.00  0.00    +0.439 C 
ATOM      5  C   UNL     1       7.485  -4.737  25.084  0.00  0.00    +0.315 A 
ATOM      6  C   UNL     1       6.163  -5.186  24.952  0.00  0.00    +0.056 A 
ATOM      7  C   UNL     1       5.419  -4.674  23.891  0.00  0.00    +0.073 A 
ATOM      8  C   UNL     1       6.006  -3.779  22.985  0.00  0.00    +0.195 A 
ENDROOT
BRANCH   7   9
ATOM      9  C   UNL     1       3.974  -4.966  23.733  0.00  0.00    +0.263 C 
ATOM     10  O   UNL     1       3.542  -5.524  22.731  0.00  0.00    -0.296 OA
ENDBRANCH   7   9
BRANCH   8  11
ATOM     11  O   UNL     1       5.227  -3.335  21.949  0.00  0.00    -0.501 OA
ATOM     12  H   UNL     1       4.731  -2.526  22.163  0.00  0.00    +0.292 HD
ENDBRANCH   8  11
BRANCH   6  13
ATOM     13  C   UNL     1       5.638  -6.082  26.045  0.00  0.00    +0.214 C 
BRANCH  13  14
ATOM     14  O   UNL     1       5.393  -5.389  27.257  0.00  0.00    -0.282 OA
BRANCH  14  15
ATOM     15  P   UNL     1       5.949  -6.099  28.733  0.00  0.00    +0.473 P 
ATOM     16  O   UNL     1       6.447  -6.736  30.054  0.00  0.00    -0.228 OA
BRANCH  15  17
ATOM     17  O   UNL     1       7.451  -6.194  28.086  0.00  0.00    -0.303 OA
ATOM     18  H   UNL     1       7.475  -5.694  27.248  0.00  0.00    +0.222 HD
ENDBRANCH  15  17
BRANCH  15  19
ATOM     19  O   UNL     1       5.347  -7.515  28.167  0.00  0.00    -0.303 OA
ATOM     20  H   UNL     1       5.663  -8.234  28.746  0.00  0.00    +0.222 HD
ENDBRANCH  15  19
ENDBRANCH  14  15
ENDBRANCH  13  14
ENDBRANCH   6  13
TORSDOF 7
ENDMDL
MODEL 4
REMARK VINA RESULT:      -5.4      3.489      5.058
REMARK  Name = 
REMARK  9 active torsions:
REMARK  status: ('A' for Active; 'I' for Inactive)
REMARK    1  A    between atoms: C_1  and  C_2
REMARK    2  A    between atoms: C_3  and  O_4
REMARK    3  A    between atoms: C_5  and  C_6
REMARK    4  A    between atoms: C_8  and  C_9
REMARK    5  A    between atoms: C_9  and  O_10
REMARK    6  A    between atoms: O_10  and  P_11
REMARK    7  A    between atoms: P_11  and  O_12
REMARK    8  A    between atoms: P_11  and  O_13
REMARK    9  A    between atoms: N_16  and  C_17
REMARK                            x       y       z     vdW  Elec       q    Type
REMARK                         _______ _______ _______ _____ _____    ______ ____
ROOT
ATOM      1  C   UNL     1       5.193  -6.406  26.436  0.00  0.00    +0.126 C 
ATOM      2  C   UNL     1       5.974  -5.583  25.448  0.00  0.00    +0.223 A 
ATOM      3  N   UNL     1       5.330  -5.071  24.352  0.00  0.00    -0.201 N 
ATOM      4  C   UNL     1       3.888  -5.310  24.134  0.00  0.00    +0.439 C 
ATOM      5  C   UNL     1       6.001  -4.321  23.441  0.00  0.00    +0.315 A 
ATOM      6  C   UNL     1       7.365  -4.020  23.563  0.00  0.00    +0.056 A 
ATOM      7  C   UNL     1       8.030  -4.513  24.683  0.00  0.00    +0.073 A 
ATOM      8  C   UNL     1       7.347  -5.309  25.614  0.00  0.00    +0.195 A 
ENDROOT
BRANCH   7   9
ATOM      9  C   UNL     1       9.433  -4.144  24.989  0.00  0.00    +0.263 C 
ATOM     10  O   UNL     1      10.340  -4.964  24.907  0.00  0.00    -0.296 OA
ENDBRANCH   7   9
BRANCH   8  11
ATOM     11  O   UNL     1       8.067  -5.785  26.679  0.00  0.00    -0.501 OA
ATOM     12  H   UNL     1       8.061  -6.756  26.741  0.00  0.00    +0.292 HD
ENDBRANCH   8  11
BRANCH   6  13
ATOM     13  C   UNL     1       7.948  -3.086  22.532  0.00  0.00    +0.214 C 
BRANCH  13  14
ATOM     14  O   UNL     1       7.762  -1.718  22.859  0.00  0.00    -0.282 OA
BRANCH  14  15
ATOM     15  P   UNL     1       8.955  -0.582  22.331  0.00  0.00    +0.473 P 
ATOM     16  O   UNL     1      10.023   0.435  21.859  0.00  0.00    -0.228 OA
BRANCH  15  17
ATOM     17  O   UNL     1       9.736  -1.802  21.566  0.00  0.00    -0.303 OA
ATOM     18  H   UNL     1      10.655  -1.852  21.890  0.00  0.00    +0.222 HD
ENDBRANCH  15  17
BRANCH  15  19
ATOM     19  O   UNL     1       9.632  -0.748  23.815  0.00  0.00    -0.303 OA
ATOM     20  H   UNL     1       8.996  -0.422  24.479  0.00  0.00    +0.222 HD
ENDBRANCH  15  19
ENDBRANCH  14  15
ENDBRANCH  13  14
ENDBRANCH   6  13
TORSDOF 7
ENDMDL
MODEL 5
REMARK VINA RESULT:      -5.3      3.257      5.709
REMARK  Name = 
REMARK  9 active torsions:
REMARK  status: ('A' for Active; 'I' for Inactive)
REMARK    1  A    between atoms: C_1  and  C_2
REMARK    2  A    between atoms: C_3  and  O_4
REMARK    3  A    between atoms: C_5  and  C_6
REMARK    4  A    between atoms: C_8  and  C_9
REMARK    5  A    between atoms: C_9  and  O_10
REMARK    6  A    between atoms: O_10  and  P_11
REMARK    7  A    between atoms: P_11  and  O_12
REMARK    8  A    between atoms: P_11  and  O_13
REMARK    9  A    between atoms: N_16  and  C_17
REMARK                            x       y       z     vdW  Elec       q    Type
REMARK                         _______ _______ _______ _____ _____    ______ ____
ROOT
ATOM      1  C   UNL     1       4.948  -6.445  26.245  0.00  0.00    +0.126 C 
ATOM      2  C   UNL     1       5.714  -5.619  25.249  0.00  0.00    +0.223 A 
ATOM      3  N   UNL     1       6.377  -4.500  25.682  0.00  0.00    -0.201 N 
ATOM      4  C   UNL     1       6.353  -4.102  27.105  0.00  0.00    +0.439 C 
ATOM      5  C   UNL     1       7.083  -3.732  24.813  0.00  0.00    +0.315 A 
ATOM      6  C   UNL     1       7.185  -4.031  23.447  0.00  0.00    +0.056 A 
ATOM      7  C   UNL     1       6.537  -5.177  22.994  0.00  0.00    +0.073 A 
ATOM      8  C   UNL     1       5.787  -5.961  23.882  0.00  0.00    +0.195 A 
ENDROOT
BRANCH   7   9
ATOM      9  C   UNL     1       6.690  -5.667  21.603  0.00  0.00    +0.263 C 
ATOM     10  O   UNL     1       5.752  -5.650  20.814  0.00  0.00    -0.296 OA
ENDBRANCH   7   9
BRANCH   8  11
ATOM     11  O   UNL     1       5.151  -7.060  23.366  0.00  0.00    -0.501 OA
ATOM     12  H   UNL     1       4.662  -6.869  22.547  0.00  0.00    +0.292 HD
ENDBRANCH   8  11
BRANCH   6  13
ATOM     13  C   UNL     1       8.092  -3.148  22.626  0.00  0.00    +0.214 C 
BRANCH  13  14
ATOM     14  O   UNL     1       9.278  -2.785  23.313  0.00  0.00    -0.282 OA
BRANCH  14  15
ATOM     15  P   UNL     1       9.870  -1.171  23.126  0.00  0.00    +0.473 P 
ATOM     16  O   UNL     1      10.400   0.275  22.958  0.00  0.00    -0.228 OA
BRANCH  15  17
ATOM     17  O   UNL     1       8.330  -0.666  22.889  0.00  0.00    -0.303 OA
ATOM     18  H   UNL     1       7.764  -1.002  23.610  0.00  0.00    +0.222 HD
ENDBRANCH  15  17
BRANCH  15  19
ATOM     19  O   UNL     1      10.234  -1.584  21.582  0.00  0.00    -0.303 OA
ATOM     20  H   UNL     1      11.201  -1.695  21.515  0.00  0.00    +0.222 HD
ENDBRANCH  15  19
ENDBRANCH  14  15
ENDBRANCH  13  14
ENDBRANCH   6  13
TORSDOF 7
ENDMDL
MODEL 6
REMARK VINA RESULT:      -5.2      3.480      5.030
REMARK  Name = 
REMARK  9 active torsions:
REMARK  status: ('A' for Active; 'I' for Inactive)
REMARK    1  A    between atoms: C_1  and  C_2
REMARK    2  A    between atoms: C_3  and  O_4
REMARK    3  A    between atoms: C_5  and  C_6
REMARK    4  A    between atoms: C_8  and  C_9
REMARK    5  A    between atoms: C_9  and  O_10
REMARK    6  A    between atoms: O_10  and  P_11
REMARK    7  A    between atoms: P_11  and  O_12
REMARK    8  A    between atoms: P_11  and  O_13
REMARK    9  A    between atoms: N_16  and  C_17
REMARK                            x       y       z     vdW  Elec       q    Type
REMARK                         _______ _______ _______ _____ _____    ______ ____
ROOT
ATOM      1  C   UNL     1       4.345  -6.393  23.367  0.00  0.00    +0.126 C 
ATOM      2  C   UNL     1       5.619  -5.705  23.775  0.00  0.00    +0.223 A 
ATOM      3  N   UNL     1       6.476  -5.260  22.801  0.00  0.00    -0.201 N 
ATOM      4  C   UNL     1       6.162  -5.440  21.368  0.00  0.00    +0.439 C 
ATOM      5  C   UNL     1       7.632  -4.631  23.131  0.00  0.00    +0.315 A 
ATOM      6  C   UNL     1       8.016  -4.393  24.458  0.00  0.00    +0.056 A 
ATOM      7  C   UNL     1       7.147  -4.819  25.459  0.00  0.00    +0.073 A 
ATOM      8  C   UNL     1       5.962  -5.490  25.126  0.00  0.00    +0.195 A 
ENDROOT
BRANCH   7   9
ATOM      9  C   UNL     1       7.379  -4.499  26.889  0.00  0.00    +0.263 C 
ATOM     10  O   UNL     1       7.590  -5.381  27.713  0.00  0.00    -0.296 OA
ENDBRANCH   7   9
BRANCH   8  11
ATOM     11  O   UNL     1       5.164  -5.907  26.160  0.00  0.00    -0.501 OA
ATOM     12  H   UNL     1       4.861  -6.826  26.062  0.00  0.00    +0.292 HD
ENDBRANCH   8  11
BRANCH   6  13
ATOM     13  C   UNL     1       9.274  -3.588  24.667  0.00  0.00    +0.214 C 
BRANCH  13  14
ATOM     14  O   UNL     1       9.804  -3.069  23.458  0.00  0.00    -0.282 OA
BRANCH  14  15
ATOM     15  P   UNL     1      10.054  -1.362  23.340  0.00  0.00    +0.473 P 
ATOM     16  O   UNL     1      10.278   0.167  23.234  0.00  0.00    -0.228 OA
BRANCH  15  17
ATOM     17  O   UNL     1       8.430  -1.161  23.251  0.00  0.00    -0.303 OA
ATOM     18  H   UNL     1       8.040  -1.900  22.746  0.00  0.00    +0.222 HD
ENDBRANCH  15  17
BRANCH  15  19
ATOM     19  O   UNL     1      10.359  -1.612  21.748  0.00  0.00    -0.303 OA
ATOM     20  H   UNL     1      10.159  -2.545  21.542  0.00  0.00    +0.222 HD
ENDBRANCH  15  19
ENDBRANCH  14  15
ENDBRANCH  13  14
ENDBRANCH   6  13
TORSDOF 7
ENDMDL
MODEL 7
REMARK VINA RESULT:      -5.2      3.279      4.016
REMARK  Name = 
REMARK  9 active torsions:
REMARK  status: ('A' for Active; 'I' for Inactive)
REMARK    1  A    between atoms: C_1  and  C_2
REMARK    2  A    between atoms: C_3  and  O_4
REMARK    3  A    between atoms: C_5  and  C_6
REMARK    4  A    between atoms: C_8  and  C_9
REMARK    5  A    between atoms: C_9  and  O_10
REMARK    6  A    between atoms: O_10  and  P_11
REMARK    7  A    between atoms: P_11  and  O_12
REMARK    8  A    between atoms: P_11  and  O_13
REMARK    9  A    between atoms: N_16  and  C_17
REMARK                            x       y       z     vdW  Elec       q    Type
REMARK                         _______ _______ _______ _____ _____    ______ ____
ROOT
ATOM      1  C   UNL     1       9.367  -0.226  23.272  0.00  0.00    +0.126 C 
ATOM      2  C   UNL     1       8.571  -1.308  23.949  0.00  0.00    +0.223 A 
ATOM      3  N   UNL     1       7.299  -1.028  24.379  0.00  0.00    -0.201 N 
ATOM      4  C   UNL     1       6.704   0.310  24.181  0.00  0.00    +0.439 C 
ATOM      5  C   UNL     1       6.549  -1.980  24.989  0.00  0.00    +0.315 A 
ATOM      6  C   UNL     1       7.011  -3.286  25.209  0.00  0.00    +0.056 A 
ATOM      7  C   UNL     1       8.292  -3.593  24.758  0.00  0.00    +0.073 A 
ATOM      8  C   UNL     1       9.081  -2.607  24.148  0.00  0.00    +0.195 A 
ENDROOT
BRANCH   7   9
ATOM      9  C   UNL     1       8.832  -4.973  24.809  0.00  0.00    +0.263 C 
ATOM     10  O   UNL     1       9.663  -5.302  25.648  0.00  0.00    -0.296 OA
ENDBRANCH   7   9
BRANCH   8  11
ATOM     11  O   UNL     1      10.342  -2.969  23.752  0.00  0.00    -0.501 OA
ATOM     12  H   UNL     1      10.978  -2.234  23.783  0.00  0.00    +0.292 HD
ENDBRANCH   8  11
BRANCH   6  13
ATOM     13  C   UNL     1       6.026  -4.263  25.801  0.00  0.00    +0.214 C 
BRANCH  13  14
ATOM     14  O   UNL     1       6.124  -4.358  27.213  0.00  0.00    -0.282 OA
BRANCH  14  15
ATOM     15  P   UNL     1       6.055  -5.929  27.933  0.00  0.00    +0.473 P 
ATOM     16  O   UNL     1       5.993  -7.336  28.578  0.00  0.00    -0.228 OA
BRANCH  15  17
ATOM     17  O   UNL     1       7.687  -6.017  27.826  0.00  0.00    -0.303 OA
ATOM     18  H   UNL     1       8.086  -5.621  28.624  0.00  0.00    +0.222 HD
ENDBRANCH  15  17
BRANCH  15  19
ATOM     19  O   UNL     1       5.679  -6.493  26.440  0.00  0.00    -0.303 OA
ATOM     20  H   UNL     1       4.718  -6.662  26.410  0.00  0.00    +0.222 HD
ENDBRANCH  15  19
ENDBRANCH  14  15
ENDBRANCH  13  14
ENDBRANCH   6  13
TORSDOF 7
ENDMDL
MODEL 8
REMARK VINA RESULT:      -5.0      3.465      5.103
REMARK  Name = 
REMARK  9 active torsions:
REMARK  status: ('A' for Active; 'I' for Inactive)
REMARK    1  A    between atoms: C_1  and  C_2
REMARK    2  A    between atoms: C_3  and  O_4
REMARK    3  A    between atoms: C_5  and  C_6
REMARK    4  A    between atoms: C_8  and  C_9
REMARK    5  A    between atoms: C_9  and  O_10
REMARK    6  A    between atoms: O_10  and  P_11
REMARK    7  A    between atoms: P_11  and  O_12
REMARK    8  A    between atoms: P_11  and  O_13
REMARK    9  A    between atoms: N_16  and  C_17
REMARK                            x       y       z     vdW  Elec       q    Type
REMARK                         _______ _______ _______ _____ _____    ______ ____
ROOT
ATOM      1  C   UNL     1       5.463  -4.867  28.142  0.00  0.00    +0.126 C 
ATOM      2  C   UNL     1       6.427  -4.127  27.255  0.00  0.00    +0.223 A 
ATOM      3  N   UNL     1       6.191  -2.807  26.970  0.00  0.00    -0.201 N 
ATOM      4  C   UNL     1       5.014  -2.106  27.525  0.00  0.00    +0.439 C 
ATOM      5  C   UNL     1       7.041  -2.106  26.178  0.00  0.00    +0.315 A 
ATOM      6  C   UNL     1       8.195  -2.671  25.616  0.00  0.00    +0.056 A 
ATOM      7  C   UNL     1       8.462  -4.005  25.913  0.00  0.00    +0.073 A 
ATOM      8  C   UNL     1       7.575  -4.741  26.712  0.00  0.00    +0.195 A 
ENDROOT
BRANCH   7   9
ATOM      9  C   UNL     1       9.721  -4.666  25.493  0.00  0.00    +0.263 C 
ATOM     10  O   UNL     1       9.738  -5.484  24.581  0.00  0.00    -0.296 OA
ENDBRANCH   7   9
BRANCH   8  11
ATOM     11  O   UNL     1       7.884  -6.056  26.944  0.00  0.00    -0.501 OA
ATOM     12  H   UNL     1       8.807  -6.275  26.729  0.00  0.00    +0.292 HD
ENDBRANCH   8  11
BRANCH   6  13
ATOM     13  C   UNL     1       9.100  -1.741  24.847  0.00  0.00    +0.214 C 
BRANCH  13  14
ATOM     14  O   UNL     1       9.054  -1.960  23.446  0.00  0.00    -0.282 OA
BRANCH  14  15
ATOM     15  P   UNL     1       9.349  -0.617  22.398  0.00  0.00    +0.473 P 
ATOM     16  O   UNL     1       9.613   0.586  21.459  0.00  0.00    -0.228 OA
BRANCH  15  17
ATOM     17  O   UNL     1      10.187  -1.615  21.404  0.00  0.00    -0.303 OA
ATOM     18  H   UNL     1      11.126  -1.619  21.667  0.00  0.00    +0.222 HD
ENDBRANCH  15  17
BRANCH  15  19
ATOM     19  O   UNL     1      10.565  -0.208  23.419  0.00  0.00    -0.303 OA
ATOM     20  H   UNL     1      10.463   0.734  23.653  0.00  0.00    +0.222 HD
ENDBRANCH  15  19
ENDBRANCH  14  15
ENDBRANCH  13  14
ENDBRANCH   6  13
TORSDOF 7
ENDMDL
MODEL 9
REMARK VINA RESULT:      -4.9      2.277      4.208
REMARK  Name = 
REMARK  9 active torsions:
REMARK  status: ('A' for Active; 'I' for Inactive)
REMARK    1  A    between atoms: C_1  and  C_2
REMARK    2  A    between atoms: C_3  and  O_4
REMARK    3  A    between atoms: C_5  and  C_6
REMARK    4  A    between atoms: C_8  and  C_9
REMARK    5  A    between atoms: C_9  and  O_10
REMARK    6  A    between atoms: O_10  and  P_11
REMARK    7  A    between atoms: P_11  and  O_12
REMARK    8  A    between atoms: P_11  and  O_13
REMARK    9  A    between atoms: N_16  and  C_17
REMARK                            x       y       z     vdW  Elec       q    Type
REMARK                         _______ _______ _______ _____ _____    ______ ____
ROOT
ATOM      1  C   UNL     1       7.673  -0.271  22.741  0.00  0.00    +0.126 C 
ATOM      2  C   UNL     1       8.070  -1.583  23.362  0.00  0.00    +0.223 A 
ATOM      3  N   UNL     1       8.917  -1.579  24.440  0.00  0.00    -0.201 N 
ATOM      4  C   UNL     1       9.436  -0.312  24.998  0.00  0.00    +0.439 C 
ATOM      5  C   UNL     1       9.294  -2.742  25.029  0.00  0.00    +0.315 A 
ATOM      6  C   UNL     1       8.846  -3.996  24.590  0.00  0.00    +0.056 A 
ATOM      7  C   UNL     1       7.966  -4.016  23.510  0.00  0.00    +0.073 A 
ATOM      8  C   UNL     1       7.592  -2.820  22.882  0.00  0.00    +0.195 A 
ENDROOT
BRANCH   7   9
ATOM      9  C   UNL     1       7.319  -5.268  23.049  0.00  0.00    +0.263 C 
ATOM     10  O   UNL     1       6.136  -5.495  23.276  0.00  0.00    -0.296 OA
ENDBRANCH   7   9
BRANCH   8  11
ATOM     11  O   UNL     1       6.745  -2.913  21.809  0.00  0.00    -0.501 OA
ATOM     12  H   UNL     1       6.067  -3.603  21.916  0.00  0.00    +0.292 HD
ENDBRANCH   8  11
BRANCH   6  13
ATOM     13  C   UNL     1       9.263  -5.191  25.410  0.00  0.00    +0.214 C 
BRANCH  13  14
ATOM     14  O   UNL     1       8.160  -5.917  25.927  0.00  0.00    -0.282 OA
BRANCH  14  15
ATOM     15  P   UNL     1       7.141  -5.141  27.089  0.00  0.00    +0.473 P 
ATOM     16  O   UNL     1       6.228  -4.447  28.130  0.00  0.00    -0.228 OA
BRANCH  15  17
ATOM     17  O   UNL     1       7.437  -6.374  28.127  0.00  0.00    -0.303 OA
ATOM     18  H   UNL     1       6.662  -6.504  28.706  0.00  0.00    +0.222 HD
ENDBRANCH  15  17
BRANCH  15  19
ATOM     19  O   UNL     1       5.877  -5.800  26.279  0.00  0.00    -0.303 OA
ATOM     20  H   UNL     1       6.112  -5.848  25.334  0.00  0.00    +0.222 HD
ENDBRANCH  15  19
ENDBRANCH  14  15
ENDBRANCH  13  14
ENDBRANCH   6  13
TORSDOF 7
ENDMDL
