MODEL 1
REMARK VINA RESULT:      -7.3      0.000      0.000
REMARK  Name = 
REMARK  12 active torsions:
REMARK  status: ('A' for Active; 'I' for Inactive)
REMARK    1  A    between atoms: C_2  and  C_3
REMARK    2  A    between atoms: C_2  and  N_4
REMARK    3  A    between atoms: C_2  and  C_6
REMARK    4  A    between atoms: N_4  and  C_5
REMARK    5  A    between atoms: N_8  and  C_9
REMARK    6  A    between atoms: C_9  and  C_11
REMARK    7  A    between atoms: C_9  and  C_33
REMARK    8  A    between atoms: C_17  and  C_19
REMARK    9  A    between atoms: N_21  and  C_22
REMARK   10  A    between atoms: C_33  and  C_34
REMARK   11  A    between atoms: C_33  and  C_35
REMARK   12  A    between atoms: C_33  and  C_36
REMARK                            x       y       z     vdW  Elec       q    Type
REMARK                         _______ _______ _______ _____ _____    ______ ____
ROOT
ATOM      1  C   UNL     1       8.524   0.726  25.174  0.00  0.00    +0.237 C 
ATOM      2  N   UNL     1       7.580   0.914  26.157  0.00  0.00    -0.288 N 
ATOM      3  C   UNL     1       7.512   0.010  27.314  0.00  0.00    +0.162 C 
ATOM      4  C   UNL     1       6.855   0.834  28.430  0.00  0.00    +0.033 C 
ATOM      5  C   UNL     1       6.660   2.231  27.845  0.00  0.00    +0.021 C 
ATOM      6  C   UNL     1       6.672   2.030  26.336  0.00  0.00    +0.109 C 
ATOM      7  O   UNL     1       9.381  -0.151  25.348  0.00  0.00    -0.274 OA
ENDROOT
BRANCH   3   8
ATOM      8  C   UNL     1       6.707  -1.281  26.993  0.00  0.00    +0.234 C 
ATOM      9  N   UNL     1       7.456  -2.309  26.463  0.00  0.00    -0.307 N 
ATOM     10  H   UNL     1       8.446  -2.141  26.296  0.00  0.00    +0.149 HD
ATOM     11  O   UNL     1       5.513  -1.414  27.258  0.00  0.00    -0.274 OA
BRANCH   9  12
ATOM     12  C   UNL     1       6.911  -3.634  26.193  0.00  0.00    +0.103 C 
ATOM     13  C   UNL     1       6.689  -3.817  24.705  0.00  0.00    -0.024 A 
ATOM     14  C   UNL     1       5.583  -3.197  24.098  0.00  0.00    +0.006 A 
ATOM     15  C   UNL     1       5.346  -3.336  22.732  0.00  0.00    +0.000 A 
ATOM     16  C   UNL     1       6.214  -4.096  21.952  0.00  0.00    +0.000 A 
ATOM     17  C   UNL     1       7.318  -4.715  22.538  0.00  0.00    +0.004 A 
ATOM     18  C   UNL     1       7.571  -4.579  23.913  0.00  0.00    -0.042 A 
ATOM     19  C   UNL     1       8.745  -5.313  24.510  0.00  0.00    +0.035 C 
ATOM     20  C   UNL     1       9.092  -4.877  25.931  0.00  0.00    +0.007 C 
ATOM     21  C   UNL     1       7.832  -4.718  26.776  0.00  0.00    +0.027 C 
ENDBRANCH   9  12
ENDBRANCH   3   8
BRANCH   1  22
ATOM     22  C   UNL     1       8.518   1.621  23.891  0.00  0.00    +0.164 C 
BRANCH  22  24
ATOM     23  C   UNL     1       9.324   3.999  23.944  0.00  0.00    +0.230 C 
ATOM     24  N   UNL     1       9.574   2.641  23.990  0.00  0.00    -0.302 N 
ATOM     25  H   UNL     1      10.552   2.362  23.949  0.00  0.00    +0.150 HD
ATOM     26  O   UNL     1       8.181   4.455  23.943  0.00  0.00    -0.274 OA
BRANCH  23  27
ATOM     27  C   UNL     1      10.598   4.901  23.964  0.00  0.00    +0.137 C 
ATOM     28  C   UNL     1      10.214   6.367  23.735  0.00  0.00    +0.034 C 
BRANCH  27  29
ATOM     29  N   UNL     1      11.575   4.395  22.966  0.00  0.00    -0.309 NA
ATOM     30  H   UNL     1      11.145   4.446  22.040  0.00  0.00    +0.122 HD
ATOM     31  C   UNL     1      12.811   5.174  22.944  0.00  0.00    +0.101 C 
ENDBRANCH  27  29
ENDBRANCH  23  27
ENDBRANCH  22  24
BRANCH  22  32
ATOM     32  C   UNL     1       8.651   0.750  22.576  0.00  0.00    -0.011 C 
ATOM     33  C   UNL     1       7.930  -0.615  22.654  0.00  0.00    +0.013 C 
ATOM     34  C   UNL     1      10.126   0.450  22.234  0.00  0.00    +0.013 C 
ATOM     35  C   UNL     1       8.075   1.551  21.389  0.00  0.00    +0.013 C 
ENDBRANCH  22  32
ENDBRANCH   1  22
TORSDOF 7
ENDMDL
MODEL 2
REMARK VINA RESULT:      -7.1      2.900      5.035
REMARK  Name = 
REMARK  12 active torsions:
REMARK  status: ('A' for Active; 'I' for Inactive)
REMARK    1  A    between atoms: C_2  and  C_3
REMARK    2  A    between atoms: C_2  and  N_4
REMARK    3  A    between atoms: C_2  and  C_6
REMARK    4  A    between atoms: N_4  and  C_5
REMARK    5  A    between atoms: N_8  and  C_9
REMARK    6  A    between atoms: C_9  and  C_11
REMARK    7  A    between atoms: C_9  and  C_33
REMARK    8  A    between atoms: C_17  and  C_19
REMARK    9  A    between atoms: N_21  and  C_22
REMARK   10  A    between atoms: C_33  and  C_34
REMARK   11  A    between atoms: C_33  and  C_35
REMARK   12  A    between atoms: C_33  and  C_36
REMARK                            x       y       z     vdW  Elec       q    Type
REMARK                         _______ _______ _______ _____ _____    ______ ____
ROOT
ATOM      1  C   UNL     1       7.089  -0.366  23.792  0.00  0.00    +0.237 C 
ATOM      2  N   UNL     1       8.450  -0.551  23.871  0.00  0.00    -0.288 N 
ATOM      3  C   UNL     1       9.127  -1.516  22.992  0.00  0.00    +0.162 C 
ATOM      4  C   UNL     1      10.575  -1.020  22.891  0.00  0.00    +0.033 C 
ATOM      5  C   UNL     1      10.615   0.288  23.677  0.00  0.00    +0.021 C 
ATOM      6  C   UNL     1       9.424   0.214  24.623  0.00  0.00    +0.109 C 
ATOM      7  O   UNL     1       6.472  -0.946  22.890  0.00  0.00    -0.274 OA
ENDROOT
BRANCH   3   8
ATOM      8  C   UNL     1       9.045  -2.965  23.552  0.00  0.00    +0.234 C 
ATOM      9  N   UNL     1       7.924  -3.668  23.167  0.00  0.00    -0.307 N 
ATOM     10  H   UNL     1       7.237  -3.190  22.588  0.00  0.00    +0.149 HD
ATOM     11  O   UNL     1       9.940  -3.480  24.220  0.00  0.00    -0.274 OA
BRANCH   9  12
ATOM     12  C   UNL     1       7.713  -5.071  23.496  0.00  0.00    +0.103 C 
ATOM     13  C   UNL     1       6.707  -5.201  24.624  0.00  0.00    -0.024 A 
ATOM     14  C   UNL     1       7.114  -4.914  25.938  0.00  0.00    +0.006 A 
ATOM     15  C   UNL     1       6.219  -5.015  27.001  0.00  0.00    +0.000 A 
ATOM     16  C   UNL     1       4.903  -5.402  26.765  0.00  0.00    +0.000 A 
ATOM     17  C   UNL     1       4.482  -5.687  25.466  0.00  0.00    +0.004 A 
ATOM     18  C   UNL     1       5.372  -5.585  24.385  0.00  0.00    -0.042 A 
ATOM     19  C   UNL     1       4.886  -5.958  23.006  0.00  0.00    +0.035 C 
ATOM     20  C   UNL     1       5.831  -5.544  21.882  0.00  0.00    +0.007 C 
ATOM     21  C   UNL     1       7.280  -5.854  22.247  0.00  0.00    +0.027 C 
ENDBRANCH   9  12
ENDBRANCH   3   8
BRANCH   1  22
ATOM     22  C   UNL     1       6.360   0.577  24.807  0.00  0.00    +0.164 C 
BRANCH  22  24
ATOM     23  C   UNL     1       5.728   2.598  23.457  0.00  0.00    +0.230 C 
ATOM     24  N   UNL     1       5.388   1.420  24.094  0.00  0.00    -0.302 N 
ATOM     25  H   UNL     1       4.393   1.224  24.177  0.00  0.00    +0.150 HD
ATOM     26  O   UNL     1       6.896   2.963  23.335  0.00  0.00    -0.274 OA
BRANCH  23  27
ATOM     27  C   UNL     1       4.525   3.386  22.851  0.00  0.00    +0.137 C 
ATOM     28  C   UNL     1       4.605   4.864  23.246  0.00  0.00    +0.034 C 
BRANCH  27  29
ATOM     29  N   UNL     1       3.253   2.742  23.270  0.00  0.00    -0.309 NA
ATOM     30  H   UNL     1       3.415   2.258  24.156  0.00  0.00    +0.122 HD
ATOM     31  C   UNL     1       2.171   3.706  23.461  0.00  0.00    +0.101 C 
ENDBRANCH  27  29
ENDBRANCH  23  27
ENDBRANCH  22  24
BRANCH  22  32
ATOM     32  C   UNL     1       5.690  -0.244  25.983  0.00  0.00    -0.011 C 
ATOM     33  C   UNL     1       5.162  -1.632  25.555  0.00  0.00    +0.013 C 
ATOM     34  C   UNL     1       4.494   0.512  26.599  0.00  0.00    +0.013 C 
ATOM     35  C   UNL     1       6.726  -0.430  27.112  0.00  0.00    +0.013 C 
ENDBRANCH  22  32
ENDBRANCH   1  22
TORSDOF 7
ENDMDL
MODEL 3
REMARK VINA RESULT:      -6.9      2.398      4.701
REMARK  Name = 
REMARK  12 active torsions:
REMARK  status: ('A' for Active; 'I' for Inactive)
REMARK    1  A    between atoms: C_2  and  C_3
REMARK    2  A    between atoms: C_2  and  N_4
REMARK    3  A    between atoms: C_2  and  C_6
REMARK    4  A    between atoms: N_4  and  C_5
REMARK    5  A    between atoms: N_8  and  C_9
REMARK    6  A    between atoms: C_9  and  C_11
REMARK    7  A    between atoms: C_9  and  C_33
REMARK    8  A    between atoms: C_17  and  C_19
REMARK    9  A    between atoms: N_21  and  C_22
REMARK   10  A    between atoms: C_33  and  C_34
REMARK   11  A    between atoms: C_33  and  C_35
REMARK   12  A    between atoms: C_33  and  C_36
REMARK                            x       y       z     vdW  Elec       q    Type
REMARK                         _______ _______ _______ _____ _____    ______ ____
ROOT
ATOM      1  C   UNL     1       7.269   0.222  24.275  0.00  0.00    +0.237 C 
ATOM      2  N   UNL     1       8.421   0.182  23.524  0.00  0.00    -0.288 N 
ATOM      3  C   UNL     1       8.501  -0.653  22.316  0.00  0.00    +0.162 C 
ATOM      4  C   UNL     1       9.579   0.003  21.445  0.00  0.00    +0.033 C 
ATOM      5  C   UNL     1      10.002   1.263  22.197  0.00  0.00    +0.021 C 
ATOM      6  C   UNL     1       9.607   1.007  23.645  0.00  0.00    +0.109 C 
ATOM      7  O   UNL     1       6.271  -0.372  23.845  0.00  0.00    -0.274 OA
ENDROOT
BRANCH   3   8
ATOM      8  C   UNL     1       8.846  -2.130  22.657  0.00  0.00    +0.234 C 
ATOM      9  N   UNL     1       7.759  -2.972  22.737  0.00  0.00    -0.307 N 
ATOM     10  H   UNL     1       6.833  -2.570  22.603  0.00  0.00    +0.149 HD
ATOM     11  O   UNL     1      10.000  -2.543  22.770  0.00  0.00    -0.274 OA
BRANCH   9  12
ATOM     12  C   UNL     1       7.878  -4.410  22.940  0.00  0.00    +0.103 C 
ATOM     13  C   UNL     1       7.640  -4.757  24.397  0.00  0.00    -0.024 A 
ATOM     14  C   UNL     1       8.656  -4.502  25.334  0.00  0.00    +0.006 A 
ATOM     15  C   UNL     1       8.475  -4.801  26.683  0.00  0.00    +0.000 A 
ATOM     16  C   UNL     1       7.273  -5.357  27.115  0.00  0.00    +0.000 A 
ATOM     17  C   UNL     1       6.254  -5.614  26.197  0.00  0.00    +0.004 A 
ATOM     18  C   UNL     1       6.422  -5.313  24.836  0.00  0.00    -0.042 A 
ATOM     19  C   UNL     1       5.313  -5.660  23.874  0.00  0.00    +0.035 C 
ATOM     20  C   UNL     1       5.477  -5.042  22.488  0.00  0.00    +0.007 C 
ATOM     21  C   UNL     1       6.919  -5.163  22.005  0.00  0.00    +0.027 C 
ENDBRANCH   9  12
ENDBRANCH   3   8
BRANCH   1  22
ATOM     22  C   UNL     1       7.229   1.021  25.620  0.00  0.00    +0.164 C 
BRANCH  22  24
ATOM     23  C   UNL     1       6.981   3.512  25.414  0.00  0.00    +0.230 C 
ATOM     24  N   UNL     1       6.431   2.245  25.448  0.00  0.00    -0.302 N 
ATOM     25  H   UNL     1       5.415   2.197  25.494  0.00  0.00    +0.150 HD
ATOM     26  O   UNL     1       8.197   3.698  25.401  0.00  0.00    -0.274 OA
BRANCH  23  27
ATOM     27  C   UNL     1       5.944   4.675  25.326  0.00  0.00    +0.137 C 
ATOM     28  C   UNL     1       4.571   4.132  24.913  0.00  0.00    +0.034 C 
BRANCH  27  29
ATOM     29  N   UNL     1       6.454   5.721  24.403  0.00  0.00    -0.309 NA
ATOM     30  H   UNL     1       7.470   5.773  24.507  0.00  0.00    +0.122 HD
ATOM     31  C   UNL     1       6.147   5.435  23.003  0.00  0.00    +0.101 C 
ENDBRANCH  27  29
ENDBRANCH  23  27
ENDBRANCH  22  24
BRANCH  22  32
ATOM     32  C   UNL     1       6.699   0.125  26.812  0.00  0.00    -0.011 C 
ATOM     33  C   UNL     1       7.122  -1.358  26.716  0.00  0.00    +0.013 C 
ATOM     34  C   UNL     1       5.158   0.139  26.897  0.00  0.00    +0.013 C 
ATOM     35  C   UNL     1       7.222   0.708  28.142  0.00  0.00    +0.013 C 
ENDBRANCH  22  32
ENDBRANCH   1  22
TORSDOF 7
ENDMDL
MODEL 4
REMARK VINA RESULT:      -6.9      2.448      8.273
REMARK  Name = 
REMARK  12 active torsions:
REMARK  status: ('A' for Active; 'I' for Inactive)
REMARK    1  A    between atoms: C_2  and  C_3
REMARK    2  A    between atoms: C_2  and  N_4
REMARK    3  A    between atoms: C_2  and  C_6
REMARK    4  A    between atoms: N_4  and  C_5
REMARK    5  A    between atoms: N_8  and  C_9
REMARK    6  A    between atoms: C_9  and  C_11
REMARK    7  A    between atoms: C_9  and  C_33
REMARK    8  A    between atoms: C_17  and  C_19
REMARK    9  A    between atoms: N_21  and  C_22
REMARK   10  A    between atoms: C_33  and  C_34
REMARK   11  A    between atoms: C_33  and  C_35
REMARK   12  A    between atoms: C_33  and  C_36
REMARK                            x       y       z     vdW  Elec       q    Type
REMARK                         _______ _______ _______ _____ _____    ______ ____
ROOT
ATOM      1  C   UNL     1       6.468  -2.492  25.091  0.00  0.00    +0.237 C 
ATOM      2  N   UNL     1       6.836  -1.262  25.584  0.00  0.00    -0.288 N 
ATOM      3  C   UNL     1       6.211  -0.032  25.075  0.00  0.00    +0.162 C 
ATOM      4  C   UNL     1       6.355   0.991  26.209  0.00  0.00    +0.033 C 
ATOM      5  C   UNL     1       6.999   0.231  27.366  0.00  0.00    +0.021 C 
ATOM      6  C   UNL     1       7.690  -0.961  26.716  0.00  0.00    +0.109 C 
ATOM      7  O   UNL     1       5.522  -2.542  24.294  0.00  0.00    -0.274 OA
ENDROOT
BRANCH   3   8
ATOM      8  C   UNL     1       6.883   0.457  23.761  0.00  0.00    +0.234 C 
ATOM      9  N   UNL     1       7.639   1.602  23.892  0.00  0.00    -0.307 N 
ATOM     10  H   UNL     1       7.674   2.048  24.807  0.00  0.00    +0.149 HD
ATOM     11  O   UNL     1       6.818  -0.162  22.700  0.00  0.00    -0.274 OA
BRANCH   9  12
ATOM     12  C   UNL     1       8.434   2.160  22.806  0.00  0.00    +0.103 C 
ATOM     13  C   UNL     1       8.689   3.636  23.046  0.00  0.00    -0.024 A 
ATOM     14  C   UNL     1       7.651   4.554  22.812  0.00  0.00    +0.006 A 
ATOM     15  C   UNL     1       7.843   5.918  23.026  0.00  0.00    +0.000 A 
ATOM     16  C   UNL     1       9.074   6.383  23.481  0.00  0.00    +0.000 A 
ATOM     17  C   UNL     1      10.113   5.483  23.721  0.00  0.00    +0.004 A 
ATOM     18  C   UNL     1       9.932   4.106  23.514  0.00  0.00    -0.042 A 
ATOM     19  C   UNL     1      11.102   3.179  23.735  0.00  0.00    +0.035 C 
ATOM     20  C   UNL     1      10.725   1.700  23.758  0.00  0.00    +0.007 C 
ATOM     21  C   UNL     1       9.741   1.370  22.640  0.00  0.00    +0.027 C 
ENDBRANCH   9  12
ENDBRANCH   3   8
BRANCH   1  22
ATOM     22  C   UNL     1       7.218  -3.785  25.553  0.00  0.00    +0.164 C 
BRANCH  22  24
ATOM     23  C   UNL     1       6.342  -5.650  26.989  0.00  0.00    +0.230 C 
ATOM     24  N   UNL     1       6.242  -4.838  25.876  0.00  0.00    -0.302 N 
ATOM     25  H   UNL     1       5.531  -5.094  25.195  0.00  0.00    +0.150 HD
ATOM     26  O   UNL     1       7.191  -5.467  27.860  0.00  0.00    -0.274 OA
BRANCH  23  27
ATOM     27  C   UNL     1       5.255  -6.767  27.085  0.00  0.00    +0.137 C 
ATOM     28  C   UNL     1       3.880  -6.202  26.716  0.00  0.00    +0.034 C 
BRANCH  27  29
ATOM     29  N   UNL     1       5.289  -7.371  28.442  0.00  0.00    -0.309 NA
ATOM     30  H   UNL     1       6.212  -7.202  28.846  0.00  0.00    +0.122 HD
ATOM     31  C   UNL     1       4.282  -6.804  29.335  0.00  0.00    +0.101 C 
ENDBRANCH  27  29
ENDBRANCH  23  27
ENDBRANCH  22  24
BRANCH  22  32
ATOM     32  C   UNL     1       8.274  -4.261  24.475  0.00  0.00    -0.011 C 
ATOM     33  C   UNL     1       7.684  -5.182  23.384  0.00  0.00    +0.013 C 
ATOM     34  C   UNL     1       9.442  -5.036  25.121  0.00  0.00    +0.013 C 
ATOM     35  C   UNL     1       8.888  -3.017  23.799  0.00  0.00    +0.013 C 
ENDBRANCH  22  32
ENDBRANCH   1  22
TORSDOF 7
ENDMDL
MODEL 5
REMARK VINA RESULT:      -6.9      1.862      2.684
REMARK  Name = 
REMARK  12 active torsions:
REMARK  status: ('A' for Active; 'I' for Inactive)
REMARK    1  A    between atoms: C_2  and  C_3
REMARK    2  A    between atoms: C_2  and  N_4
REMARK    3  A    between atoms: C_2  and  C_6
REMARK    4  A    between atoms: N_4  and  C_5
REMARK    5  A    between atoms: N_8  and  C_9
REMARK    6  A    between atoms: C_9  and  C_11
REMARK    7  A    between atoms: C_9  and  C_33
REMARK    8  A    between atoms: C_17  and  C_19
REMARK    9  A    between atoms: N_21  and  C_22
REMARK   10  A    between atoms: C_33  and  C_34
REMARK   11  A    between atoms: C_33  and  C_35
REMARK   12  A    between atoms: C_33  and  C_36
REMARK                            x       y       z     vdW  Elec       q    Type
REMARK                         _______ _______ _______ _____ _____    ______ ____
ROOT
ATOM      1  C   UNL     1       8.556   0.156  25.063  0.00  0.00    +0.237 C 
ATOM      2  N   UNL     1       7.349  -0.378  25.450  0.00  0.00    -0.288 N 
ATOM      3  C   UNL     1       7.262  -1.263  26.622  0.00  0.00    +0.162 C 
ATOM      4  C   UNL     1       5.814  -1.137  27.113  0.00  0.00    +0.033 C 
ATOM      5  C   UNL     1       5.167  -0.089  26.212  0.00  0.00    +0.021 C 
ATOM      6  C   UNL     1       6.023  -0.069  24.953  0.00  0.00    +0.109 C 
ATOM      7  O   UNL     1       9.540  -0.035  25.790  0.00  0.00    -0.274 OA
ENDROOT
BRANCH   3   8
ATOM      8  C   UNL     1       7.632  -2.731  26.266  0.00  0.00    +0.234 C 
ATOM      9  N   UNL     1       6.848  -3.301  25.287  0.00  0.00    -0.307 N 
ATOM     10  H   UNL     1       6.087  -2.745  24.902  0.00  0.00    +0.149 HD
ATOM     11  O   UNL     1       8.594  -3.321  26.756  0.00  0.00    -0.274 OA
BRANCH   9  12
ATOM     12  C   UNL     1       7.099  -4.627  24.737  0.00  0.00    +0.103 C 
ATOM     13  C   UNL     1       5.923  -5.542  25.016  0.00  0.00    -0.024 A 
ATOM     14  C   UNL     1       5.759  -6.067  26.310  0.00  0.00    +0.006 A 
ATOM     15  C   UNL     1       4.688  -6.907  26.610  0.00  0.00    +0.000 A 
ATOM     16  C   UNL     1       3.765  -7.233  25.620  0.00  0.00    +0.000 A 
ATOM     17  C   UNL     1       3.912  -6.718  24.332  0.00  0.00    +0.004 A 
ATOM     18  C   UNL     1       4.984  -5.866  24.018  0.00  0.00    -0.042 A 
ATOM     19  C   UNL     1       5.132  -5.380  22.597  0.00  0.00    +0.035 C 
ATOM     20  C   UNL     1       6.146  -4.251  22.431  0.00  0.00    +0.007 C 
ATOM     21  C   UNL     1       7.411  -4.533  23.235  0.00  0.00    +0.027 C 
ENDBRANCH   9  12
ENDBRANCH   3   8
BRANCH   1  22
ATOM     22  C   UNL     1       8.661   1.003  23.750  0.00  0.00    +0.164 C 
BRANCH  22  24
ATOM     23  C   UNL     1       9.185   3.458  23.718  0.00  0.00    +0.230 C 
ATOM     24  N   UNL     1       9.555   2.150  23.968  0.00  0.00    -0.302 N 
ATOM     25  H   UNL     1      10.538   1.993  24.178  0.00  0.00    +0.150 HD
ATOM     26  O   UNL     1       8.035   3.767  23.412  0.00  0.00    -0.274 OA
BRANCH  23  27
ATOM     27  C   UNL     1      10.321   4.510  23.921  0.00  0.00    +0.137 C 
ATOM     28  C   UNL     1       9.796   5.920  23.634  0.00  0.00    +0.034 C 
BRANCH  27  29
ATOM     29  N   UNL     1      11.488   4.144  23.077  0.00  0.00    -0.309 NA
ATOM     30  H   UNL     1      11.194   4.157  22.099  0.00  0.00    +0.122 HD
ATOM     31  C   UNL     1      12.609   5.068  23.235  0.00  0.00    +0.101 C 
ENDBRANCH  27  29
ENDBRANCH  23  27
ENDBRANCH  22  24
BRANCH  22  32
ATOM     32  C   UNL     1       9.117   0.114  22.522  0.00  0.00    -0.011 C 
ATOM     33  C   UNL     1       9.064   0.850  21.164  0.00  0.00    +0.013 C 
ATOM     34  C   UNL     1       8.243  -1.149  22.374  0.00  0.00    +0.013 C 
ATOM     35  C   UNL     1      10.560  -0.372  22.771  0.00  0.00    +0.013 C 
ENDBRANCH  22  32
ENDBRANCH   1  22
TORSDOF 7
ENDMDL
MODEL 6
REMARK VINA RESULT:      -6.8      3.172      6.251
REMARK  Name = 
REMARK  12 active torsions:
REMARK  status: ('A' for Active; 'I' for Inactive)
REMARK    1  A    between atoms: C_2  and  C_3
REMARK    2  A    between atoms: C_2  and  N_4
REMARK    3  A    between atoms: C_2  and  C_6
REMARK    4  A    between atoms: N_4  and  C_5
REMARK    5  A    between atoms: N_8  and  C_9
REMARK    6  A    between atoms: C_9  and  C_11
REMARK    7  A    between atoms: C_9  and  C_33
REMARK    8  A    between atoms: C_17  and  C_19
REMARK    9  A    between atoms: N_21  and  C_22
REMARK   10  A    between atoms: C_33  and  C_34
REMARK   11  A    between atoms: C_33  and  C_35
REMARK   12  A    between atoms: C_33  and  C_36
REMARK                            x       y       z     vdW  Elec       q    Type
REMARK                         _______ _______ _______ _____ _____    ______ ____
ROOT
ATOM      1  C   UNL     1       6.379  -3.301  23.940  0.00  0.00    +0.237 C 
ATOM      2  N   UNL     1       6.445  -4.537  23.338  0.00  0.00    -0.288 N 
ATOM      3  C   UNL     1       5.219  -5.239  22.932  0.00  0.00    +0.162 C 
ATOM      4  C   UNL     1       5.651  -6.179  21.799  0.00  0.00    +0.033 C 
ATOM      5  C   UNL     1       7.130  -5.883  21.565  0.00  0.00    +0.021 C 
ATOM      6  C   UNL     1       7.614  -5.248  22.861  0.00  0.00    +0.109 C 
ATOM      7  O   UNL     1       5.273  -2.752  24.025  0.00  0.00    -0.274 OA
ENDROOT
BRANCH   3   8
ATOM      8  C   UNL     1       4.575  -6.013  24.118  0.00  0.00    +0.234 C 
ATOM      9  N   UNL     1       3.928  -5.220  25.039  0.00  0.00    -0.307 N 
ATOM     10  H   UNL     1       3.945  -4.212  24.896  0.00  0.00    +0.149 HD
ATOM     11  O   UNL     1       4.571  -7.241  24.197  0.00  0.00    -0.274 OA
BRANCH   9  12
ATOM     12  C   UNL     1       3.172  -5.759  26.162  0.00  0.00    +0.103 C 
ATOM     13  C   UNL     1       3.980  -5.648  27.441  0.00  0.00    -0.024 A 
ATOM     14  C   UNL     1       5.031  -6.553  27.664  0.00  0.00    +0.006 A 
ATOM     15  C   UNL     1       5.801  -6.482  28.823  0.00  0.00    +0.000 A 
ATOM     16  C   UNL     1       5.533  -5.502  29.775  0.00  0.00    +0.000 A 
ATOM     17  C   UNL     1       4.494  -4.594  29.567  0.00  0.00    +0.004 A 
ATOM     18  C   UNL     1       3.713  -4.652  28.401  0.00  0.00    -0.042 A 
ATOM     19  C   UNL     1       2.567  -3.683  28.247  0.00  0.00    +0.035 C 
ATOM     20  C   UNL     1       1.972  -3.644  26.841  0.00  0.00    +0.007 C 
ATOM     21  C   UNL     1       1.811  -5.053  26.278  0.00  0.00    +0.027 C 
ENDBRANCH   9  12
ENDBRANCH   3   8
BRANCH   1  22
ATOM     22  C   UNL     1       7.679  -2.612  24.473  0.00  0.00    +0.164 C 
BRANCH  22  24
ATOM     23  C   UNL     1       8.352  -0.834  22.832  0.00  0.00    +0.230 C 
ATOM     24  N   UNL     1       7.731  -1.218  24.005  0.00  0.00    -0.302 N 
ATOM     25  H   UNL     1       7.429  -0.466  24.621  0.00  0.00    +0.150 HD
ATOM     26  O   UNL     1       8.798  -1.652  22.029  0.00  0.00    -0.274 OA
BRANCH  23  27
ATOM     27  C   UNL     1       8.378   0.706  22.578  0.00  0.00    +0.137 C 
ATOM     28  C   UNL     1       9.613   1.087  21.755  0.00  0.00    +0.034 C 
BRANCH  27  29
ATOM     29  N   UNL     1       8.304   1.421  23.878  0.00  0.00    -0.309 NA
ATOM     30  H   UNL     1       7.922   0.780  24.576  0.00  0.00    +0.122 HD
ATOM     31  C   UNL     1       9.610   1.883  24.341  0.00  0.00    +0.101 C 
ENDBRANCH  27  29
ENDBRANCH  23  27
ENDBRANCH  22  24
BRANCH  22  32
ATOM     32  C   UNL     1       7.787  -2.717  26.049  0.00  0.00    -0.011 C 
ATOM     33  C   UNL     1       6.422  -2.840  26.763  0.00  0.00    +0.013 C 
ATOM     34  C   UNL     1       8.493  -1.488  26.658  0.00  0.00    +0.013 C 
ATOM     35  C   UNL     1       8.650  -3.946  26.406  0.00  0.00    +0.013 C 
ENDBRANCH  22  32
ENDBRANCH   1  22
TORSDOF 7
ENDMDL
MODEL 7
REMARK VINA RESULT:      -6.7      2.513      8.455
REMARK  Name = 
REMARK  12 active torsions:
REMARK  status: ('A' for Active; 'I' for Inactive)
REMARK    1  A    between atoms: C_2  and  C_3
REMARK    2  A    between atoms: C_2  and  N_4
REMARK    3  A    between atoms: C_2  and  C_6
REMARK    4  A    between atoms: N_4  and  C_5
REMARK    5  A    between atoms: N_8  and  C_9
REMARK    6  A    between atoms: C_9  and  C_11
REMARK    7  A    between atoms: C_9  and  C_33
REMARK    8  A    between atoms: C_17  and  C_19
REMARK    9  A    between atoms: N_21  and  C_22
REMARK   10  A    between atoms: C_33  and  C_34
REMARK   11  A    between atoms: C_33  and  C_35
REMARK   12  A    between atoms: C_33  and  C_36
REMARK                            x       y       z     vdW  Elec       q    Type
REMARK                         _______ _______ _______ _____ _____    ______ ____
ROOT
ATOM      1  C   UNL     1       6.216  -2.716  24.718  0.00  0.00    +0.237 C 
ATOM      2  N   UNL     1       7.196  -1.888  25.215  0.00  0.00    -0.288 N 
ATOM      3  C   UNL     1       6.964  -0.442  25.339  0.00  0.00    +0.162 C 
ATOM      4  C   UNL     1       7.919   0.025  26.446  0.00  0.00    +0.033 C 
ATOM      5  C   UNL     1       8.598  -1.242  26.960  0.00  0.00    +0.021 C 
ATOM      6  C   UNL     1       8.460  -2.250  25.827  0.00  0.00    +0.109 C 
ATOM      7  O   UNL     1       5.102  -2.228  24.489  0.00  0.00    -0.274 OA
ENDROOT
BRANCH   3   8
ATOM      8  C   UNL     1       7.220   0.303  23.998  0.00  0.00    +0.234 C 
ATOM      9  N   UNL     1       7.891   1.499  24.122  0.00  0.00    -0.307 N 
ATOM     10  H   UNL     1       8.136   1.814  25.059  0.00  0.00    +0.149 HD
ATOM     11  O   UNL     1       6.921  -0.166  22.900  0.00  0.00    -0.274 OA
BRANCH   9  12
ATOM     12  C   UNL     1       8.320   2.294  22.979  0.00  0.00    +0.103 C 
ATOM     13  C   UNL     1       8.406   3.759  23.360  0.00  0.00    -0.024 A 
ATOM     14  C   UNL     1       7.219   4.503  23.482  0.00  0.00    +0.006 A 
ATOM     15  C   UNL     1       7.254   5.850  23.836  0.00  0.00    +0.000 A 
ATOM     16  C   UNL     1       8.476   6.473  24.076  0.00  0.00    +0.000 A 
ATOM     17  C   UNL     1       9.663   5.747  23.963  0.00  0.00    +0.004 A 
ATOM     18  C   UNL     1       9.642   4.388  23.611  0.00  0.00    -0.042 A 
ATOM     19  C   UNL     1      10.953   3.660  23.447  0.00  0.00    +0.035 C 
ATOM     20  C   UNL     1      10.813   2.144  23.346  0.00  0.00    +0.007 C 
ATOM     21  C   UNL     1       9.654   1.764  22.429  0.00  0.00    +0.027 C 
ENDBRANCH   9  12
ENDBRANCH   3   8
BRANCH   1  22
ATOM     22  C   UNL     1       6.509  -4.235  24.481  0.00  0.00    +0.164 C 
BRANCH  22  24
ATOM     23  C   UNL     1       5.977  -5.916  26.269  0.00  0.00    +0.230 C 
ATOM     24  N   UNL     1       5.573  -5.051  25.269  0.00  0.00    -0.302 N 
ATOM     25  H   UNL     1       4.596  -5.108  24.993  0.00  0.00    +0.150 HD
ATOM     26  O   UNL     1       7.142  -5.971  26.657  0.00  0.00    -0.274 OA
BRANCH  23  27
ATOM     27  C   UNL     1       4.829  -6.760  26.907  0.00  0.00    +0.137 C 
ATOM     28  C   UNL     1       3.548  -5.925  27.007  0.00  0.00    +0.034 C 
BRANCH  27  29
ATOM     29  N   UNL     1       5.279  -7.290  28.220  0.00  0.00    -0.309 NA
ATOM     30  H   UNL     1       6.264  -7.047  28.344  0.00  0.00    +0.122 HD
ATOM     31  C   UNL     1       4.522  -6.735  29.340  0.00  0.00    +0.101 C 
ENDBRANCH  27  29
ENDBRANCH  23  27
ENDBRANCH  22  24
BRANCH  22  32
ATOM     32  C   UNL     1       6.471  -4.599  22.942  0.00  0.00    -0.011 C 
ATOM     33  C   UNL     1       6.677  -3.387  22.006  0.00  0.00    +0.013 C 
ATOM     34  C   UNL     1       5.126  -5.242  22.539  0.00  0.00    +0.013 C 
ATOM     35  C   UNL     1       7.566  -5.646  22.651  0.00  0.00    +0.013 C 
ENDBRANCH  22  32
ENDBRANCH   1  22
TORSDOF 7
ENDMDL
MODEL 8
REMARK VINA RESULT:      -6.7      3.905      9.186
REMARK  Name = 
REMARK  12 active torsions:
REMARK  status: ('A' for Active; 'I' for Inactive)
REMARK    1  A    between atoms: C_2  and  C_3
REMARK    2  A    between atoms: C_2  and  N_4
REMARK    3  A    between atoms: C_2  and  C_6
REMARK    4  A    between atoms: N_4  and  C_5
REMARK    5  A    between atoms: N_8  and  C_9
REMARK    6  A    between atoms: C_9  and  C_11
REMARK    7  A    between atoms: C_9  and  C_33
REMARK    8  A    between atoms: C_17  and  C_19
REMARK    9  A    between atoms: N_21  and  C_22
REMARK   10  A    between atoms: C_33  and  C_34
REMARK   11  A    between atoms: C_33  and  C_35
REMARK   12  A    between atoms: C_33  and  C_36
REMARK                            x       y       z     vdW  Elec       q    Type
REMARK                         _______ _______ _______ _____ _____    ______ ____
ROOT
ATOM      1  C   UNL     1       5.507  -5.601  24.937  0.00  0.00    +0.237 C 
ATOM      2  N   UNL     1       6.032  -5.252  23.715  0.00  0.00    -0.288 N 
ATOM      3  C   UNL     1       7.471  -5.396  23.448  0.00  0.00    +0.162 C 
ATOM      4  C   UNL     1       7.585  -5.540  21.925  0.00  0.00    +0.033 C 
ATOM      5  C   UNL     1       6.149  -5.553  21.408  0.00  0.00    +0.021 C 
ATOM      6  C   UNL     1       5.331  -4.881  22.502  0.00  0.00    +0.109 C 
ATOM      7  O   UNL     1       6.255  -6.144  25.760  0.00  0.00    -0.274 OA
ENDROOT
BRANCH   3   8
ATOM      8  C   UNL     1       8.283  -4.182  23.981  0.00  0.00    +0.234 C 
ATOM      9  N   UNL     1       7.585  -2.995  24.020  0.00  0.00    -0.307 N 
ATOM     10  H   UNL     1       6.627  -2.994  23.676  0.00  0.00    +0.149 HD
ATOM     11  O   UNL     1       9.432  -4.277  24.411  0.00  0.00    -0.274 OA
BRANCH   9  12
ATOM     12  C   UNL     1       8.132  -1.768  24.585  0.00  0.00    +0.103 C 
ATOM     13  C   UNL     1       8.342  -0.735  23.494  0.00  0.00    -0.024 A 
ATOM     14  C   UNL     1       9.440  -0.872  22.628  0.00  0.00    +0.006 A 
ATOM     15  C   UNL     1       9.666   0.052  21.609  0.00  0.00    +0.000 A 
ATOM     16  C   UNL     1       8.794   1.124  21.440  0.00  0.00    +0.000 A 
ATOM     17  C   UNL     1       7.697   1.272  22.289  0.00  0.00    +0.004 A 
ATOM     18  C   UNL     1       7.456   0.346  23.317  0.00  0.00    -0.042 A 
ATOM     19  C   UNL     1       6.289   0.579  24.244  0.00  0.00    +0.035 C 
ATOM     20  C   UNL     1       5.953  -0.617  25.131  0.00  0.00    +0.007 C 
ATOM     21  C   UNL     1       7.220  -1.243  25.705  0.00  0.00    +0.027 C 
ENDBRANCH   9  12
ENDBRANCH   3   8
BRANCH   1  22
ATOM     22  C   UNL     1       3.997  -5.337  25.253  0.00  0.00    +0.164 C 
BRANCH  22  24
ATOM     23  C   UNL     1       2.192  -6.442  23.901  0.00  0.00    +0.230 C 
ATOM     24  N   UNL     1       3.193  -6.502  24.851  0.00  0.00    -0.302 N 
ATOM     25  H   UNL     1       3.260  -7.369  25.380  0.00  0.00    +0.150 HD
ATOM     26  O   UNL     1       1.985  -5.432  23.230  0.00  0.00    -0.274 OA
BRANCH  23  27
ATOM     27  C   UNL     1       1.397  -7.771  23.701  0.00  0.00    +0.137 C 
ATOM     28  C   UNL     1       1.813  -8.801  24.757  0.00  0.00    +0.034 C 
BRANCH  27  29
ATOM     29  N   UNL     1       1.590  -8.256  22.311  0.00  0.00    -0.309 NA
ATOM     30  H   UNL     1       1.728  -9.268  22.339  0.00  0.00    +0.122 HD
ATOM     31  C   UNL     1       0.443  -7.970  21.451  0.00  0.00    +0.101 C 
ENDBRANCH  27  29
ENDBRANCH  23  27
ENDBRANCH  22  24
BRANCH  22  32
ATOM     32  C   UNL     1       3.780  -4.957  26.774  0.00  0.00    -0.011 C 
ATOM     33  C   UNL     1       3.919  -6.153  27.743  0.00  0.00    +0.013 C 
ATOM     34  C   UNL     1       2.382  -4.352  27.019  0.00  0.00    +0.013 C 
ATOM     35  C   UNL     1       4.807  -3.875  27.167  0.00  0.00    +0.013 C 
ENDBRANCH  22  32
ENDBRANCH   1  22
TORSDOF 7
ENDMDL
MODEL 9
REMARK VINA RESULT:      -6.5      3.168      8.111
REMARK  Name = 
REMARK  12 active torsions:
REMARK  status: ('A' for Active; 'I' for Inactive)
REMARK    1  A    between atoms: C_2  and  C_3
REMARK    2  A    between atoms: C_2  and  N_4
REMARK    3  A    between atoms: C_2  and  C_6
REMARK    4  A    between atoms: N_4  and  C_5
REMARK    5  A    between atoms: N_8  and  C_9
REMARK    6  A    between atoms: C_9  and  C_11
REMARK    7  A    between atoms: C_9  and  C_33
REMARK    8  A    between atoms: C_17  and  C_19
REMARK    9  A    between atoms: N_21  and  C_22
REMARK   10  A    between atoms: C_33  and  C_34
REMARK   11  A    between atoms: C_33  and  C_35
REMARK   12  A    between atoms: C_33  and  C_36
REMARK                            x       y       z     vdW  Elec       q    Type
REMARK                         _______ _______ _______ _____ _____    ______ ____
ROOT
ATOM      1  C   UNL     1       5.199  -3.547  24.522  0.00  0.00    +0.237 C 
ATOM      2  N   UNL     1       5.356  -3.305  25.867  0.00  0.00    -0.288 N 
ATOM      3  C   UNL     1       5.157  -1.954  26.414  0.00  0.00    +0.162 C 
ATOM      4  C   UNL     1       4.786  -2.169  27.888  0.00  0.00    +0.033 C 
ATOM      5  C   UNL     1       4.711  -3.682  28.074  0.00  0.00    +0.021 C 
ATOM      6  C   UNL     1       5.547  -4.259  26.941  0.00  0.00    +0.109 C 
ATOM      7  O   UNL     1       4.777  -2.627  23.809  0.00  0.00    -0.274 OA
ENDROOT
BRANCH   3   8
ATOM      8  C   UNL     1       6.429  -1.074  26.256  0.00  0.00    +0.234 C 
ATOM      9  N   UNL     1       6.452  -0.294  25.120  0.00  0.00    -0.307 N 
ATOM     10  H   UNL     1       5.672  -0.374  24.471  0.00  0.00    +0.149 HD
ATOM     11  O   UNL     1       7.314  -1.010  27.108  0.00  0.00    -0.274 OA
BRANCH   9  12
ATOM     12  C   UNL     1       7.502   0.677  24.842  0.00  0.00    +0.103 C 
ATOM     13  C   UNL     1       8.401   0.175  23.729  0.00  0.00    -0.024 A 
ATOM     14  C   UNL     1       9.347  -0.825  24.015  0.00  0.00    +0.006 A 
ATOM     15  C   UNL     1      10.189  -1.318  23.019  0.00  0.00    +0.000 A 
ATOM     16  C   UNL     1      10.094  -0.821  21.722  0.00  0.00    +0.000 A 
ATOM     17  C   UNL     1       9.157   0.169  21.422  0.00  0.00    +0.004 A 
ATOM     18  C   UNL     1       8.300   0.672  22.415  0.00  0.00    -0.042 A 
ATOM     19  C   UNL     1       7.343   1.780  22.054  0.00  0.00    +0.035 C 
ATOM     20  C   UNL     1       6.279   2.050  23.114  0.00  0.00    +0.007 C 
ATOM     21  C   UNL     1       6.889   2.047  24.512  0.00  0.00    +0.027 C 
ENDBRANCH   9  12
ENDBRANCH   3   8
BRANCH   1  22
ATOM     22  C   UNL     1       5.523  -4.958  23.930  0.00  0.00    +0.164 C 
BRANCH  22  24
ATOM     23  C   UNL     1       3.229  -5.959  23.721  0.00  0.00    +0.230 C 
ATOM     24  N   UNL     1       4.376  -5.445  23.147  0.00  0.00    -0.302 N 
ATOM     25  H   UNL     1       4.461  -5.551  22.139  0.00  0.00    +0.150 HD
ATOM     26  O   UNL     1       3.034  -5.929  24.935  0.00  0.00    -0.274 OA
BRANCH  23  27
ATOM     27  C   UNL     1       2.180  -6.512  22.705  0.00  0.00    +0.137 C 
ATOM     28  C   UNL     1       0.861  -5.742  22.833  0.00  0.00    +0.034 C 
BRANCH  27  29
ATOM     29  N   UNL     1       2.020  -7.974  22.910  0.00  0.00    -0.309 NA
ATOM     30  H   UNL     1       1.805  -8.139  23.896  0.00  0.00    +0.122 HD
ATOM     31  C   UNL     1       0.942  -8.541  22.102  0.00  0.00    +0.101 C 
ENDBRANCH  27  29
ENDBRANCH  23  27
ENDBRANCH  22  24
BRANCH  22  32
ATOM     32  C   UNL     1       6.860  -4.939  23.083  0.00  0.00    -0.011 C 
ATOM     33  C   UNL     1       6.966  -6.088  22.055  0.00  0.00    +0.013 C 
ATOM     34  C   UNL     1       8.109  -5.036  23.983  0.00  0.00    +0.013 C 
ATOM     35  C   UNL     1       6.955  -3.592  22.337  0.00  0.00    +0.013 C 
ENDBRANCH  22  32
ENDBRANCH   1  22
TORSDOF 7
ENDMDL
