MODEL 1
REMARK VINA RESULT:      -5.3      0.000      0.000
REMARK  Name = 
REMARK  18 active torsions:
REMARK  status: ('A' for Active; 'I' for Inactive)
REMARK    1  A    between atoms: O_1  and  C_2
REMARK    2  A    between atoms: C_2  and  C_4
REMARK    3  A    between atoms: C_2  and  C_11
REMARK    4  A    between atoms: C_4  and  N_5
REMARK    5  A    between atoms: N_5  and  C_6
REMARK    6  A    between atoms: C_6  and  P_7
REMARK    7  A    between atoms: P_7  and  O_8
REMARK    8  A    between atoms: P_7  and  O_9
REMARK    9  A    between atoms: C_11  and  O_13
REMARK   10  A    between atoms: C_11  and  C_14
REMARK   11  A    between atoms: C_14  and  O_16
REMARK   12  A    between atoms: C_14  and  C_17
REMARK   13  A    between atoms: C_17  and  O_19
REMARK   14  A    between atoms: C_17  and  C_20
REMARK   15  A    between atoms: C_20  and  O_21
REMARK   16  A    between atoms: O_21  and  P_22
REMARK   17  A    between atoms: P_22  and  O_23
REMARK   18  A    between atoms: P_22  and  O_24
REMARK                            x       y       z     vdW  Elec       q    Type
REMARK                         _______ _______ _______ _____ _____    ______ ____
ROOT
ATOM      1  C   UNL     1       9.579  -2.993  24.481  0.00  0.00    +0.175 C 
ENDROOT
BRANCH   1   2
ATOM      2  O   UNL     1       9.956  -2.803  23.093  0.00  0.00    -0.387 OA
ATOM      3  H   UNL     1       9.771  -1.874  22.874  0.00  0.00    +0.210 HD
ENDBRANCH   1   2
BRANCH   1   4
ATOM      4  C   UNL     1       9.182  -4.469  24.641  0.00  0.00    +0.176 C 
BRANCH   4   5
ATOM      5  O   UNL     1      10.351  -5.163  25.143  0.00  0.00    -0.386 OA
ATOM      6  H   UNL     1      10.198  -5.266  26.101  0.00  0.00    +0.210 HD
ENDBRANCH   4   5
BRANCH   4   7
ATOM      7  C   UNL     1       8.014  -4.783  25.588  0.00  0.00    +0.172 C 
BRANCH   7   8
ATOM      8  O   UNL     1       8.403  -5.746  26.570  0.00  0.00    -0.387 OA
ATOM      9  H   UNL     1       8.524  -5.246  27.398  0.00  0.00    +0.210 HD
ENDBRANCH   7   8
BRANCH   7  10
ATOM     10  C   UNL     1       6.716  -5.258  24.911  0.00  0.00    +0.206 C 
BRANCH  10  11
ATOM     11  O   UNL     1       6.397  -4.273  23.927  0.00  0.00    -0.284 OA
BRANCH  11  12
ATOM     12  P   UNL     1       6.171  -4.828  22.303  0.00  0.00    +0.472 P 
ATOM     13  O   UNL     1       5.968  -5.324  20.850  0.00  0.00    -0.228 OA
BRANCH  12  14
ATOM     14  O   UNL     1       4.807  -3.931  22.248  0.00  0.00    -0.303 OA
ATOM     15  H   UNL     1       5.111  -3.012  22.403  0.00  0.00    +0.222 HD
ENDBRANCH  12  14
BRANCH  12  16
ATOM     16  O   UNL     1       7.182  -3.607  21.915  0.00  0.00    -0.303 OA
ATOM     17  H   UNL     1       7.868  -3.951  21.318  0.00  0.00    +0.222 HD
ENDBRANCH  12  16
ENDBRANCH  11  12
ENDBRANCH  10  11
ENDBRANCH   7  10
ENDBRANCH   4   7
ENDBRANCH   1   4
BRANCH   1  18
ATOM     18  C   UNL     1       8.543  -1.903  24.871  0.00  0.00    +0.159 C 
BRANCH  18  19
ATOM     19  O   UNL     1       7.703  -1.560  23.770  0.00  0.00    -0.388 OA
ATOM     20  H   UNL     1       8.027  -2.079  23.010  0.00  0.00    +0.210 HD
ENDBRANCH  18  19
BRANCH  18  21
ATOM     21  C   UNL     1       9.351  -0.658  25.322  0.00  0.00    +0.115 C 
BRANCH  21  22
ATOM     22  N   UNL     1      10.462  -0.196  24.464  0.00  0.00    -0.303 NA
ATOM     23  H   UNL     1      10.524  -0.780  23.623  0.00  0.00    +0.123 HD
BRANCH  22  24
ATOM     24  C   UNL     1      10.096   1.185  24.042  0.00  0.00    +0.209 C 
BRANCH  24  25
ATOM     25  P   UNL     1       9.354   1.109  22.398  0.00  0.00    +0.341 P 
ATOM     26  O   UNL     1       7.868   1.234  22.378  0.00  0.00    -0.257 OA
BRANCH  25  27
ATOM     27  O   UNL     1      10.171   2.195  21.542  0.00  0.00    -0.323 OA
ATOM     28  H   UNL     1      10.219   3.090  21.917  0.00  0.00    +0.220 HD
ENDBRANCH  25  27
BRANCH  25  29
ATOM     29  O   UNL     1       9.914  -0.263  21.786  0.00  0.00    -0.323 OA
ATOM     30  H   UNL     1       9.216  -0.760  21.315  0.00  0.00    +0.220 HD
ENDBRANCH  25  29
ENDBRANCH  24  25
ENDBRANCH  22  24
ENDBRANCH  21  22
ENDBRANCH  18  21
ENDBRANCH   1  18
TORSDOF 18
ENDMDL
MODEL 2
REMARK VINA RESULT:      -5.2      2.664      5.931
REMARK  Name = 
REMARK  18 active torsions:
REMARK  status: ('A' for Active; 'I' for Inactive)
REMARK    1  A    between atoms: O_1  and  C_2
REMARK    2  A    between atoms: C_2  and  C_4
REMARK    3  A    between atoms: C_2  and  C_11
REMARK    4  A    between atoms: C_4  and  N_5
REMARK    5  A    between atoms: N_5  and  C_6
REMARK    6  A    between atoms: C_6  and  P_7
REMARK    7  A    between atoms: P_7  and  O_8
REMARK    8  A    between atoms: P_7  and  O_9
REMARK    9  A    between atoms: C_11  and  O_13
REMARK   10  A    between atoms: C_11  and  C_14
REMARK   11  A    between atoms: C_14  and  O_16
REMARK   12  A    between atoms: C_14  and  C_17
REMARK   13  A    between atoms: C_17  and  O_19
REMARK   14  A    between atoms: C_17  and  C_20
REMARK   15  A    between atoms: C_20  and  O_21
REMARK   16  A    between atoms: O_21  and  P_22
REMARK   17  A    between atoms: P_22  and  O_23
REMARK   18  A    between atoms: P_22  and  O_24
REMARK                            x       y       z     vdW  Elec       q    Type
REMARK                         _______ _______ _______ _____ _____    ______ ____
ROOT
ATOM      1  C   UNL     1       9.402  -2.500  22.775  0.00  0.00    +0.175 C 
ENDROOT
BRANCH   1   2
ATOM      2  O   UNL     1      10.044  -2.986  23.982  0.00  0.00    -0.387 OA
ATOM      3  H   UNL     1       9.605  -3.820  24.219  0.00  0.00    +0.210 HD
ENDBRANCH   1   2
BRANCH   1   4
ATOM      4  C   UNL     1      10.250  -1.328  22.255  0.00  0.00    +0.176 C 
BRANCH   4   5
ATOM      5  O   UNL     1       9.523  -0.748  21.144  0.00  0.00    -0.386 OA
ATOM      6  H   UNL     1       9.719  -1.323  20.380  0.00  0.00    +0.210 HD
ENDBRANCH   4   5
BRANCH   4   7
ATOM      7  C   UNL     1      10.566  -0.197  23.245  0.00  0.00    +0.172 C 
BRANCH   7   8
ATOM      8  O   UNL     1      10.190  -0.566  24.573  0.00  0.00    -0.387 OA
ATOM      9  H   UNL     1      10.778  -0.063  25.165  0.00  0.00    +0.210 HD
ENDBRANCH   7   8
BRANCH   7  10
ATOM     10  C   UNL     1       9.945   1.173  22.914  0.00  0.00    +0.206 C 
BRANCH  10  11
ATOM     11  O   UNL     1       8.597   1.123  23.386  0.00  0.00    -0.284 OA
BRANCH  11  12
ATOM     12  P   UNL     1       7.445   2.134  22.583  0.00  0.00    +0.472 P 
ATOM     13  O   UNL     1       6.413   3.039  21.865  0.00  0.00    -0.228 OA
BRANCH  12  14
ATOM     14  O   UNL     1       8.197   1.778  21.178  0.00  0.00    -0.303 OA
ATOM     15  H   UNL     1       7.907   2.482  20.560  0.00  0.00    +0.222 HD
ENDBRANCH  12  14
BRANCH  12  16
ATOM     16  O   UNL     1       6.502   0.802  22.603  0.00  0.00    -0.303 OA
ATOM     17  H   UNL     1       6.836   0.196  23.286  0.00  0.00    +0.222 HD
ENDBRANCH  12  16
ENDBRANCH  11  12
ENDBRANCH  10  11
ENDBRANCH   7  10
ENDBRANCH   4   7
ENDBRANCH   1   4
BRANCH   1  18
ATOM     18  C   UNL     1       7.899  -2.247  23.076  0.00  0.00    +0.159 C 
BRANCH  18  19
ATOM     19  O   UNL     1       7.716  -1.635  24.352  0.00  0.00    -0.388 OA
ATOM     20  H   UNL     1       7.106  -0.887  24.209  0.00  0.00    +0.210 HD
ENDBRANCH  18  19
BRANCH  18  21
ATOM     21  C   UNL     1       7.199  -3.631  23.053  0.00  0.00    +0.115 C 
BRANCH  21  22
ATOM     22  N   UNL     1       7.931  -4.795  23.594  0.00  0.00    -0.303 NA
ATOM     23  H   UNL     1       8.907  -4.541  23.784  0.00  0.00    +0.123 HD
BRANCH  22  24
ATOM     24  C   UNL     1       7.276  -5.114  24.894  0.00  0.00    +0.209 C 
BRANCH  24  25
ATOM     25  P   UNL     1       8.467  -4.846  26.222  0.00  0.00    +0.341 P 
ATOM     26  O   UNL     1       8.683  -3.416  26.588  0.00  0.00    -0.257 OA
BRANCH  25  27
ATOM     27  O   UNL     1       7.970  -5.815  27.404  0.00  0.00    -0.323 OA
ATOM     28  H   UNL     1       7.702  -5.381  28.231  0.00  0.00    +0.220 HD
ENDBRANCH  25  27
BRANCH  25  29
ATOM     29  O   UNL     1       9.784  -5.609  25.719  0.00  0.00    -0.323 OA
ATOM     30  H   UNL     1       9.937  -5.473  24.762  0.00  0.00    +0.220 HD
ENDBRANCH  25  29
ENDBRANCH  24  25
ENDBRANCH  22  24
ENDBRANCH  21  22
ENDBRANCH  18  21
ENDBRANCH   1  18
TORSDOF 18
ENDMDL
MODEL 3
REMARK VINA RESULT:      -5.1      2.470      6.589
REMARK  Name = 
REMARK  18 active torsions:
REMARK  status: ('A' for Active; 'I' for Inactive)
REMARK    1  A    between atoms: O_1  and  C_2
REMARK    2  A    between atoms: C_2  and  C_4
REMARK    3  A    between atoms: C_2  and  C_11
REMARK    4  A    between atoms: C_4  and  N_5
REMARK    5  A    between atoms: N_5  and  C_6
REMARK    6  A    between atoms: C_6  and  P_7
REMARK    7  A    between atoms: P_7  and  O_8
REMARK    8  A    between atoms: P_7  and  O_9
REMARK    9  A    between atoms: C_11  and  O_13
REMARK   10  A    between atoms: C_11  and  C_14
REMARK   11  A    between atoms: C_14  and  O_16
REMARK   12  A    between atoms: C_14  and  C_17
REMARK   13  A    between atoms: C_17  and  O_19
REMARK   14  A    between atoms: C_17  and  C_20
REMARK   15  A    between atoms: C_20  and  O_21
REMARK   16  A    between atoms: O_21  and  P_22
REMARK   17  A    between atoms: P_22  and  O_23
REMARK   18  A    between atoms: P_22  and  O_24
REMARK                            x       y       z     vdW  Elec       q    Type
REMARK                         _______ _______ _______ _____ _____    ______ ____
ROOT
ATOM      1  C   UNL     1       9.658   0.370  23.084  0.00  0.00    +0.175 C 
ENDROOT
BRANCH   1   2
ATOM      2  O   UNL     1       8.230   0.197  23.276  0.00  0.00    -0.387 OA
ATOM      3  H   UNL     1       8.114  -0.287  24.112  0.00  0.00    +0.210 HD
ENDBRANCH   1   2
BRANCH   1   4
ATOM      4  C   UNL     1       9.869   1.793  22.543  0.00  0.00    +0.176 C 
BRANCH   4   5
ATOM      5  O   UNL     1       8.982   1.943  21.407  0.00  0.00    -0.386 OA
ATOM      6  H   UNL     1       9.251   1.248  20.777  0.00  0.00    +0.210 HD
ENDBRANCH   4   5
BRANCH   4   7
ATOM      7  C   UNL     1       9.594   2.958  23.505  0.00  0.00    +0.172 C 
BRANCH   7   8
ATOM      8  O   UNL     1       9.546   2.498  24.857  0.00  0.00    -0.387 OA
ATOM      9  H   UNL     1      10.430   2.674  25.229  0.00  0.00    +0.210 HD
ENDBRANCH   7   8
BRANCH   7  10
ATOM     10  C   UNL     1       8.326   3.780  23.213  0.00  0.00    +0.206 C 
BRANCH  10  11
ATOM     11  O   UNL     1       7.232   3.021  23.730  0.00  0.00    -0.284 OA
BRANCH  11  12
ATOM     12  P   UNL     1       5.721   3.150  22.896  0.00  0.00    +0.472 P 
ATOM     13  O   UNL     1       4.369   3.266  22.150  0.00  0.00    -0.228 OA
BRANCH  12  14
ATOM     14  O   UNL     1       6.526   3.857  21.664  0.00  0.00    -0.303 OA
ATOM     15  H   UNL     1       6.490   3.199  20.937  0.00  0.00    +0.222 HD
ENDBRANCH  12  14
BRANCH  12  16
ATOM     16  O   UNL     1       6.028   1.616  22.431  0.00  0.00    -0.303 OA
ATOM     17  H   UNL     1       5.544   1.011  23.019  0.00  0.00    +0.222 HD
ENDBRANCH  12  16
ENDBRANCH  11  12
ENDBRANCH  10  11
ENDBRANCH   7  10
ENDBRANCH   4   7
ENDBRANCH   1   4
BRANCH   1  18
ATOM     18  C   UNL     1      10.198  -0.825  22.251  0.00  0.00    +0.159 C 
BRANCH  18  19
ATOM     19  O   UNL     1       9.397  -1.061  21.093  0.00  0.00    -0.388 OA
ATOM     20  H   UNL     1       8.472  -1.068  21.400  0.00  0.00    +0.210 HD
ENDBRANCH  18  19
BRANCH  18  21
ATOM     21  C   UNL     1      10.162  -2.068  23.177  0.00  0.00    +0.115 C 
BRANCH  21  22
ATOM     22  N   UNL     1       8.863  -2.735  23.405  0.00  0.00    -0.303 NA
ATOM     23  H   UNL     1       8.822  -3.616  22.879  0.00  0.00    +0.123 HD
BRANCH  22  24
ATOM     24  C   UNL     1       8.830  -3.064  24.858  0.00  0.00    +0.209 C 
BRANCH  24  25
ATOM     25  P   UNL     1       8.893  -4.858  25.046  0.00  0.00    +0.341 P 
ATOM     26  O   UNL     1       8.196  -5.383  26.255  0.00  0.00    -0.257 OA
BRANCH  25  27
ATOM     27  O   UNL     1       8.386  -5.424  23.630  0.00  0.00    -0.323 OA
ATOM     28  H   UNL     1       8.362  -6.391  23.538  0.00  0.00    +0.220 HD
ENDBRANCH  25  27
BRANCH  25  29
ATOM     29  O   UNL     1      10.458  -5.197  24.981  0.00  0.00    -0.323 OA
ATOM     30  H   UNL     1      10.666  -5.804  24.241  0.00  0.00    +0.220 HD
ENDBRANCH  25  29
ENDBRANCH  24  25
ENDBRANCH  22  24
ENDBRANCH  21  22
ENDBRANCH  18  21
ENDBRANCH   1  18
TORSDOF 18
ENDMDL
MODEL 4
REMARK VINA RESULT:      -5.1      2.861      4.475
REMARK  Name = 
REMARK  18 active torsions:
REMARK  status: ('A' for Active; 'I' for Inactive)
REMARK    1  A    between atoms: O_1  and  C_2
REMARK    2  A    between atoms: C_2  and  C_4
REMARK    3  A    between atoms: C_2  and  C_11
REMARK    4  A    between atoms: C_4  and  N_5
REMARK    5  A    between atoms: N_5  and  C_6
REMARK    6  A    between atoms: C_6  and  P_7
REMARK    7  A    between atoms: P_7  and  O_8
REMARK    8  A    between atoms: P_7  and  O_9
REMARK    9  A    between atoms: C_11  and  O_13
REMARK   10  A    between atoms: C_11  and  C_14
REMARK   11  A    between atoms: C_14  and  O_16
REMARK   12  A    between atoms: C_14  and  C_17
REMARK   13  A    between atoms: C_17  and  O_19
REMARK   14  A    between atoms: C_17  and  C_20
REMARK   15  A    between atoms: C_20  and  O_21
REMARK   16  A    between atoms: O_21  and  P_22
REMARK   17  A    between atoms: P_22  and  O_23
REMARK   18  A    between atoms: P_22  and  O_24
REMARK                            x       y       z     vdW  Elec       q    Type
REMARK                         _______ _______ _______ _____ _____    ______ ____
ROOT
ATOM      1  C   UNL     1      10.179  -0.398  22.492  0.00  0.00    +0.175 C 
ENDROOT
BRANCH   1   2
ATOM      2  O   UNL     1       9.607  -0.319  21.161  0.00  0.00    -0.387 OA
ATOM      3  H   UNL     1       8.656  -0.504  21.251  0.00  0.00    +0.210 HD
ENDBRANCH   1   2
BRANCH   1   4
ATOM      4  C   UNL     1       9.649  -1.690  23.134  0.00  0.00    +0.176 C 
BRANCH   4   5
ATOM      5  O   UNL     1       9.410  -1.394  24.532  0.00  0.00    -0.386 OA
ATOM      6  H   UNL     1       8.560  -1.823  24.745  0.00  0.00    +0.210 HD
ENDBRANCH   4   5
BRANCH   4   7
ATOM      7  C   UNL     1       8.353  -2.280  22.557  0.00  0.00    +0.172 C 
BRANCH   7   8
ATOM      8  O   UNL     1       7.246  -1.411  22.807  0.00  0.00    -0.387 OA
ATOM      9  H   UNL     1       7.262  -0.748  22.092  0.00  0.00    +0.210 HD
ENDBRANCH   7   8
BRANCH   7  10
ATOM     10  C   UNL     1       7.993  -3.697  23.038  0.00  0.00    +0.206 C 
BRANCH  10  11
ATOM     11  O   UNL     1       8.967  -4.043  24.025  0.00  0.00    -0.284 OA
BRANCH  11  12
ATOM     12  P   UNL     1       8.426  -4.995  25.365  0.00  0.00    +0.472 P 
ATOM     13  O   UNL     1       7.943  -5.847  26.564  0.00  0.00    -0.228 OA
BRANCH  12  14
ATOM     14  O   UNL     1       9.825  -5.831  25.261  0.00  0.00    -0.303 OA
ATOM     15  H   UNL     1      10.397  -5.440  25.956  0.00  0.00    +0.222 HD
ENDBRANCH  12  14
BRANCH  12  16
ATOM     16  O   UNL     1       9.032  -3.778  26.268  0.00  0.00    -0.303 OA
ATOM     17  H   UNL     1       9.805  -4.110  26.756  0.00  0.00    +0.222 HD
ENDBRANCH  12  16
ENDBRANCH  11  12
ENDBRANCH  10  11
ENDBRANCH   7  10
ENDBRANCH   4   7
ENDBRANCH   1   4
BRANCH   1  18
ATOM     18  C   UNL     1       9.926   0.949  23.225  0.00  0.00    +0.159 C 
BRANCH  18  19
ATOM     19  O   UNL     1       8.553   1.101  23.582  0.00  0.00    -0.388 OA
ATOM     20  H   UNL     1       8.051   1.074  22.747  0.00  0.00    +0.210 HD
ENDBRANCH  18  19
BRANCH  18  21
ATOM     21  C   UNL     1      10.342   2.076  22.245  0.00  0.00    +0.115 C 
BRANCH  21  22
ATOM     22  N   UNL     1      10.496   3.446  22.777  0.00  0.00    -0.303 NA
ATOM     23  H   UNL     1       9.778   3.631  23.487  0.00  0.00    +0.123 HD
BRANCH  22  24
ATOM     24  C   UNL     1      11.826   3.469  23.449  0.00  0.00    +0.209 C 
BRANCH  24  25
ATOM     25  P   UNL     1      12.570   5.094  23.201  0.00  0.00    +0.341 P 
ATOM     26  O   UNL     1      11.971   6.187  24.021  0.00  0.00    -0.257 OA
BRANCH  25  27
ATOM     27  O   UNL     1      14.146   4.843  23.391  0.00  0.00    -0.323 OA
ATOM     28  H   UNL     1      14.715   5.629  23.339  0.00  0.00    +0.220 HD
ENDBRANCH  25  27
BRANCH  25  29
ATOM     29  O   UNL     1      12.475   5.323  21.617  0.00  0.00    -0.323 OA
ATOM     30  H   UNL     1      12.372   4.478  21.135  0.00  0.00    +0.220 HD
ENDBRANCH  25  29
ENDBRANCH  24  25
ENDBRANCH  22  24
ENDBRANCH  21  22
ENDBRANCH  18  21
ENDBRANCH   1  18
TORSDOF 18
ENDMDL
MODEL 5
REMARK VINA RESULT:      -5.0      1.982      5.808
REMARK  Name = 
REMARK  18 active torsions:
REMARK  status: ('A' for Active; 'I' for Inactive)
REMARK    1  A    between atoms: O_1  and  C_2
REMARK    2  A    between atoms: C_2  and  C_4
REMARK    3  A    between atoms: C_2  and  C_11
REMARK    4  A    between atoms: C_4  and  N_5
REMARK    5  A    between atoms: N_5  and  C_6
REMARK    6  A    between atoms: C_6  and  P_7
REMARK    7  A    between atoms: P_7  and  O_8
REMARK    8  A    between atoms: P_7  and  O_9
REMARK    9  A    between atoms: C_11  and  O_13
REMARK   10  A    between atoms: C_11  and  C_14
REMARK   11  A    between atoms: C_14  and  O_16
REMARK   12  A    between atoms: C_14  and  C_17
REMARK   13  A    between atoms: C_17  and  O_19
REMARK   14  A    between atoms: C_17  and  C_20
REMARK   15  A    between atoms: C_20  and  O_21
REMARK   16  A    between atoms: O_21  and  P_22
REMARK   17  A    between atoms: P_22  and  O_23
REMARK   18  A    between atoms: P_22  and  O_24
REMARK                            x       y       z     vdW  Elec       q    Type
REMARK                         _______ _______ _______ _____ _____    ______ ____
ROOT
ATOM      1  C   UNL     1       9.419  -2.139  24.465  0.00  0.00    +0.175 C 
ENDROOT
BRANCH   1   2
ATOM      2  O   UNL     1       8.480  -1.069  24.747  0.00  0.00    -0.387 OA
ATOM      3  H   UNL     1       7.793  -1.441  25.327  0.00  0.00    +0.210 HD
ENDBRANCH   1   2
BRANCH   1   4
ATOM      4  C   UNL     1       9.678  -2.122  22.951  0.00  0.00    +0.176 C 
BRANCH   4   5
ATOM      5  O   UNL     1       8.403  -2.361  22.306  0.00  0.00    -0.386 OA
ATOM      6  H   UNL     1       7.870  -1.562  22.485  0.00  0.00    +0.210 HD
ENDBRANCH   4   5
BRANCH   4   7
ATOM      7  C   UNL     1      10.266  -0.835  22.353  0.00  0.00    +0.172 C 
BRANCH   7   8
ATOM      8  O   UNL     1      10.696   0.053  23.387  0.00  0.00    -0.387 OA
ATOM      9  H   UNL     1      11.611   0.302  23.161  0.00  0.00    +0.210 HD
ENDBRANCH   7   8
BRANCH   7  10
ATOM     10  C   UNL     1       9.348  -0.067  21.386  0.00  0.00    +0.206 C 
BRANCH  10  11
ATOM     11  O   UNL     1       8.253   0.409  22.171  0.00  0.00    -0.284 OA
BRANCH  11  12
ATOM     12  P   UNL     1       7.937   2.110  22.132  0.00  0.00    +0.472 P 
ATOM     13  O   UNL     1       7.655   3.633  22.098  0.00  0.00    -0.228 OA
BRANCH  12  14
ATOM     14  O   UNL     1       8.491   2.190  23.666  0.00  0.00    -0.303 OA
ATOM     15  H   UNL     1       8.034   1.457  24.131  0.00  0.00    +0.222 HD
ENDBRANCH  12  14
BRANCH  12  16
ATOM     16  O   UNL     1       9.405   2.205  21.425  0.00  0.00    -0.303 OA
ATOM     17  H   UNL     1       9.876   2.973  21.791  0.00  0.00    +0.222 HD
ENDBRANCH  12  16
ENDBRANCH  11  12
ENDBRANCH  10  11
ENDBRANCH   7  10
ENDBRANCH   4   7
ENDBRANCH   1   4
BRANCH   1  18
ATOM     18  C   UNL     1       8.889  -3.450  25.110  0.00  0.00    +0.159 C 
BRANCH  18  19
ATOM     19  O   UNL     1       8.967  -4.549  24.202  0.00  0.00    -0.388 OA
ATOM     20  H   UNL     1       9.596  -5.182  24.596  0.00  0.00    +0.210 HD
ENDBRANCH  18  19
BRANCH  18  21
ATOM     21  C   UNL     1       7.410  -3.192  25.497  0.00  0.00    +0.115 C 
BRANCH  21  22
ATOM     22  N   UNL     1       6.435  -2.946  24.414  0.00  0.00    -0.303 NA
ATOM     23  H   UNL     1       6.925  -2.808  23.523  0.00  0.00    +0.123 HD
BRANCH  22  24
ATOM     24  C   UNL     1       5.629  -4.195  24.308  0.00  0.00    +0.209 C 
BRANCH  24  25
ATOM     25  P   UNL     1       5.568  -4.697  22.575  0.00  0.00    +0.341 P 
ATOM     26  O   UNL     1       4.556  -5.748  22.265  0.00  0.00    -0.257 OA
BRANCH  25  27
ATOM     27  O   UNL     1       5.430  -3.316  21.766  0.00  0.00    -0.323 OA
ATOM     28  H   UNL     1       5.462  -3.381  20.797  0.00  0.00    +0.220 HD
ENDBRANCH  25  27
BRANCH  25  29
ATOM     29  O   UNL     1       7.080  -5.111  22.240  0.00  0.00    -0.323 OA
ATOM     30  H   UNL     1       7.455  -4.560  21.523  0.00  0.00    +0.220 HD
ENDBRANCH  25  29
ENDBRANCH  24  25
ENDBRANCH  22  24
ENDBRANCH  21  22
ENDBRANCH  18  21
ENDBRANCH   1  18
TORSDOF 18
ENDMDL
MODEL 6
REMARK VINA RESULT:      -5.0      2.006      3.617
REMARK  Name = 
REMARK  18 active torsions:
REMARK  status: ('A' for Active; 'I' for Inactive)
REMARK    1  A    between atoms: O_1  and  C_2
REMARK    2  A    between atoms: C_2  and  C_4
REMARK    3  A    between atoms: C_2  and  C_11
REMARK    4  A    between atoms: C_4  and  N_5
REMARK    5  A    between atoms: N_5  and  C_6
REMARK    6  A    between atoms: C_6  and  P_7
REMARK    7  A    between atoms: P_7  and  O_8
REMARK    8  A    between atoms: P_7  and  O_9
REMARK    9  A    between atoms: C_11  and  O_13
REMARK   10  A    between atoms: C_11  and  C_14
REMARK   11  A    between atoms: C_14  and  O_16
REMARK   12  A    between atoms: C_14  and  C_17
REMARK   13  A    between atoms: C_17  and  O_19
REMARK   14  A    between atoms: C_17  and  C_20
REMARK   15  A    between atoms: C_20  and  O_21
REMARK   16  A    between atoms: O_21  and  P_22
REMARK   17  A    between atoms: P_22  and  O_23
REMARK   18  A    between atoms: P_22  and  O_24
REMARK                            x       y       z     vdW  Elec       q    Type
REMARK                         _______ _______ _______ _____ _____    ______ ____
ROOT
ATOM      1  C   UNL     1       8.496  -1.275  22.324  0.00  0.00    +0.175 C 
ENDROOT
BRANCH   1   2
ATOM      2  O   UNL     1       7.961   0.074  22.277  0.00  0.00    -0.387 OA
ATOM      3  H   UNL     1       7.204   0.056  21.668  0.00  0.00    +0.210 HD
ENDBRANCH   1   2
BRANCH   1   4
ATOM      4  C   UNL     1       7.408  -2.169  22.939  0.00  0.00    +0.176 C 
BRANCH   4   5
ATOM      5  O   UNL     1       6.166  -1.428  22.862  0.00  0.00    -0.386 OA
ATOM      6  H   UNL     1       6.425  -0.487  22.898  0.00  0.00    +0.210 HD
ENDBRANCH   4   5
BRANCH   4   7
ATOM      7  C   UNL     1       7.173  -3.539  22.284  0.00  0.00    +0.172 C 
BRANCH   7   8
ATOM      8  O   UNL     1       5.883  -3.592  21.670  0.00  0.00    -0.387 OA
ATOM      9  H   UNL     1       5.841  -4.451  21.213  0.00  0.00    +0.210 HD
ENDBRANCH   7   8
BRANCH   7  10
ATOM     10  C   UNL     1       7.334  -4.758  23.209  0.00  0.00    +0.206 C 
BRANCH  10  11
ATOM     11  O   UNL     1       8.641  -4.657  23.777  0.00  0.00    -0.284 OA
BRANCH  11  12
ATOM     12  P   UNL     1       8.750  -4.631  25.504  0.00  0.00    +0.472 P 
ATOM     13  O   UNL     1       8.846  -4.607  27.050  0.00  0.00    -0.228 OA
BRANCH  12  14
ATOM     14  O   UNL     1       7.343  -5.459  25.547  0.00  0.00    -0.303 OA
ATOM     15  H   UNL     1       7.592  -6.347  25.882  0.00  0.00    +0.222 HD
ENDBRANCH  12  14
BRANCH  12  16
ATOM     16  O   UNL     1       9.703  -5.941  25.305  0.00  0.00    -0.303 OA
ATOM     17  H   UNL     1      10.617  -5.640  25.165  0.00  0.00    +0.222 HD
ENDBRANCH  12  16
ENDBRANCH  11  12
ENDBRANCH  10  11
ENDBRANCH   7  10
ENDBRANCH   4   7
ENDBRANCH   1   4
BRANCH   1  18
ATOM     18  C   UNL     1       9.892  -1.234  23.005  0.00  0.00    +0.159 C 
BRANCH  18  19
ATOM     19  O   UNL     1      10.526  -2.513  22.977  0.00  0.00    -0.388 OA
ATOM     20  H   UNL     1      10.947  -2.625  23.850  0.00  0.00    +0.210 HD
ENDBRANCH  18  19
BRANCH  18  21
ATOM     21  C   UNL     1       9.660  -0.794  24.473  0.00  0.00    +0.115 C 
BRANCH  21  22
ATOM     22  N   UNL     1       9.487   0.647  24.754  0.00  0.00    -0.303 NA
ATOM     23  H   UNL     1       9.497   0.812  25.767  0.00  0.00    +0.123 HD
BRANCH  22  24
ATOM     24  C   UNL     1      10.681   1.317  24.165  0.00  0.00    +0.209 C 
BRANCH  24  25
ATOM     25  P   UNL     1      10.127   2.721  23.176  0.00  0.00    +0.341 P 
ATOM     26  O   UNL     1       8.843   3.333  23.626  0.00  0.00    -0.257 OA
BRANCH  25  27
ATOM     27  O   UNL     1      11.401   3.697  23.122  0.00  0.00    -0.323 OA
ATOM     28  H   UNL     1      11.258   4.608  23.429  0.00  0.00    +0.220 HD
ENDBRANCH  25  27
BRANCH  25  29
ATOM     29  O   UNL     1      10.101   2.150  21.678  0.00  0.00    -0.323 OA
ATOM     30  H   UNL     1       9.666   1.275  21.632  0.00  0.00    +0.220 HD
ENDBRANCH  25  29
ENDBRANCH  24  25
ENDBRANCH  22  24
ENDBRANCH  21  22
ENDBRANCH  18  21
ENDBRANCH   1  18
TORSDOF 18
ENDMDL
MODEL 7
REMARK VINA RESULT:      -5.0      2.242      6.254
REMARK  Name = 
REMARK  18 active torsions:
REMARK  status: ('A' for Active; 'I' for Inactive)
REMARK    1  A    between atoms: O_1  and  C_2
REMARK    2  A    between atoms: C_2  and  C_4
REMARK    3  A    between atoms: C_2  and  C_11
REMARK    4  A    between atoms: C_4  and  N_5
REMARK    5  A    between atoms: N_5  and  C_6
REMARK    6  A    between atoms: C_6  and  P_7
REMARK    7  A    between atoms: P_7  and  O_8
REMARK    8  A    between atoms: P_7  and  O_9
REMARK    9  A    between atoms: C_11  and  O_13
REMARK   10  A    between atoms: C_11  and  C_14
REMARK   11  A    between atoms: C_14  and  O_16
REMARK   12  A    between atoms: C_14  and  C_17
REMARK   13  A    between atoms: C_17  and  O_19
REMARK   14  A    between atoms: C_17  and  C_20
REMARK   15  A    between atoms: C_20  and  O_21
REMARK   16  A    between atoms: O_21  and  P_22
REMARK   17  A    between atoms: P_22  and  O_23
REMARK   18  A    between atoms: P_22  and  O_24
REMARK                            x       y       z     vdW  Elec       q    Type
REMARK                         _______ _______ _______ _____ _____    ______ ____
ROOT
ATOM      1  C   UNL     1       9.457  -1.498  24.071  0.00  0.00    +0.175 C 
ENDROOT
BRANCH   1   2
ATOM      2  O   UNL     1       8.236  -0.755  24.328  0.00  0.00    -0.387 OA
ATOM      3  H   UNL     1       7.540  -1.410  24.508  0.00  0.00    +0.210 HD
ENDBRANCH   1   2
BRANCH   1   4
ATOM      4  C   UNL     1      10.441  -0.526  23.401  0.00  0.00    +0.176 C 
BRANCH   4   5
ATOM      5  O   UNL     1       9.831  -0.106  22.156  0.00  0.00    -0.386 OA
ATOM      6  H   UNL     1      10.488  -0.315  21.464  0.00  0.00    +0.210 HD
ENDBRANCH   4   5
BRANCH   4   7
ATOM      7  C   UNL     1      10.819   0.741  24.184  0.00  0.00    +0.172 C 
BRANCH   7   8
ATOM      8  O   UNL     1      10.448   0.617  25.558  0.00  0.00    -0.387 OA
ATOM      9  H   UNL     1      11.211   0.942  26.070  0.00  0.00    +0.210 HD
ENDBRANCH   7   8
BRANCH   7  10
ATOM     10  C   UNL     1      10.252   2.061  23.632  0.00  0.00    +0.206 C 
BRANCH  10  11
ATOM     11  O   UNL     1       8.859   2.060  23.950  0.00  0.00    -0.284 OA
BRANCH  11  12
ATOM     12  P   UNL     1       7.786   2.763  22.789  0.00  0.00    +0.472 P 
ATOM     13  O   UNL     1       6.825   3.392  21.750  0.00  0.00    -0.228 OA
BRANCH  12  14
ATOM     14  O   UNL     1       8.974   2.604  21.680  0.00  0.00    -0.303 OA
ATOM     15  H   UNL     1       9.783   2.915  22.141  0.00  0.00    +0.222 HD
ENDBRANCH  12  14
BRANCH  12  16
ATOM     16  O   UNL     1       7.215   1.242  22.633  0.00  0.00    -0.303 OA
ATOM     17  H   UNL     1       6.424   1.149  23.191  0.00  0.00    +0.222 HD
ENDBRANCH  12  16
ENDBRANCH  11  12
ENDBRANCH  10  11
ENDBRANCH   7  10
ENDBRANCH   4   7
ENDBRANCH   1   4
BRANCH   1  18
ATOM     18  C   UNL     1       9.094  -2.812  23.325  0.00  0.00    +0.159 C 
BRANCH  18  19
ATOM     19  O   UNL     1       8.277  -2.558  22.183  0.00  0.00    -0.388 OA
ATOM     20  H   UNL     1       7.926  -3.424  21.904  0.00  0.00    +0.210 HD
ENDBRANCH  18  19
BRANCH  18  21
ATOM     21  C   UNL     1       8.323  -3.701  24.336  0.00  0.00    +0.115 C 
BRANCH  21  22
ATOM     22  N   UNL     1       6.849  -3.605  24.370  0.00  0.00    -0.303 NA
ATOM     23  H   UNL     1       6.514  -3.038  23.583  0.00  0.00    +0.123 HD
BRANCH  22  24
ATOM     24  C   UNL     1       6.352  -4.997  24.180  0.00  0.00    +0.209 C 
BRANCH  24  25
ATOM     25  P   UNL     1       5.897  -5.216  22.447  0.00  0.00    +0.341 P 
ATOM     26  O   UNL     1       7.050  -5.363  21.513  0.00  0.00    -0.257 OA
BRANCH  25  27
ATOM     27  O   UNL     1       4.837  -6.424  22.464  0.00  0.00    -0.323 OA
ATOM     28  H   UNL     1       3.976  -6.245  22.051  0.00  0.00    +0.220 HD
ENDBRANCH  25  27
BRANCH  25  29
ATOM     29  O   UNL     1       4.945  -3.964  22.138  0.00  0.00    -0.323 OA
ATOM     30  H   UNL     1       3.999  -4.202  22.215  0.00  0.00    +0.220 HD
ENDBRANCH  25  29
ENDBRANCH  24  25
ENDBRANCH  22  24
ENDBRANCH  21  22
ENDBRANCH  18  21
ENDBRANCH   1  18
TORSDOF 18
ENDMDL
MODEL 8
REMARK VINA RESULT:      -4.9      1.896      3.313
REMARK  Name = 
REMARK  18 active torsions:
REMARK  status: ('A' for Active; 'I' for Inactive)
REMARK    1  A    between atoms: O_1  and  C_2
REMARK    2  A    between atoms: C_2  and  C_4
REMARK    3  A    between atoms: C_2  and  C_11
REMARK    4  A    between atoms: C_4  and  N_5
REMARK    5  A    between atoms: N_5  and  C_6
REMARK    6  A    between atoms: C_6  and  P_7
REMARK    7  A    between atoms: P_7  and  O_8
REMARK    8  A    between atoms: P_7  and  O_9
REMARK    9  A    between atoms: C_11  and  O_13
REMARK   10  A    between atoms: C_11  and  C_14
REMARK   11  A    between atoms: C_14  and  O_16
REMARK   12  A    between atoms: C_14  and  C_17
REMARK   13  A    between atoms: C_17  and  O_19
REMARK   14  A    between atoms: C_17  and  C_20
REMARK   15  A    between atoms: C_20  and  O_21
REMARK   16  A    between atoms: O_21  and  P_22
REMARK   17  A    between atoms: P_22  and  O_23
REMARK   18  A    between atoms: P_22  and  O_24
REMARK                            x       y       z     vdW  Elec       q    Type
REMARK                         _______ _______ _______ _____ _____    ______ ____
ROOT
ATOM      1  C   UNL     1       8.137  -1.899  23.468  0.00  0.00    +0.175 C 
ENDROOT
BRANCH   1   2
ATOM      2  O   UNL     1       7.624  -1.820  24.824  0.00  0.00    -0.387 OA
ATOM      3  H   UNL     1       7.857  -2.655  25.263  0.00  0.00    +0.210 HD
ENDBRANCH   1   2
BRANCH   1   4
ATOM      4  C   UNL     1       8.248  -3.391  23.115  0.00  0.00    +0.176 C 
BRANCH   4   5
ATOM      5  O   UNL     1       9.061  -4.004  24.145  0.00  0.00    -0.386 OA
ATOM      6  H   UNL     1       8.430  -4.451  24.740  0.00  0.00    +0.210 HD
ENDBRANCH   4   5
BRANCH   4   7
ATOM      7  C   UNL     1       6.939  -4.189  23.021  0.00  0.00    +0.172 C 
BRANCH   7   8
ATOM      8  O   UNL     1       5.812  -3.310  22.969  0.00  0.00    -0.387 OA
ATOM      9  H   UNL     1       5.104  -3.756  23.469  0.00  0.00    +0.210 HD
ENDBRANCH   7   8
BRANCH   7  10
ATOM     10  C   UNL     1       6.708  -5.228  24.133  0.00  0.00    +0.206 C 
BRANCH  10  11
ATOM     11  O   UNL     1       6.474  -4.485  25.330  0.00  0.00    -0.284 OA
BRANCH  11  12
ATOM     12  P   UNL     1       6.904  -5.243  26.825  0.00  0.00    +0.472 P 
ATOM     13  O   UNL     1       7.290  -5.922  28.163  0.00  0.00    -0.228 OA
BRANCH  12  14
ATOM     14  O   UNL     1       8.117  -5.992  26.029  0.00  0.00    -0.303 OA
ATOM     15  H   UNL     1       8.170  -6.881  26.442  0.00  0.00    +0.222 HD
ENDBRANCH  12  14
BRANCH  12  16
ATOM     16  O   UNL     1       7.726  -3.860  27.106  0.00  0.00    -0.303 OA
ATOM     17  H   UNL     1       7.254  -3.127  26.674  0.00  0.00    +0.222 HD
ENDBRANCH  12  16
ENDBRANCH  11  12
ENDBRANCH  10  11
ENDBRANCH   7  10
ENDBRANCH   4   7
ENDBRANCH   1   4
BRANCH   1  18
ATOM     18  C   UNL     1       9.414  -1.019  23.365  0.00  0.00    +0.159 C 
BRANCH  18  19
ATOM     19  O   UNL     1      10.512  -1.750  22.819  0.00  0.00    -0.388 OA
ATOM     20  H   UNL     1      11.310  -1.416  23.269  0.00  0.00    +0.210 HD
ENDBRANCH  18  19
BRANCH  18  21
ATOM     21  C   UNL     1       9.755  -0.556  24.806  0.00  0.00    +0.115 C 
BRANCH  21  22
ATOM     22  N   UNL     1       9.848   0.894  25.071  0.00  0.00    -0.303 NA
ATOM     23  H   UNL     1      10.198   1.056  26.023  0.00  0.00    +0.123 HD
BRANCH  22  24
ATOM     24  C   UNL     1      10.863   1.414  24.112  0.00  0.00    +0.209 C 
BRANCH  24  25
ATOM     25  P   UNL     1      10.123   2.754  23.157  0.00  0.00    +0.341 P 
ATOM     26  O   UNL     1       8.774   3.184  23.627  0.00  0.00    -0.257 OA
BRANCH  25  27
ATOM     27  O   UNL     1      11.259   3.890  23.118  0.00  0.00    -0.323 OA
ATOM     28  H   UNL     1      11.479   4.307  23.967  0.00  0.00    +0.220 HD
ENDBRANCH  25  27
BRANCH  25  29
ATOM     29  O   UNL     1      10.160   2.217  21.647  0.00  0.00    -0.323 OA
ATOM     30  H   UNL     1      10.765   1.453  21.550  0.00  0.00    +0.220 HD
ENDBRANCH  25  29
ENDBRANCH  24  25
ENDBRANCH  22  24
ENDBRANCH  21  22
ENDBRANCH  18  21
ENDBRANCH   1  18
TORSDOF 18
ENDMDL
MODEL 9
REMARK VINA RESULT:      -4.9      1.925      2.399
REMARK  Name = 
REMARK  18 active torsions:
REMARK  status: ('A' for Active; 'I' for Inactive)
REMARK    1  A    between atoms: O_1  and  C_2
REMARK    2  A    between atoms: C_2  and  C_4
REMARK    3  A    between atoms: C_2  and  C_11
REMARK    4  A    between atoms: C_4  and  N_5
REMARK    5  A    between atoms: N_5  and  C_6
REMARK    6  A    between atoms: C_6  and  P_7
REMARK    7  A    between atoms: P_7  and  O_8
REMARK    8  A    between atoms: P_7  and  O_9
REMARK    9  A    between atoms: C_11  and  O_13
REMARK   10  A    between atoms: C_11  and  C_14
REMARK   11  A    between atoms: C_14  and  O_16
REMARK   12  A    between atoms: C_14  and  C_17
REMARK   13  A    between atoms: C_17  and  O_19
REMARK   14  A    between atoms: C_17  and  C_20
REMARK   15  A    between atoms: C_20  and  O_21
REMARK   16  A    between atoms: O_21  and  P_22
REMARK   17  A    between atoms: P_22  and  O_23
REMARK   18  A    between atoms: P_22  and  O_24
REMARK                            x       y       z     vdW  Elec       q    Type
REMARK                         _______ _______ _______ _____ _____    ______ ____
ROOT
ATOM      1  C   UNL     1       8.771  -3.278  24.165  0.00  0.00    +0.175 C 
ENDROOT
BRANCH   1   2
ATOM      2  O   UNL     1      10.194  -3.122  23.925  0.00  0.00    -0.387 OA
ATOM      3  H   UNL     1      10.542  -2.566  24.642  0.00  0.00    +0.210 HD
ENDBRANCH   1   2
BRANCH   1   4
ATOM      4  C   UNL     1       8.540  -4.745  24.562  0.00  0.00    +0.176 C 
BRANCH   4   5
ATOM      5  O   UNL     1       9.846  -5.319  24.818  0.00  0.00    -0.386 OA
ATOM      6  H   UNL     1      10.467  -4.565  24.797  0.00  0.00    +0.210 HD
ENDBRANCH   4   5
BRANCH   4   7
ATOM      7  C   UNL     1       7.667  -5.010  25.797  0.00  0.00    +0.172 C 
BRANCH   7   8
ATOM      8  O   UNL     1       8.309  -5.928  26.684  0.00  0.00    -0.387 OA
ATOM      9  H   UNL     1       8.185  -6.811  26.289  0.00  0.00    +0.210 HD
ENDBRANCH   7   8
BRANCH   7  10
ATOM     10  C   UNL     1       6.239  -5.509  25.511  0.00  0.00    +0.206 C 
BRANCH  10  11
ATOM     11  O   UNL     1       6.130  -5.611  24.090  0.00  0.00    -0.284 OA
BRANCH  11  12
ATOM     12  P   UNL     1       4.534  -5.640  23.423  0.00  0.00    +0.472 P 
ATOM     13  O   UNL     1       3.105  -5.666  22.825  0.00  0.00    -0.228 OA
BRANCH  12  14
ATOM     14  O   UNL     1       5.215  -5.582  21.940  0.00  0.00    -0.303 OA
ATOM     15  H   UNL     1       5.173  -6.506  21.614  0.00  0.00    +0.222 HD
ENDBRANCH  12  14
BRANCH  12  16
ATOM     16  O   UNL     1       4.663  -7.258  23.596  0.00  0.00    -0.303 OA
ATOM     17  H   UNL     1       4.965  -7.449  24.500  0.00  0.00    +0.222 HD
ENDBRANCH  12  16
ENDBRANCH  11  12
ENDBRANCH  10  11
ENDBRANCH   7  10
ENDBRANCH   4   7
ENDBRANCH   1   4
BRANCH   1  18
ATOM     18  C   UNL     1       7.993  -2.712  22.946  0.00  0.00    +0.159 C 
BRANCH  18  19
ATOM     19  O   UNL     1       7.454  -3.756  22.136  0.00  0.00    -0.388 OA
ATOM     20  H   UNL     1       8.202  -4.117  21.626  0.00  0.00    +0.210 HD
ENDBRANCH  18  19
BRANCH  18  21
ATOM     21  C   UNL     1       9.005  -1.876  22.119  0.00  0.00    +0.115 C 
BRANCH  21  22
ATOM     22  N   UNL     1       8.724  -0.440  21.913  0.00  0.00    -0.303 NA
ATOM     23  H   UNL     1       8.026  -0.116  22.592  0.00  0.00    +0.123 HD
BRANCH  22  24
ATOM     24  C   UNL     1      10.006   0.266  22.196  0.00  0.00    +0.209 C 
BRANCH  24  25
ATOM     25  P   UNL     1       9.924   0.965  23.858  0.00  0.00    +0.341 P 
ATOM     26  O   UNL     1      10.636   2.266  24.023  0.00  0.00    -0.257 OA
BRANCH  25  27
ATOM     27  O   UNL     1       8.358   0.959  24.216  0.00  0.00    -0.323 OA
ATOM     28  H   UNL     1       7.759   0.647  23.518  0.00  0.00    +0.220 HD
ENDBRANCH  25  27
BRANCH  25  29
ATOM     29  O   UNL     1      10.468  -0.214  24.799  0.00  0.00    -0.323 OA
ATOM     30  H   UNL     1       9.835  -0.425  25.515  0.00  0.00    +0.220 HD
ENDBRANCH  25  29
ENDBRANCH  24  25
ENDBRANCH  22  24
ENDBRANCH  21  22
ENDBRANCH  18  21
ENDBRANCH   1  18
TORSDOF 18
ENDMDL
