MODEL 1
REMARK VINA RESULT:      -7.8      0.000      0.000
REMARK  Name = 
REMARK  5 active torsions:
REMARK  status: ('A' for Active; 'I' for Inactive)
REMARK    1  A    between atoms: O_1  and  C_2
REMARK    2  A    between atoms: C_3  and  C_19
REMARK    3  A    between atoms: N_6  and  C_7
REMARK    4  A    between atoms: C_7  and  C_8
REMARK    5  A    between atoms: C_8  and  C_9
REMARK                            x       y       z     vdW  Elec       q    Type
REMARK                         _______ _______ _______ _____ _____    ______ ____
ROOT
ATOM      1  C   UNL     1       6.838   0.940  23.416  0.00  0.00    +0.146 A 
ATOM      2  C   UNL     1       6.867   2.402  23.247  0.00  0.00    +0.044 A 
ATOM      3  C   UNL     1       5.697   3.169  23.399  0.00  0.00    +0.052 A 
ATOM      4  C   UNL     1       5.727   4.545  23.212  0.00  0.00    +0.124 A 
ATOM      5  C   UNL     1       6.909   5.192  22.893  0.00  0.00    +0.040 A 
ATOM      6  C   UNL     1       8.081   4.446  22.750  0.00  0.00    +0.029 A 
ATOM      7  F   UNL     1       4.600   5.258  23.337  0.00  0.00    -0.205 F 
ATOM      8  C   UNL     1       8.074   3.048  22.902  0.00  0.00    +0.056 A 
ATOM      9  N   UNL     1       9.243   2.256  22.698  0.00  0.00    -0.307 N 
ATOM     10  C   UNL     1       9.220   0.875  22.835  0.00  0.00    +0.270 A 
ATOM     11  O   UNL     1      10.230   0.179  22.685  0.00  0.00    -0.267 OA
ATOM     12  C   UNL     1       7.937   0.201  23.179  0.00  0.00    +0.173 A 
ENDROOT
BRANCH  12  13
ATOM     13  C   UNL     1       7.866  -1.298  23.232  0.00  0.00    +0.351 C 
ATOM     14  N   UNL     1       8.493  -1.855  24.349  0.00  0.00    -0.090 N 
ATOM     15  H   UNL     1       8.413  -1.338  25.234  0.00  0.00    +0.326 HD
ATOM     16  S   UNL     1       8.760  -3.465  24.566  0.00  0.00    +0.136 S 
ATOM     17  O   UNL     1      10.131  -3.750  24.208  0.00  0.00    -0.130 OA
ATOM     18  O   UNL     1       8.231  -3.795  25.871  0.00  0.00    -0.130 OA
ATOM     19  C   UNL     1       7.732  -4.204  23.376  0.00  0.00    +0.179 A 
ATOM     20  C   UNL     1       7.132  -3.393  22.419  0.00  0.00    +0.205 A 
ATOM     21  C   UNL     1       6.281  -4.022  21.501  0.00  0.00    +0.057 A 
ATOM     22  C   UNL     1       6.062  -5.406  21.535  0.00  0.00    +0.004 A 
ATOM     23  C   UNL     1       6.700  -6.194  22.489  0.00  0.00    +0.002 A 
ATOM     24  C   UNL     1       7.539  -5.591  23.420  0.00  0.00    +0.035 A 
ATOM     25  N   UNL     1       7.291  -1.998  22.306  0.00  0.00    -0.037 NA
ENDBRANCH  12  13
BRANCH   1  26
ATOM     26  O   UNL     1       5.613   0.420  23.795  0.00  0.00    -0.505 OA
ATOM     27  H   UNL     1       5.190  -0.008  23.019  0.00  0.00    +0.292 HD
ENDBRANCH   1  26
BRANCH   9  28
ATOM     28  C   UNL     1      10.532   2.870  22.348  0.00  0.00    +0.126 C 
BRANCH  28  29
ATOM     29  C   UNL     1      11.184   3.596  23.531  0.00  0.00    +0.025 C 
BRANCH  29  30
ATOM     30  C   UNL     1      11.684   4.962  23.144  0.00  0.00    -0.009 C 
ATOM     31  C   UNL     1      13.161   5.266  23.103  0.00  0.00    +0.004 C 
ATOM     32  C   UNL     1      12.305   5.846  24.194  0.00  0.00    +0.004 C 
ENDBRANCH  29  30
ENDBRANCH  28  29
ENDBRANCH   9  28
TORSDOF 5
ENDMDL
MODEL 2
REMARK VINA RESULT:      -7.6      1.987      3.804
REMARK  Name = 
REMARK  5 active torsions:
REMARK  status: ('A' for Active; 'I' for Inactive)
REMARK    1  A    between atoms: O_1  and  C_2
REMARK    2  A    between atoms: C_3  and  C_19
REMARK    3  A    between atoms: N_6  and  C_7
REMARK    4  A    between atoms: C_7  and  C_8
REMARK    5  A    between atoms: C_8  and  C_9
REMARK                            x       y       z     vdW  Elec       q    Type
REMARK                         _______ _______ _______ _____ _____    ______ ____
ROOT
ATOM      1  C   UNL     1       9.663   1.302  23.465  0.00  0.00    +0.146 A 
ATOM      2  C   UNL     1      10.021   2.727  23.545  0.00  0.00    +0.044 A 
ATOM      3  C   UNL     1      11.348   3.150  23.350  0.00  0.00    +0.052 A 
ATOM      4  C   UNL     1      11.683   4.494  23.454  0.00  0.00    +0.124 A 
ATOM      5  C   UNL     1      10.717   5.446  23.730  0.00  0.00    +0.040 A 
ATOM      6  C   UNL     1       9.392   5.044  23.915  0.00  0.00    +0.029 A 
ATOM      7  F   UNL     1      12.956   4.878  23.288  0.00  0.00    -0.205 F 
ATOM      8  C   UNL     1       9.030   3.687  23.848  0.00  0.00    +0.056 A 
ATOM      9  N   UNL     1       7.697   3.243  24.096  0.00  0.00    -0.307 N 
ATOM     10  C   UNL     1       7.355   1.899  24.044  0.00  0.00    +0.270 A 
ATOM     11  O   UNL     1       6.201   1.502  24.233  0.00  0.00    -0.267 OA
ATOM     12  C   UNL     1       8.412   0.892  23.743  0.00  0.00    +0.173 A 
ENDROOT
BRANCH  12  13
ATOM     13  C   UNL     1       8.087  -0.574  23.781  0.00  0.00    +0.351 C 
ATOM     14  N   UNL     1       8.829  -1.293  24.722  0.00  0.00    -0.090 N 
ATOM     15  H   UNL     1       9.033  -0.822  25.612  0.00  0.00    +0.326 HD
ATOM     16  S   UNL     1       8.844  -2.935  24.843  0.00  0.00    +0.136 S 
ATOM     17  O   UNL     1      10.033  -3.427  24.186  0.00  0.00    -0.130 OA
ATOM     18  O   UNL     1       8.555  -3.244  26.226  0.00  0.00    -0.130 OA
ATOM     19  C   UNL     1       7.470  -3.418  23.895  0.00  0.00    +0.179 A 
ATOM     20  C   UNL     1       6.835  -2.462  23.110  0.00  0.00    +0.205 A 
ATOM     21  C   UNL     1       5.709  -2.883  22.390  0.00  0.00    +0.057 A 
ATOM     22  C   UNL     1       5.258  -4.209  22.445  0.00  0.00    +0.004 A 
ATOM     23  C   UNL     1       5.933  -5.148  23.220  0.00  0.00    +0.002 A 
ATOM     24  C   UNL     1       7.045  -4.752  23.954  0.00  0.00    +0.035 A 
ATOM     25  N   UNL     1       7.212  -1.110  22.991  0.00  0.00    -0.037 NA
ENDBRANCH  12  13
BRANCH   1  26
ATOM     26  O   UNL     1      10.704   0.457  23.121  0.00  0.00    -0.505 OA
ATOM     27  H   UNL     1      11.466   0.992  22.811  0.00  0.00    +0.292 HD
ENDBRANCH   1  26
BRANCH   9  28
ATOM     28  C   UNL     1       6.619   4.193  24.406  0.00  0.00    +0.126 C 
BRANCH  28  29
ATOM     29  C   UNL     1       5.973   4.788  23.148  0.00  0.00    +0.025 C 
BRANCH  29  30
ATOM     30  C   UNL     1       6.139   6.282  23.087  0.00  0.00    -0.009 C 
ATOM     31  C   UNL     1       5.377   7.108  22.079  0.00  0.00    +0.004 C 
ATOM     32  C   UNL     1       6.856   6.898  21.912  0.00  0.00    +0.004 C 
ENDBRANCH  29  30
ENDBRANCH  28  29
ENDBRANCH   9  28
TORSDOF 5
ENDMDL
MODEL 3
REMARK VINA RESULT:      -7.6      4.026      8.755
REMARK  Name = 
REMARK  5 active torsions:
REMARK  status: ('A' for Active; 'I' for Inactive)
REMARK    1  A    between atoms: O_1  and  C_2
REMARK    2  A    between atoms: C_3  and  C_19
REMARK    3  A    between atoms: N_6  and  C_7
REMARK    4  A    between atoms: C_7  and  C_8
REMARK    5  A    between atoms: C_8  and  C_9
REMARK                            x       y       z     vdW  Elec       q    Type
REMARK                         _______ _______ _______ _____ _____    ______ ____
ROOT
ATOM      1  C   UNL     1       5.662  -3.970  23.338  0.00  0.00    +0.146 A 
ATOM      2  C   UNL     1       4.878  -5.117  23.825  0.00  0.00    +0.044 A 
ATOM      3  C   UNL     1       3.777  -5.600  23.094  0.00  0.00    +0.052 A 
ATOM      4  C   UNL     1       3.025  -6.665  23.573  0.00  0.00    +0.124 A 
ATOM      5  C   UNL     1       3.355  -7.286  24.766  0.00  0.00    +0.040 A 
ATOM      6  C   UNL     1       4.452  -6.826  25.498  0.00  0.00    +0.029 A 
ATOM      7  F   UNL     1       1.966  -7.099  22.877  0.00  0.00    -0.205 F 
ATOM      8  C   UNL     1       5.211  -5.728  25.053  0.00  0.00    +0.056 A 
ATOM      9  N   UNL     1       6.296  -5.198  25.813  0.00  0.00    -0.307 N 
ATOM     10  C   UNL     1       7.028  -4.104  25.371  0.00  0.00    +0.270 A 
ATOM     11  O   UNL     1       7.984  -3.648  26.006  0.00  0.00    -0.267 OA
ATOM     12  C   UNL     1       6.655  -3.453  24.083  0.00  0.00    +0.173 A 
ENDROOT
BRANCH  12  13
ATOM     13  C   UNL     1       7.366  -2.208  23.637  0.00  0.00    +0.351 C 
ATOM     14  N   UNL     1       8.739  -2.379  23.444  0.00  0.00    -0.090 N 
ATOM     15  H   UNL     1       9.045  -3.277  23.047  0.00  0.00    +0.326 HD
ATOM     16  S   UNL     1       9.804  -1.155  23.165  0.00  0.00    +0.136 S 
ATOM     17  O   UNL     1      10.469  -0.840  24.409  0.00  0.00    -0.130 OA
ATOM     18  O   UNL     1      10.546  -1.522  21.978  0.00  0.00    -0.130 OA
ATOM     19  C   UNL     1       8.775   0.184  22.754  0.00  0.00    +0.179 A 
ATOM     20  C   UNL     1       7.405   0.053  22.948  0.00  0.00    +0.205 A 
ATOM     21  C   UNL     1       6.607   1.140  22.569  0.00  0.00    +0.057 A 
ATOM     22  C   UNL     1       7.167   2.310  22.038  0.00  0.00    +0.004 A 
ATOM     23  C   UNL     1       8.547   2.419  21.882  0.00  0.00    +0.002 A 
ATOM     24  C   UNL     1       9.359   1.348  22.238  0.00  0.00    +0.035 A 
ATOM     25  N   UNL     1       6.751  -1.080  23.473  0.00  0.00    -0.037 NA
ENDBRANCH  12  13
BRANCH   1  26
ATOM     26  O   UNL     1       5.272  -3.477  22.105  0.00  0.00    -0.505 OA
ATOM     27  H   UNL     1       4.297  -3.369  22.094  0.00  0.00    +0.292 HD
ENDBRANCH   1  26
BRANCH   9  28
ATOM     28  C   UNL     1       6.699  -5.796  27.093  0.00  0.00    +0.126 C 
BRANCH  28  29
ATOM     29  C   UNL     1       5.863  -5.286  28.274  0.00  0.00    +0.025 C 
BRANCH  29  30
ATOM     30  C   UNL     1       5.347  -6.416  29.124  0.00  0.00    -0.009 C 
ATOM     31  C   UNL     1       3.869  -6.712  29.209  0.00  0.00    +0.004 C 
ATOM     32  C   UNL     1       4.581  -6.101  30.384  0.00  0.00    +0.004 C 
ENDBRANCH  29  30
ENDBRANCH  28  29
ENDBRANCH   9  28
TORSDOF 5
ENDMDL
MODEL 4
REMARK VINA RESULT:      -7.4      3.855      9.017
REMARK  Name = 
REMARK  5 active torsions:
REMARK  status: ('A' for Active; 'I' for Inactive)
REMARK    1  A    between atoms: O_1  and  C_2
REMARK    2  A    between atoms: C_3  and  C_19
REMARK    3  A    between atoms: N_6  and  C_7
REMARK    4  A    between atoms: C_7  and  C_8
REMARK    5  A    between atoms: C_8  and  C_9
REMARK                            x       y       z     vdW  Elec       q    Type
REMARK                         _______ _______ _______ _____ _____    ______ ____
ROOT
ATOM      1  C   UNL     1       7.227  -3.279  25.746  0.00  0.00    +0.146 A 
ATOM      2  C   UNL     1       6.508  -4.470  26.225  0.00  0.00    +0.044 A 
ATOM      3  C   UNL     1       6.728  -4.975  27.520  0.00  0.00    +0.052 A 
ATOM      4  C   UNL     1       6.066  -6.115  27.955  0.00  0.00    +0.124 A 
ATOM      5  C   UNL     1       5.161  -6.767  27.133  0.00  0.00    +0.040 A 
ATOM      6  C   UNL     1       4.923  -6.273  25.848  0.00  0.00    +0.029 A 
ATOM      7  F   UNL     1       6.303  -6.596  29.182  0.00  0.00    -0.205 F 
ATOM      8  C   UNL     1       5.605  -5.139  25.370  0.00  0.00    +0.056 A 
ATOM      9  N   UNL     1       5.427  -4.651  24.041  0.00  0.00    -0.307 N 
ATOM     10  C   UNL     1       6.117  -3.541  23.575  0.00  0.00    +0.270 A 
ATOM     11  O   UNL     1       5.957  -3.093  22.435  0.00  0.00    -0.267 OA
ATOM     12  C   UNL     1       7.084  -2.855  24.478  0.00  0.00    +0.173 A 
ENDROOT
BRANCH  12  13
ATOM     13  C   UNL     1       7.915  -1.715  23.963  0.00  0.00    +0.351 C 
ATOM     14  N   UNL     1       8.500  -1.960  22.718  0.00  0.00    -0.090 N 
ATOM     15  H   UNL     1       7.943  -2.495  22.039  0.00  0.00    +0.326 HD
ATOM     16  S   UNL     1       9.625  -0.991  22.006  0.00  0.00    +0.136 S 
ATOM     17  O   UNL     1      10.930  -1.567  22.235  0.00  0.00    -0.130 OA
ATOM     18  O   UNL     1       9.140  -0.713  20.672  0.00  0.00    -0.130 OA
ATOM     19  C   UNL     1       9.522   0.481  22.924  0.00  0.00    +0.179 A 
ATOM     20  C   UNL     1       8.772   0.483  24.095  0.00  0.00    +0.205 A 
ATOM     21  C   UNL     1       8.683   1.699  24.785  0.00  0.00    +0.057 A 
ATOM     22  C   UNL     1       9.335   2.852  24.326  0.00  0.00    +0.004 A 
ATOM     23  C   UNL     1      10.100   2.809  23.164  0.00  0.00    +0.002 A 
ATOM     24  C   UNL     1      10.193   1.617  22.453  0.00  0.00    +0.035 A 
ATOM     25  N   UNL     1       8.084  -0.621  24.635  0.00  0.00    -0.037 NA
ENDBRANCH  12  13
BRANCH   1  26
ATOM     26  O   UNL     1       8.055  -2.682  26.681  0.00  0.00    -0.505 OA
ATOM     27  H   UNL     1       8.487  -3.378  27.222  0.00  0.00    +0.292 HD
ENDBRANCH   1  26
BRANCH   9  28
ATOM     28  C   UNL     1       4.493  -5.296  23.107  0.00  0.00    +0.126 C 
BRANCH  28  29
ATOM     29  C   UNL     1       3.032  -4.912  23.371  0.00  0.00    +0.025 C 
BRANCH  29  30
ATOM     30  C   UNL     1       2.085  -6.016  22.985  0.00  0.00    -0.009 C 
ATOM     31  C   UNL     1       0.886  -6.347  23.841  0.00  0.00    +0.004 C 
ATOM     32  C   UNL     1       2.060  -7.285  23.798  0.00  0.00    +0.004 C 
ENDBRANCH  29  30
ENDBRANCH  28  29
ENDBRANCH   9  28
TORSDOF 5
ENDMDL
MODEL 5
REMARK VINA RESULT:      -7.4      2.452      4.333
REMARK  Name = 
REMARK  5 active torsions:
REMARK  status: ('A' for Active; 'I' for Inactive)
REMARK    1  A    between atoms: O_1  and  C_2
REMARK    2  A    between atoms: C_3  and  C_19
REMARK    3  A    between atoms: N_6  and  C_7
REMARK    4  A    between atoms: C_7  and  C_8
REMARK    5  A    between atoms: C_8  and  C_9
REMARK                            x       y       z     vdW  Elec       q    Type
REMARK                         _______ _______ _______ _____ _____    ______ ____
ROOT
ATOM      1  C   UNL     1       9.558   1.391  23.590  0.00  0.00    +0.146 A 
ATOM      2  C   UNL     1       9.965   2.805  23.632  0.00  0.00    +0.044 A 
ATOM      3  C   UNL     1      11.294   3.182  23.362  0.00  0.00    +0.052 A 
ATOM      4  C   UNL     1      11.677   4.515  23.430  0.00  0.00    +0.124 A 
ATOM      5  C   UNL     1      10.757   5.501  23.743  0.00  0.00    +0.040 A 
ATOM      6  C   UNL     1       9.432   5.145  24.002  0.00  0.00    +0.029 A 
ATOM      7  F   UNL     1      12.950   4.855  23.194  0.00  0.00    -0.205 F 
ATOM      8  C   UNL     1       9.024   3.799  23.973  0.00  0.00    +0.056 A 
ATOM      9  N   UNL     1       7.691   3.403  24.295  0.00  0.00    -0.307 N 
ATOM     10  C   UNL     1       7.304   2.070  24.279  0.00  0.00    +0.270 A 
ATOM     11  O   UNL     1       6.149   1.713  24.533  0.00  0.00    -0.267 OA
ATOM     12  C   UNL     1       8.312   1.026  23.938  0.00  0.00    +0.173 A 
ENDROOT
BRANCH  12  13
ATOM     13  C   UNL     1       7.942  -0.428  24.013  0.00  0.00    +0.351 C 
ATOM     14  N   UNL     1       6.729  -0.736  23.391  0.00  0.00    -0.090 N 
ATOM     15  H   UNL     1       6.508  -0.227  22.525  0.00  0.00    +0.326 HD
ATOM     16  S   UNL     1       5.969  -2.192  23.494  0.00  0.00    +0.136 S 
ATOM     17  O   UNL     1       4.923  -2.089  24.486  0.00  0.00    -0.130 OA
ATOM     18  O   UNL     1       5.691  -2.605  22.136  0.00  0.00    -0.130 OA
ATOM     19  C   UNL     1       7.202  -3.243  24.124  0.00  0.00    +0.179 A 
ATOM     20  C   UNL     1       8.382  -2.677  24.592  0.00  0.00    +0.205 A 
ATOM     21  C   UNL     1       9.365  -3.560  25.057  0.00  0.00    +0.057 A 
ATOM     22  C   UNL     1       9.159  -4.946  25.066  0.00  0.00    +0.004 A 
ATOM     23  C   UNL     1       7.954  -5.479  24.615  0.00  0.00    +0.002 A 
ATOM     24  C   UNL     1       6.968  -4.624  24.136  0.00  0.00    +0.035 A 
ATOM     25  N   UNL     1       8.680  -1.300  24.623  0.00  0.00    -0.037 NA
ENDBRANCH  12  13
BRANCH   1  26
ATOM     26  O   UNL     1      10.552   0.508  23.204  0.00  0.00    -0.505 OA
ATOM     27  H   UNL     1      11.424   0.860  23.486  0.00  0.00    +0.292 HD
ENDBRANCH   1  26
BRANCH   9  28
ATOM     28  C   UNL     1       6.662   4.392  24.648  0.00  0.00    +0.126 C 
BRANCH  28  29
ATOM     29  C   UNL     1       5.888   4.902  23.426  0.00  0.00    +0.025 C 
BRANCH  29  30
ATOM     30  C   UNL     1       6.091   6.377  23.210  0.00  0.00    -0.009 C 
ATOM     31  C   UNL     1       5.369   7.108  22.105  0.00  0.00    +0.004 C 
ATOM     32  C   UNL     1       6.845   6.848  21.993  0.00  0.00    +0.004 C 
ENDBRANCH  29  30
ENDBRANCH  28  29
ENDBRANCH   9  28
TORSDOF 5
ENDMDL
MODEL 6
REMARK VINA RESULT:      -7.4      1.851      2.295
REMARK  Name = 
REMARK  5 active torsions:
REMARK  status: ('A' for Active; 'I' for Inactive)
REMARK    1  A    between atoms: O_1  and  C_2
REMARK    2  A    between atoms: C_3  and  C_19
REMARK    3  A    between atoms: N_6  and  C_7
REMARK    4  A    between atoms: C_7  and  C_8
REMARK    5  A    between atoms: C_8  and  C_9
REMARK                            x       y       z     vdW  Elec       q    Type
REMARK                         _______ _______ _______ _____ _____    ______ ____
ROOT
ATOM      1  C   UNL     1       6.565   0.823  24.077  0.00  0.00    +0.146 A 
ATOM      2  C   UNL     1       6.604   2.170  23.487  0.00  0.00    +0.044 A 
ATOM      3  C   UNL     1       5.426   2.924  23.331  0.00  0.00    +0.052 A 
ATOM      4  C   UNL     1       5.467   4.184  22.748  0.00  0.00    +0.124 A 
ATOM      5  C   UNL     1       6.667   4.732  22.327  0.00  0.00    +0.040 A 
ATOM      6  C   UNL     1       7.847   4.001  22.484  0.00  0.00    +0.029 A 
ATOM      7  F   UNL     1       4.334   4.880  22.586  0.00  0.00    -0.205 F 
ATOM      8  C   UNL     1       7.830   2.709  23.042  0.00  0.00    +0.056 A 
ATOM      9  N   UNL     1       9.011   1.917  23.155  0.00  0.00    -0.307 N 
ATOM     10  C   UNL     1       8.980   0.637  23.692  0.00  0.00    +0.270 A 
ATOM     11  O   UNL     1       9.997  -0.052  23.818  0.00  0.00    -0.267 OA
ATOM     12  C   UNL     1       7.677   0.069  24.139  0.00  0.00    +0.173 A 
ENDROOT
BRANCH  12  13
ATOM     13  C   UNL     1       7.603  -1.349  24.628  0.00  0.00    +0.351 C 
ATOM     14  N   UNL     1       8.477  -2.220  23.971  0.00  0.00    -0.090 N 
ATOM     15  H   UNL     1       9.399  -1.846  23.713  0.00  0.00    +0.326 HD
ATOM     16  S   UNL     1       8.469  -3.857  24.142  0.00  0.00    +0.136 S 
ATOM     17  O   UNL     1       7.763  -4.427  23.017  0.00  0.00    -0.130 OA
ATOM     18  O   UNL     1       9.826  -4.241  24.461  0.00  0.00    -0.130 OA
ATOM     19  C   UNL     1       7.500  -4.106  25.563  0.00  0.00    +0.179 A 
ATOM     20  C   UNL     1       6.799  -3.026  26.088  0.00  0.00    +0.205 A 
ATOM     21  C   UNL     1       6.061  -3.259  27.255  0.00  0.00    +0.057 A 
ATOM     22  C   UNL     1       6.016  -4.526  27.853  0.00  0.00    +0.004 A 
ATOM     23  C   UNL     1       6.708  -5.593  27.286  0.00  0.00    +0.002 A 
ATOM     24  C   UNL     1       7.459  -5.384  26.136  0.00  0.00    +0.035 A 
ATOM     25  N   UNL     1       6.783  -1.720  25.560  0.00  0.00    -0.037 NA
ENDBRANCH  12  13
BRANCH   1  26
ATOM     26  O   UNL     1       5.317   0.413  24.516  0.00  0.00    -0.505 OA
ATOM     27  H   UNL     1       4.636   0.713  23.877  0.00  0.00    +0.292 HD
ENDBRANCH   1  26
BRANCH   9  28
ATOM     28  C   UNL     1      10.320   2.426  22.720  0.00  0.00    +0.126 C 
BRANCH  28  29
ATOM     29  C   UNL     1      10.967   3.355  23.754  0.00  0.00    +0.025 C 
BRANCH  29  30
ATOM     30  C   UNL     1      11.498   4.613  23.121  0.00  0.00    -0.009 C 
ATOM     31  C   UNL     1      12.951   4.997  23.255  0.00  0.00    +0.004 C 
ATOM     32  C   UNL     1      11.899   5.770  24.000  0.00  0.00    +0.004 C 
ENDBRANCH  29  30
ENDBRANCH  28  29
ENDBRANCH   9  28
TORSDOF 5
ENDMDL
MODEL 7
REMARK VINA RESULT:      -7.3      2.215      3.728
REMARK  Name = 
REMARK  5 active torsions:
REMARK  status: ('A' for Active; 'I' for Inactive)
REMARK    1  A    between atoms: O_1  and  C_2
REMARK    2  A    between atoms: C_3  and  C_19
REMARK    3  A    between atoms: N_6  and  C_7
REMARK    4  A    between atoms: C_7  and  C_8
REMARK    5  A    between atoms: C_8  and  C_9
REMARK                            x       y       z     vdW  Elec       q    Type
REMARK                         _______ _______ _______ _____ _____    ______ ____
ROOT
ATOM      1  C   UNL     1       9.477   0.733  23.335  0.00  0.00    +0.146 A 
ATOM      2  C   UNL     1       9.704   2.176  23.517  0.00  0.00    +0.044 A 
ATOM      3  C   UNL     1      10.981   2.735  23.325  0.00  0.00    +0.052 A 
ATOM      4  C   UNL     1      11.194   4.093  23.526  0.00  0.00    +0.124 A 
ATOM      5  C   UNL     1      10.153   4.926  23.899  0.00  0.00    +0.040 A 
ATOM      6  C   UNL     1       8.877   4.389  24.083  0.00  0.00    +0.029 A 
ATOM      7  F   UNL     1      12.420   4.606  23.362  0.00  0.00    -0.205 F 
ATOM      8  C   UNL     1       8.640   3.012  23.918  0.00  0.00    +0.056 A 
ATOM      9  N   UNL     1       7.361   2.428  24.161  0.00  0.00    -0.307 N 
ATOM     10  C   UNL     1       7.143   1.065  24.012  0.00  0.00    +0.270 A 
ATOM     11  O   UNL     1       6.036   0.548  24.196  0.00  0.00    -0.267 OA
ATOM     12  C   UNL     1       8.279   0.188  23.609  0.00  0.00    +0.173 A 
ENDROOT
BRANCH  12  13
ATOM     13  C   UNL     1       8.091  -1.301  23.539  0.00  0.00    +0.351 C 
ATOM     14  N   UNL     1       8.632  -1.990  24.628  0.00  0.00    -0.090 N 
ATOM     15  H   UNL     1       8.559  -1.538  25.548  0.00  0.00    +0.326 HD
ATOM     16  S   UNL     1       8.767  -3.628  24.724  0.00  0.00    +0.136 S 
ATOM     17  O   UNL     1      10.124  -3.992  24.387  0.00  0.00    -0.130 OA
ATOM     18  O   UNL     1       8.166  -4.014  25.981  0.00  0.00    -0.130 OA
ATOM     19  C   UNL     1       7.730  -4.189  23.447  0.00  0.00    +0.179 A 
ATOM     20  C   UNL     1       7.230  -3.262  22.540  0.00  0.00    +0.205 A 
ATOM     21  C   UNL     1       6.368  -3.749  21.549  0.00  0.00    +0.057 A 
ATOM     22  C   UNL     1       6.042  -5.110  21.466  0.00  0.00    +0.004 A 
ATOM     23  C   UNL     1       6.582  -6.017  22.374  0.00  0.00    +0.002 A 
ATOM     24  C   UNL     1       7.429  -5.556  23.375  0.00  0.00    +0.035 A 
ATOM     25  N   UNL     1       7.499  -1.879  22.543  0.00  0.00    -0.037 NA
ENDBRANCH  12  13
BRANCH   1  26
ATOM     26  O   UNL     1      10.580   0.018  22.901  0.00  0.00    -0.505 OA
ATOM     27  H   UNL     1      10.279  -0.747  22.366  0.00  0.00    +0.292 HD
ENDBRANCH   1  26
BRANCH   9  28
ATOM     28  C   UNL     1       6.211   3.246  24.570  0.00  0.00    +0.126 C 
BRANCH  28  29
ATOM     29  C   UNL     1       5.800   3.005  26.028  0.00  0.00    +0.025 C 
BRANCH  29  30
ATOM     30  C   UNL     1       6.897   3.381  26.988  0.00  0.00    -0.009 C 
ATOM     31  C   UNL     1       6.580   3.999  28.327  0.00  0.00    +0.004 C 
ATOM     32  C   UNL     1       7.191   4.838  27.239  0.00  0.00    +0.004 C 
ENDBRANCH  29  30
ENDBRANCH  28  29
ENDBRANCH   9  28
TORSDOF 5
ENDMDL
MODEL 8
REMARK VINA RESULT:      -7.3      1.411      1.720
REMARK  Name = 
REMARK  5 active torsions:
REMARK  status: ('A' for Active; 'I' for Inactive)
REMARK    1  A    between atoms: O_1  and  C_2
REMARK    2  A    between atoms: C_3  and  C_19
REMARK    3  A    between atoms: N_6  and  C_7
REMARK    4  A    between atoms: C_7  and  C_8
REMARK    5  A    between atoms: C_8  and  C_9
REMARK                            x       y       z     vdW  Elec       q    Type
REMARK                         _______ _______ _______ _____ _____    ______ ____
ROOT
ATOM      1  C   UNL     1       5.917   0.712  24.465  0.00  0.00    +0.146 A 
ATOM      2  C   UNL     1       5.615   2.149  24.562  0.00  0.00    +0.044 A 
ATOM      3  C   UNL     1       4.392   2.596  25.094  0.00  0.00    +0.052 A 
ATOM      4  C   UNL     1       4.103   3.953  25.157  0.00  0.00    +0.124 A 
ATOM      5  C   UNL     1       5.019   4.894  24.718  0.00  0.00    +0.040 A 
ATOM      6  C   UNL     1       6.243   4.467  24.196  0.00  0.00    +0.029 A 
ATOM      7  F   UNL     1       2.925   4.361  25.646  0.00  0.00    -0.205 F 
ATOM      8  C   UNL     1       6.548   3.098  24.090  0.00  0.00    +0.056 A 
ATOM      9  N   UNL     1       7.763   2.635  23.503  0.00  0.00    -0.307 N 
ATOM     10  C   UNL     1       8.047   1.281  23.389  0.00  0.00    +0.270 A 
ATOM     11  O   UNL     1       9.104   0.865  22.904  0.00  0.00    -0.267 OA
ATOM     12  C   UNL     1       7.046   0.287  23.871  0.00  0.00    +0.173 A 
ENDROOT
BRANCH  12  13
ATOM     13  C   UNL     1       7.287  -1.181  23.665  0.00  0.00    +0.351 C 
ATOM     14  N   UNL     1       8.169  -1.745  24.590  0.00  0.00    -0.090 N 
ATOM     15  H   UNL     1       8.115  -1.396  25.556  0.00  0.00    +0.326 HD
ATOM     16  S   UNL     1       8.783  -3.269  24.488  0.00  0.00    +0.136 S 
ATOM     17  O   UNL     1      10.116  -3.185  23.937  0.00  0.00    -0.130 OA
ATOM     18  O   UNL     1       8.525  -3.899  25.764  0.00  0.00    -0.130 OA
ATOM     19  C   UNL     1       7.763  -4.032  23.306  0.00  0.00    +0.179 A 
ATOM     20  C   UNL     1       6.879  -3.241  22.580  0.00  0.00    +0.205 A 
ATOM     21  C   UNL     1       6.048  -3.900  21.665  0.00  0.00    +0.057 A 
ATOM     22  C   UNL     1       6.119  -5.287  21.477  0.00  0.00    +0.004 A 
ATOM     23  C   UNL     1       7.034  -6.047  22.201  0.00  0.00    +0.002 A 
ATOM     24  C   UNL     1       7.860  -5.418  23.126  0.00  0.00    +0.035 A 
ATOM     25  N   UNL     1       6.736  -1.845  22.698  0.00  0.00    -0.037 NA
ENDBRANCH  12  13
BRANCH   1  26
ATOM     26  O   UNL     1       4.950  -0.125  24.995  0.00  0.00    -0.505 OA
ATOM     27  H   UNL     1       4.069   0.297  24.898  0.00  0.00    +0.292 HD
ENDBRANCH   1  26
BRANCH   9  28
ATOM     28  C   UNL     1       8.779   3.573  23.004  0.00  0.00    +0.126 C 
BRANCH  28  29
ATOM     29  C   UNL     1       9.774   4.003  24.089  0.00  0.00    +0.025 C 
BRANCH  29  30
ATOM     30  C   UNL     1      10.271   5.406  23.869  0.00  0.00    -0.009 C 
ATOM     31  C   UNL     1       9.947   6.508  24.848  0.00  0.00    +0.004 C 
ATOM     32  C   UNL     1       9.289   6.487  23.497  0.00  0.00    +0.004 C 
ENDBRANCH  29  30
ENDBRANCH  28  29
ENDBRANCH   9  28
TORSDOF 5
ENDMDL
MODEL 9
REMARK VINA RESULT:      -7.2      3.430      8.477
REMARK  Name = 
REMARK  5 active torsions:
REMARK  status: ('A' for Active; 'I' for Inactive)
REMARK    1  A    between atoms: O_1  and  C_2
REMARK    2  A    between atoms: C_3  and  C_19
REMARK    3  A    between atoms: N_6  and  C_7
REMARK    4  A    between atoms: C_7  and  C_8
REMARK    5  A    between atoms: C_8  and  C_9
REMARK                            x       y       z     vdW  Elec       q    Type
REMARK                         _______ _______ _______ _____ _____    ______ ____
ROOT
ATOM      1  C   UNL     1       7.915  -1.635  23.105  0.00  0.00    +0.146 A 
ATOM      2  C   UNL     1       7.582  -3.067  23.033  0.00  0.00    +0.044 A 
ATOM      3  C   UNL     1       7.212  -3.661  21.812  0.00  0.00    +0.052 A 
ATOM      4  C   UNL     1       6.873  -5.007  21.757  0.00  0.00    +0.124 A 
ATOM      5  C   UNL     1       6.911  -5.795  22.895  0.00  0.00    +0.040 A 
ATOM      6  C   UNL     1       7.286  -5.223  24.112  0.00  0.00    +0.029 A 
ATOM      7  F   UNL     1       6.501  -5.553  20.592  0.00  0.00    -0.205 F 
ATOM      8  C   UNL     1       7.603  -3.855  24.204  0.00  0.00    +0.056 A 
ATOM      9  N   UNL     1       7.927  -3.233  25.446  0.00  0.00    -0.307 N 
ATOM     10  C   UNL     1       8.223  -1.879  25.526  0.00  0.00    +0.270 A 
ATOM     11  O   UNL     1       8.528  -1.330  26.590  0.00  0.00    -0.267 OA
ATOM     12  C   UNL     1       8.177  -1.051  24.288  0.00  0.00    +0.173 A 
ENDROOT
BRANCH  12  13
ATOM     13  C   UNL     1       8.392   0.433  24.367  0.00  0.00    +0.351 C 
ATOM     14  N   UNL     1       7.477   1.094  25.190  0.00  0.00    -0.090 N 
ATOM     15  H   UNL     1       7.181   0.604  26.044  0.00  0.00    +0.326 HD
ATOM     16  S   UNL     1       7.333   2.730  25.304  0.00  0.00    +0.136 S 
ATOM     17  O   UNL     1       6.219   3.146  24.483  0.00  0.00    -0.130 OA
ATOM     18  O   UNL     1       7.401   3.050  26.713  0.00  0.00    -0.130 OA
ATOM     19  C   UNL     1       8.792   3.312  24.559  0.00  0.00    +0.179 A 
ATOM     20  C   UNL     1       9.596   2.407  23.875  0.00  0.00    +0.205 A 
ATOM     21  C   UNL     1      10.781   2.908  23.322  0.00  0.00    +0.057 A 
ATOM     22  C   UNL     1      11.128   4.262  23.436  0.00  0.00    +0.004 A 
ATOM     23  C   UNL     1      10.287   5.147  24.104  0.00  0.00    +0.002 A 
ATOM     24  C   UNL     1       9.111   4.671  24.674  0.00  0.00    +0.035 A 
ATOM     25  N   UNL     1       9.332   1.033  23.708  0.00  0.00    -0.037 NA
ENDBRANCH  12  13
BRANCH   1  26
ATOM     26  O   UNL     1       7.901  -0.970  21.891  0.00  0.00    -0.505 OA
ATOM     27  H   UNL     1       8.400  -0.130  21.978  0.00  0.00    +0.292 HD
ENDBRANCH   1  26
BRANCH   9  28
ATOM     28  C   UNL     1       7.977  -4.001  26.697  0.00  0.00    +0.126 C 
BRANCH  28  29
ATOM     29  C   UNL     1       6.591  -4.207  27.321  0.00  0.00    +0.025 C 
BRANCH  29  30
ATOM     30  C   UNL     1       6.339  -5.652  27.660  0.00  0.00    -0.009 C 
ATOM     31  C   UNL     1       5.189  -6.406  27.038  0.00  0.00    +0.004 C 
ATOM     32  C   UNL     1       5.133  -6.016  28.489  0.00  0.00    +0.004 C 
ENDBRANCH  29  30
ENDBRANCH  28  29
ENDBRANCH   9  28
TORSDOF 5
ENDMDL
