MODEL 1
REMARK VINA RESULT:      -5.8      0.000      0.000
REMARK  Name = 
REMARK  12 active torsions:
REMARK  status: ('A' for Active; 'I' for Inactive)
REMARK    1  A    between atoms: C_1  and  C_2
REMARK    2  A    between atoms: C_2  and  C_3
REMARK    3  A    between atoms: C_3  and  C_4
REMARK    4  A    between atoms: C_3  and  C_6
REMARK    5  A    between atoms: C_4  and  C_5
REMARK    6  A    between atoms: C_6  and  N_8
REMARK    7  A    between atoms: C_6  and  C_12
REMARK    8  A    between atoms: C_9  and  C_10
REMARK    9  A    between atoms: C_14  and  O_16
REMARK   10  A    between atoms: C_17  and  C_26
REMARK   11  A    between atoms: C_20  and  N_22
REMARK   12  A    between atoms: C_26  and  O_27
REMARK                            x       y       z     vdW  Elec       q    Type
REMARK                         _______ _______ _______ _____ _____    ______ ____
ROOT
ATOM      1  C   UNL     1       7.773  -1.352  22.906  0.00  0.00    +0.076 C 
ATOM      2  C   UNL     1       8.527  -0.369  23.837  0.00  0.00    +0.153 C 
ATOM      3  C   UNL     1       9.633  -1.148  24.555  0.00  0.00    +0.058 C 
ATOM      4  C   UNL     1       9.765  -2.489  23.839  0.00  0.00    +0.130 C 
ATOM      5  C   UNL     1       8.900  -2.372  22.588  0.00  0.00    +0.136 C 
ENDROOT
BRANCH   2   6
ATOM      6  N   UNL     1       9.142   0.704  23.061  0.00  0.00    -0.273 N 
ATOM      7  H   UNL     1      10.070   0.479  22.711  0.00  0.00    +0.258 HD
ATOM      8  C   UNL     1       8.571   1.836  22.599  0.00  0.00    +0.376 C 
ATOM      9  N   UNL     1       9.153   2.652  21.796  0.00  0.00    -0.130 NA
ATOM     10  H   UNL     1      10.090   2.309  21.586  0.00  0.00    +0.306 HD
ATOM     11  N   UNL     1       7.326   2.134  23.008  0.00  0.00    -0.289 N 
ATOM     12  H   UNL     1       7.079   3.061  22.675  0.00  0.00    +0.255 HD
ATOM     13  H   UNL     1       7.201   2.081  24.008  0.00  0.00    +0.255 HD
ENDBRANCH   2   6
BRANCH   4  14
ATOM     14  C   UNL     1       9.362  -3.636  24.746  0.00  0.00    +0.310 C 
ATOM     15  O   UNL     1       9.495  -4.816  24.462  0.00  0.00    -0.251 OA
BRANCH  14  16
ATOM     16  O   UNL     1       8.771  -3.231  25.889  0.00  0.00    -0.480 OA
ATOM     17  H   UNL     1       9.345  -3.239  26.677  0.00  0.00    +0.295 HD
ENDBRANCH  14  16
ENDBRANCH   4  14
BRANCH   5  18
ATOM     18  O   UNL     1       9.736  -1.829  21.547  0.00  0.00    -0.391 OA
ATOM     19  H   UNL     1       9.838  -2.522  20.868  0.00  0.00    +0.210 HD
ENDBRANCH   5  18
BRANCH   1  20
ATOM     20  C   UNL     1       6.474  -2.058  23.433  0.00  0.00    +0.085 C 
BRANCH  20  21
ATOM     21  N   UNL     1       6.391  -1.788  24.896  0.00  0.00    -0.312 N 
ATOM     22  H   UNL     1       6.671  -2.532  25.525  0.00  0.00    +0.149 HD
ATOM     23  C   UNL     1       5.750  -0.696  25.444  0.00  0.00    +0.210 C 
ATOM     24  O   UNL     1       5.272   0.215  24.773  0.00  0.00    -0.276 OA
ATOM     25  C   UNL     1       5.722  -0.664  26.950  0.00  0.00    +0.109 C 
ENDBRANCH  20  21
BRANCH  20  26
ATOM     26  C   UNL     1       6.362  -3.625  23.270  0.00  0.00    +0.009 C 
BRANCH  26  28
ATOM     27  C   UNL     1       6.059  -5.397  25.147  0.00  0.00    +0.004 C 
ATOM     28  C   UNL     1       5.449  -4.223  24.385  0.00  0.00    +0.002 C 
ENDBRANCH  26  28
BRANCH  26  29
ATOM     29  C   UNL     1       5.917  -4.145  21.893  0.00  0.00    +0.002 C 
ATOM     30  C   UNL     1       6.581  -5.441  21.441  0.00  0.00    +0.004 C 
ENDBRANCH  26  29
ENDBRANCH  20  26
ENDBRANCH   1  20
TORSDOF 9
ENDMDL
MODEL 2
REMARK VINA RESULT:      -5.8      4.250      7.027
REMARK  Name = 
REMARK  12 active torsions:
REMARK  status: ('A' for Active; 'I' for Inactive)
REMARK    1  A    between atoms: C_1  and  C_2
REMARK    2  A    between atoms: C_2  and  C_3
REMARK    3  A    between atoms: C_3  and  C_4
REMARK    4  A    between atoms: C_3  and  C_6
REMARK    5  A    between atoms: C_4  and  C_5
REMARK    6  A    between atoms: C_6  and  N_8
REMARK    7  A    between atoms: C_6  and  C_12
REMARK    8  A    between atoms: C_9  and  C_10
REMARK    9  A    between atoms: C_14  and  O_16
REMARK   10  A    between atoms: C_17  and  C_26
REMARK   11  A    between atoms: C_20  and  N_22
REMARK   12  A    between atoms: C_26  and  O_27
REMARK                            x       y       z     vdW  Elec       q    Type
REMARK                         _______ _______ _______ _____ _____    ______ ____
ROOT
ATOM      1  C   UNL     1       9.288   4.395  24.682  0.00  0.00    +0.076 C 
ATOM      2  C   UNL     1       9.913   5.474  23.764  0.00  0.00    +0.153 C 
ATOM      3  C   UNL     1       8.776   6.302  23.159  0.00  0.00    +0.058 C 
ATOM      4  C   UNL     1       7.512   5.954  23.940  0.00  0.00    +0.130 C 
ATOM      5  C   UNL     1       7.981   5.110  25.121  0.00  0.00    +0.136 C 
ENDROOT
BRANCH   2   6
ATOM      6  N   UNL     1      10.778   6.364  24.534  0.00  0.00    -0.273 N 
ATOM      7  H   UNL     1      10.281   6.936  25.211  0.00  0.00    +0.258 HD
ATOM      8  C   UNL     1      12.127   6.375  24.595  0.00  0.00    +0.376 C 
ATOM      9  N   UNL     1      12.798   7.098  25.417  0.00  0.00    -0.130 NA
ATOM     10  H   UNL     1      12.154   7.648  25.986  0.00  0.00    +0.306 HD
ATOM     11  N   UNL     1      12.809   5.591  23.742  0.00  0.00    -0.289 N 
ATOM     12  H   UNL     1      13.800   5.793  23.826  0.00  0.00    +0.255 HD
ATOM     13  H   UNL     1      12.518   5.684  22.780  0.00  0.00    +0.255 HD
ENDBRANCH   2   6
BRANCH   4  14
ATOM     14  C   UNL     1       6.501   5.246  23.058  0.00  0.00    +0.310 C 
ATOM     15  O   UNL     1       5.501   4.683  23.474  0.00  0.00    -0.251 OA
BRANCH  14  16
ATOM     16  O   UNL     1       6.845   5.236  21.753  0.00  0.00    -0.480 OA
ATOM     17  H   UNL     1       7.278   6.049  21.434  0.00  0.00    +0.295 HD
ENDBRANCH  14  16
ENDBRANCH   4  14
BRANCH   5  18
ATOM     18  O   UNL     1       8.291   6.022  26.193  0.00  0.00    -0.391 OA
ATOM     19  H   UNL     1       9.243   5.931  26.386  0.00  0.00    +0.210 HD
ENDBRANCH   5  18
BRANCH   1  20
ATOM     20  C   UNL     1       9.005   2.965  24.097  0.00  0.00    +0.085 C 
BRANCH  20  21
ATOM     21  N   UNL     1       8.626   2.091  25.243  0.00  0.00    -0.312 N 
ATOM     22  H   UNL     1       9.353   1.846  25.905  0.00  0.00    +0.149 HD
ATOM     23  C   UNL     1       7.427   1.412  25.332  0.00  0.00    +0.210 C 
ATOM     24  O   UNL     1       6.513   1.545  24.523  0.00  0.00    -0.276 OA
ATOM     25  C   UNL     1       7.288   0.523  26.540  0.00  0.00    +0.109 C 
ENDBRANCH  20  21
BRANCH  20  26
ATOM     26  C   UNL     1      10.181   2.222  23.350  0.00  0.00    +0.009 C 
BRANCH  26  28
ATOM     27  C   UNL     1      10.558  -0.303  23.834  0.00  0.00    +0.004 C 
ATOM     28  C   UNL     1      10.812   1.136  24.276  0.00  0.00    +0.002 C 
ENDBRANCH  26  28
BRANCH  26  29
ATOM     29  C   UNL     1       9.850   1.612  21.977  0.00  0.00    +0.002 C 
ATOM     30  C   UNL     1       8.412   1.806  21.509  0.00  0.00    +0.004 C 
ENDBRANCH  26  29
ENDBRANCH  20  26
ENDBRANCH   1  20
TORSDOF 9
ENDMDL
MODEL 3
REMARK VINA RESULT:      -5.8      2.309      4.310
REMARK  Name = 
REMARK  12 active torsions:
REMARK  status: ('A' for Active; 'I' for Inactive)
REMARK    1  A    between atoms: C_1  and  C_2
REMARK    2  A    between atoms: C_2  and  C_3
REMARK    3  A    between atoms: C_3  and  C_4
REMARK    4  A    between atoms: C_3  and  C_6
REMARK    5  A    between atoms: C_4  and  C_5
REMARK    6  A    between atoms: C_6  and  N_8
REMARK    7  A    between atoms: C_6  and  C_12
REMARK    8  A    between atoms: C_9  and  C_10
REMARK    9  A    between atoms: C_14  and  O_16
REMARK   10  A    between atoms: C_17  and  C_26
REMARK   11  A    between atoms: C_20  and  N_22
REMARK   12  A    between atoms: C_26  and  O_27
REMARK                            x       y       z     vdW  Elec       q    Type
REMARK                         _______ _______ _______ _____ _____    ______ ____
ROOT
ATOM      1  C   UNL     1       7.728   1.312  22.998  0.00  0.00    +0.076 C 
ATOM      2  C   UNL     1       8.816   2.225  23.620  0.00  0.00    +0.153 C 
ATOM      3  C   UNL     1      10.178   1.561  23.398  0.00  0.00    +0.058 C 
ATOM      4  C   UNL     1       9.964   0.442  22.384  0.00  0.00    +0.130 C 
ATOM      5  C   UNL     1       8.541   0.624  21.868  0.00  0.00    +0.136 C 
ENDROOT
BRANCH   2   6
ATOM      6  N   UNL     1       8.823   3.531  22.967  0.00  0.00    -0.273 N 
ATOM      7  H   UNL     1       8.665   3.491  21.963  0.00  0.00    +0.258 HD
ATOM      8  C   UNL     1       8.813   4.753  23.540  0.00  0.00    +0.376 C 
ATOM      9  N   UNL     1       8.669   5.848  22.883  0.00  0.00    -0.130 NA
ATOM     10  H   UNL     1       8.576   5.636  21.890  0.00  0.00    +0.306 HD
ATOM     11  N   UNL     1       8.971   4.834  24.872  0.00  0.00    -0.289 N 
ATOM     12  H   UNL     1       9.059   5.810  25.138  0.00  0.00    +0.255 HD
ATOM     13  H   UNL     1       9.758   4.307  25.222  0.00  0.00    +0.255 HD
ENDBRANCH   2   6
BRANCH   4  14
ATOM     14  C   UNL     1      10.209  -0.918  23.010  0.00  0.00    +0.310 C 
ATOM     15  O   UNL     1      10.168  -1.140  24.210  0.00  0.00    -0.251 OA
BRANCH  14  16
ATOM     16  O   UNL     1      10.550  -1.866  22.112  0.00  0.00    -0.480 OA
ATOM     17  H   UNL     1      11.474  -1.832  21.805  0.00  0.00    +0.295 HD
ENDBRANCH  14  16
ENDBRANCH   4  14
BRANCH   5  18
ATOM     18  O   UNL     1       8.613   1.518  20.740  0.00  0.00    -0.391 OA
ATOM     19  H   UNL     1       7.995   1.182  20.063  0.00  0.00    +0.210 HD
ENDBRANCH   5  18
BRANCH   1  20
ATOM     20  C   UNL     1       6.994   0.267  23.912  0.00  0.00    +0.085 C 
BRANCH  20  21
ATOM     21  N   UNL     1       6.408  -0.765  23.013  0.00  0.00    -0.312 N 
ATOM     22  H   UNL     1       5.772  -0.448  22.290  0.00  0.00    +0.149 HD
ATOM     23  C   UNL     1       6.487  -2.124  23.242  0.00  0.00    +0.210 C 
ATOM     24  O   UNL     1       7.138  -2.618  24.158  0.00  0.00    -0.276 OA
ATOM     25  C   UNL     1       5.754  -2.981  22.244  0.00  0.00    +0.109 C 
ENDBRANCH  20  21
BRANCH  20  26
ATOM     26  C   UNL     1       5.810   0.779  24.823  0.00  0.00    +0.009 C 
BRANCH  26  28
ATOM     27  C   UNL     1       7.614   0.163  26.589  0.00  0.00    +0.004 C 
ATOM     28  C   UNL     1       6.208   0.696  26.329  0.00  0.00    +0.002 C 
ENDBRANCH  26  28
BRANCH  26  29
ATOM     29  C   UNL     1       5.251   2.177  24.505  0.00  0.00    +0.002 C 
ATOM     30  C   UNL     1       5.687   3.284  25.458  0.00  0.00    +0.004 C 
ENDBRANCH  26  29
ENDBRANCH  20  26
ENDBRANCH   1  20
TORSDOF 9
ENDMDL
MODEL 4
REMARK VINA RESULT:      -5.7      2.168      4.071
REMARK  Name = 
REMARK  12 active torsions:
REMARK  status: ('A' for Active; 'I' for Inactive)
REMARK    1  A    between atoms: C_1  and  C_2
REMARK    2  A    between atoms: C_2  and  C_3
REMARK    3  A    between atoms: C_3  and  C_4
REMARK    4  A    between atoms: C_3  and  C_6
REMARK    5  A    between atoms: C_4  and  C_5
REMARK    6  A    between atoms: C_6  and  N_8
REMARK    7  A    between atoms: C_6  and  C_12
REMARK    8  A    between atoms: C_9  and  C_10
REMARK    9  A    between atoms: C_14  and  O_16
REMARK   10  A    between atoms: C_17  and  C_26
REMARK   11  A    between atoms: C_20  and  N_22
REMARK   12  A    between atoms: C_26  and  O_27
REMARK                            x       y       z     vdW  Elec       q    Type
REMARK                         _______ _______ _______ _____ _____    ______ ____
ROOT
ATOM      1  C   UNL     1       6.938  -1.872  24.580  0.00  0.00    +0.076 C 
ATOM      2  C   UNL     1       7.724  -0.895  25.490  0.00  0.00    +0.153 C 
ATOM      3  C   UNL     1       8.948  -0.402  24.714  0.00  0.00    +0.058 C 
ATOM      4  C   UNL     1       8.740  -0.806  23.257  0.00  0.00    +0.130 C 
ATOM      5  C   UNL     1       7.306  -1.319  23.176  0.00  0.00    +0.136 C 
ENDROOT
BRANCH   2   6
ATOM      6  N   UNL     1       6.898   0.258  25.839  0.00  0.00    -0.273 N 
ATOM      7  H   UNL     1       6.196   0.487  25.140  0.00  0.00    +0.258 HD
ATOM      8  C   UNL     1       6.823   0.908  27.019  0.00  0.00    +0.376 C 
ATOM      9  N   UNL     1       5.957   1.820  27.277  0.00  0.00    -0.130 NA
ATOM     10  H   UNL     1       5.365   1.965  26.459  0.00  0.00    +0.306 HD
ATOM     11  N   UNL     1       7.710   0.591  27.978  0.00  0.00    -0.289 N 
ATOM     12  H   UNL     1       7.605   1.237  28.755  0.00  0.00    +0.255 HD
ATOM     13  H   UNL     1       8.668   0.584  27.662  0.00  0.00    +0.255 HD
ENDBRANCH   2   6
BRANCH   4  14
ATOM     14  C   UNL     1       9.772  -1.829  22.820  0.00  0.00    +0.310 C 
ATOM     15  O   UNL     1      10.230  -2.696  23.548  0.00  0.00    -0.251 OA
BRANCH  14  16
ATOM     16  O   UNL     1      10.197  -1.651  21.552  0.00  0.00    -0.480 OA
ATOM     17  H   UNL     1      11.103  -1.303  21.465  0.00  0.00    +0.295 HD
ENDBRANCH  14  16
ENDBRANCH   4  14
BRANCH   5  18
ATOM     18  O   UNL     1       6.468  -0.182  22.892  0.00  0.00    -0.391 OA
ATOM     19  H   UNL     1       5.550  -0.440  23.099  0.00  0.00    +0.210 HD
ENDBRANCH   5  18
BRANCH   1  20
ATOM     20  C   UNL     1       7.216  -3.413  24.694  0.00  0.00    +0.085 C 
BRANCH  20  21
ATOM     21  N   UNL     1       6.582  -4.061  23.511  0.00  0.00    -0.312 N 
ATOM     22  H   UNL     1       5.622  -3.814  23.302  0.00  0.00    +0.149 HD
ATOM     23  C   UNL     1       7.129  -5.132  22.833  0.00  0.00    +0.210 C 
ATOM     24  O   UNL     1       8.241  -5.590  23.076  0.00  0.00    -0.276 OA
ATOM     25  C   UNL     1       6.278  -5.678  21.716  0.00  0.00    +0.109 C 
ENDBRANCH  20  21
BRANCH  20  26
ATOM     26  C   UNL     1       6.661  -4.176  25.961  0.00  0.00    +0.009 C 
BRANCH  26  28
ATOM     27  C   UNL     1       5.240  -6.349  26.060  0.00  0.00    +0.004 C 
ATOM     28  C   UNL     1       5.317  -4.890  25.619  0.00  0.00    +0.002 C 
ENDBRANCH  26  28
BRANCH  26  29
ATOM     29  C   UNL     1       7.620  -5.165  26.645  0.00  0.00    +0.002 C 
ATOM     30  C   UNL     1       9.103  -4.849  26.487  0.00  0.00    +0.004 C 
ENDBRANCH  26  29
ENDBRANCH  20  26
ENDBRANCH   1  20
TORSDOF 9
ENDMDL
MODEL 5
REMARK VINA RESULT:      -5.5      1.850      2.278
REMARK  Name = 
REMARK  12 active torsions:
REMARK  status: ('A' for Active; 'I' for Inactive)
REMARK    1  A    between atoms: C_1  and  C_2
REMARK    2  A    between atoms: C_2  and  C_3
REMARK    3  A    between atoms: C_3  and  C_4
REMARK    4  A    between atoms: C_3  and  C_6
REMARK    5  A    between atoms: C_4  and  C_5
REMARK    6  A    between atoms: C_6  and  N_8
REMARK    7  A    between atoms: C_6  and  C_12
REMARK    8  A    between atoms: C_9  and  C_10
REMARK    9  A    between atoms: C_14  and  O_16
REMARK   10  A    between atoms: C_17  and  C_26
REMARK   11  A    between atoms: C_20  and  N_22
REMARK   12  A    between atoms: C_26  and  O_27
REMARK                            x       y       z     vdW  Elec       q    Type
REMARK                         _______ _______ _______ _____ _____    ______ ____
ROOT
ATOM      1  C   UNL     1       7.944  -2.621  24.273  0.00  0.00    +0.076 C 
ATOM      2  C   UNL     1       8.351  -1.613  25.378  0.00  0.00    +0.153 C 
ATOM      3  C   UNL     1       8.743  -2.408  26.626  0.00  0.00    +0.058 C 
ATOM      4  C   UNL     1       8.889  -3.864  26.195  0.00  0.00    +0.130 C 
ATOM      5  C   UNL     1       8.805  -3.850  24.672  0.00  0.00    +0.136 C 
ENDROOT
BRANCH   2   6
ATOM      6  N   UNL     1       9.501  -0.820  24.950  0.00  0.00    -0.273 N 
ATOM      7  H   UNL     1      10.219  -1.361  24.474  0.00  0.00    +0.258 HD
ATOM      8  C   UNL     1       9.632   0.523  24.933  0.00  0.00    +0.376 C 
ATOM      9  N   UNL     1      10.626   1.136  24.399  0.00  0.00    -0.130 NA
ATOM     10  H   UNL     1      11.278   0.451  24.014  0.00  0.00    +0.306 HD
ATOM     11  N   UNL     1       8.673   1.264  25.514  0.00  0.00    -0.289 N 
ATOM     12  H   UNL     1       8.965   2.236  25.524  0.00  0.00    +0.255 HD
ATOM     13  H   UNL     1       8.435   0.964  26.448  0.00  0.00    +0.255 HD
ENDBRANCH   2   6
BRANCH   4  14
ATOM     14  C   UNL     1       7.835  -4.737  26.849  0.00  0.00    +0.310 C 
ATOM     15  O   UNL     1       6.904  -4.309  27.513  0.00  0.00    -0.251 OA
BRANCH  14  16
ATOM     16  O   UNL     1       8.058  -6.058  26.686  0.00  0.00    -0.480 OA
ATOM     17  H   UNL     1       7.256  -6.610  26.641  0.00  0.00    +0.295 HD
ENDBRANCH  14  16
ENDBRANCH   4  14
BRANCH   5  18
ATOM     18  O   UNL     1      10.145  -3.657  24.178  0.00  0.00    -0.391 OA
ATOM     19  H   UNL     1      10.734  -4.223  24.711  0.00  0.00    +0.210 HD
ENDBRANCH   5  18
BRANCH   1  20
ATOM     20  C   UNL     1       6.429  -2.996  24.102  0.00  0.00    +0.085 C 
BRANCH  20  21
ATOM     21  N   UNL     1       5.756  -2.700  25.399  0.00  0.00    -0.312 N 
ATOM     22  H   UNL     1       5.614  -3.473  26.038  0.00  0.00    +0.149 HD
ATOM     23  C   UNL     1       5.115  -1.511  25.682  0.00  0.00    +0.210 C 
ATOM     24  O   UNL     1       5.125  -0.542  24.929  0.00  0.00    -0.276 OA
ATOM     25  C   UNL     1       4.435  -1.460  27.025  0.00  0.00    +0.109 C 
ENDBRANCH  20  21
BRANCH  20  26
ATOM     26  C   UNL     1       6.069  -4.493  23.754  0.00  0.00    +0.009 C 
BRANCH  26  28
ATOM     27  C   UNL     1       4.886  -6.339  25.149  0.00  0.00    +0.004 C 
ATOM     28  C   UNL     1       4.797  -4.943  24.538  0.00  0.00    +0.002 C 
ENDBRANCH  26  28
BRANCH  26  29
ATOM     29  C   UNL     1       5.913  -4.836  22.262  0.00  0.00    +0.002 C 
ATOM     30  C   UNL     1       6.780  -5.987  21.765  0.00  0.00    +0.004 C 
ENDBRANCH  26  29
ENDBRANCH  20  26
ENDBRANCH   1  20
TORSDOF 9
ENDMDL
MODEL 6
REMARK VINA RESULT:      -5.5      4.053      7.065
REMARK  Name = 
REMARK  12 active torsions:
REMARK  status: ('A' for Active; 'I' for Inactive)
REMARK    1  A    between atoms: C_1  and  C_2
REMARK    2  A    between atoms: C_2  and  C_3
REMARK    3  A    between atoms: C_3  and  C_4
REMARK    4  A    between atoms: C_3  and  C_6
REMARK    5  A    between atoms: C_4  and  C_5
REMARK    6  A    between atoms: C_6  and  N_8
REMARK    7  A    between atoms: C_6  and  C_12
REMARK    8  A    between atoms: C_9  and  C_10
REMARK    9  A    between atoms: C_14  and  O_16
REMARK   10  A    between atoms: C_17  and  C_26
REMARK   11  A    between atoms: C_20  and  N_22
REMARK   12  A    between atoms: C_26  and  O_27
REMARK                            x       y       z     vdW  Elec       q    Type
REMARK                         _______ _______ _______ _____ _____    ______ ____
ROOT
ATOM      1  C   UNL     1       9.269   2.568  24.615  0.00  0.00    +0.076 C 
ATOM      2  C   UNL     1       8.046   1.634  24.795  0.00  0.00    +0.153 C 
ATOM      3  C   UNL     1       8.163   0.494  23.780  0.00  0.00    +0.058 C 
ATOM      4  C   UNL     1       9.582   0.545  23.221  0.00  0.00    +0.130 C 
ATOM      5  C   UNL     1      10.325   1.561  24.082  0.00  0.00    +0.136 C 
ENDROOT
BRANCH   2   6
ATOM      6  N   UNL     1       8.031   1.062  26.139  0.00  0.00    -0.273 N 
ATOM      7  H   UNL     1       8.833   0.472  26.343  0.00  0.00    +0.258 HD
ATOM      8  C   UNL     1       7.218   1.370  27.171  0.00  0.00    +0.376 C 
ATOM      9  N   UNL     1       7.377   0.919  28.363  0.00  0.00    -0.130 NA
ATOM     10  H   UNL     1       8.191   0.304  28.386  0.00  0.00    +0.306 HD
ATOM     11  N   UNL     1       6.176   2.187  26.940  0.00  0.00    -0.289 N 
ATOM     12  H   UNL     1       5.596   2.231  27.772  0.00  0.00    +0.255 HD
ATOM     13  H   UNL     1       5.617   1.921  26.142  0.00  0.00    +0.255 HD
ENDBRANCH   2   6
BRANCH   4  14
ATOM     14  C   UNL     1       9.576   0.895  21.745  0.00  0.00    +0.310 C 
ATOM     15  O   UNL     1       9.081   0.196  20.874  0.00  0.00    -0.251 OA
BRANCH  14  16
ATOM     16  O   UNL     1      10.237   2.037  21.464  0.00  0.00    -0.480 OA
ATOM     17  H   UNL     1      11.207   1.980  21.528  0.00  0.00    +0.295 HD
ENDBRANCH  14  16
ENDBRANCH   4  14
BRANCH   5  18
ATOM     18  O   UNL     1      10.881   0.840  25.198  0.00  0.00    -0.391 OA
ATOM     19  H   UNL     1      11.654   1.345  25.514  0.00  0.00    +0.210 HD
ENDBRANCH   5  18
BRANCH   1  20
ATOM     20  C   UNL     1       9.139   3.827  23.686  0.00  0.00    +0.085 C 
BRANCH  20  21
ATOM     21  N   UNL     1      10.094   4.850  24.199  0.00  0.00    -0.312 N 
ATOM     22  H   UNL     1       9.729   5.557  24.827  0.00  0.00    +0.149 HD
ATOM     23  C   UNL     1      11.367   5.036  23.699  0.00  0.00    +0.210 C 
ATOM     24  O   UNL     1      11.874   4.307  22.851  0.00  0.00    -0.276 OA
ATOM     25  C   UNL     1      12.130   6.179  24.313  0.00  0.00    +0.109 C 
ENDBRANCH  20  21
BRANCH  20  26
ATOM     26  C   UNL     1       7.734   4.544  23.600  0.00  0.00    +0.009 C 
BRANCH  26  28
ATOM     27  C   UNL     1       6.845   5.610  25.796  0.00  0.00    +0.004 C 
ATOM     28  C   UNL     1       7.699   5.786  24.544  0.00  0.00    +0.002 C 
ENDBRANCH  26  28
BRANCH  26  29
ATOM     29  C   UNL     1       7.248   4.940  22.195  0.00  0.00    +0.002 C 
ATOM     30  C   UNL     1       7.312   6.430  21.880  0.00  0.00    +0.004 C 
ENDBRANCH  26  29
ENDBRANCH  20  26
ENDBRANCH   1  20
TORSDOF 9
ENDMDL
MODEL 7
REMARK VINA RESULT:      -5.5      2.995      5.704
REMARK  Name = 
REMARK  12 active torsions:
REMARK  status: ('A' for Active; 'I' for Inactive)
REMARK    1  A    between atoms: C_1  and  C_2
REMARK    2  A    between atoms: C_2  and  C_3
REMARK    3  A    between atoms: C_3  and  C_4
REMARK    4  A    between atoms: C_3  and  C_6
REMARK    5  A    between atoms: C_4  and  C_5
REMARK    6  A    between atoms: C_6  and  N_8
REMARK    7  A    between atoms: C_6  and  C_12
REMARK    8  A    between atoms: C_9  and  C_10
REMARK    9  A    between atoms: C_14  and  O_16
REMARK   10  A    between atoms: C_17  and  C_26
REMARK   11  A    between atoms: C_20  and  N_22
REMARK   12  A    between atoms: C_26  and  O_27
REMARK                            x       y       z     vdW  Elec       q    Type
REMARK                         _______ _______ _______ _____ _____    ______ ____
ROOT
ATOM      1  C   UNL     1       6.246  -2.733  24.752  0.00  0.00    +0.076 C 
ATOM      2  C   UNL     1       7.302  -2.729  25.887  0.00  0.00    +0.153 C 
ATOM      3  C   UNL     1       7.124  -1.442  26.697  0.00  0.00    +0.058 C 
ATOM      4  C   UNL     1       5.789  -0.835  26.276  0.00  0.00    +0.130 C 
ATOM      5  C   UNL     1       5.116  -1.892  25.406  0.00  0.00    +0.136 C 
ENDROOT
BRANCH   2   6
ATOM      6  N   UNL     1       7.103  -3.870  26.776  0.00  0.00    -0.273 N 
ATOM      7  H   UNL     1       6.166  -3.929  27.167  0.00  0.00    +0.258 HD
ATOM      8  C   UNL     1       7.918  -4.927  26.977  0.00  0.00    +0.376 C 
ATOM      9  N   UNL     1       7.591  -5.959  27.667  0.00  0.00    -0.130 NA
ATOM     10  H   UNL     1       6.646  -5.837  28.030  0.00  0.00    +0.306 HD
ATOM     11  N   UNL     1       9.146  -4.897  26.431  0.00  0.00    -0.289 N 
ATOM     12  H   UNL     1       9.677  -5.697  26.762  0.00  0.00    +0.255 HD
ATOM     13  H   UNL     1       9.654  -4.044  26.615  0.00  0.00    +0.255 HD
ENDBRANCH   2   6
BRANCH   4  14
ATOM     14  C   UNL     1       5.989   0.491  25.568  0.00  0.00    +0.310 C 
ATOM     15  O   UNL     1       6.878   1.285  25.835  0.00  0.00    -0.251 OA
BRANCH  14  16
ATOM     16  O   UNL     1       5.042   0.753  24.645  0.00  0.00    -0.480 OA
ATOM     17  H   UNL     1       4.323   1.339  24.944  0.00  0.00    +0.295 HD
ENDBRANCH  14  16
ENDBRANCH   4  14
BRANCH   5  18
ATOM     18  O   UNL     1       4.356  -2.742  26.286  0.00  0.00    -0.391 OA
ATOM     19  H   UNL     1       3.431  -2.727  25.976  0.00  0.00    +0.210 HD
ENDBRANCH   5  18
BRANCH   1  20
ATOM     20  C   UNL     1       6.645  -2.182  23.337  0.00  0.00    +0.085 C 
BRANCH  20  21
ATOM     21  N   UNL     1       6.892  -3.363  22.461  0.00  0.00    -0.312 N 
ATOM     22  H   UNL     1       7.817  -3.462  22.061  0.00  0.00    +0.149 HD
ATOM     23  C   UNL     1       5.896  -4.187  21.979  0.00  0.00    +0.210 C 
ATOM     24  O   UNL     1       4.717  -4.089  22.309  0.00  0.00    -0.276 OA
ATOM     25  C   UNL     1       6.365  -5.273  21.047  0.00  0.00    +0.109 C 
ENDBRANCH  20  21
BRANCH  20  26
ATOM     26  C   UNL     1       7.935  -1.278  23.228  0.00  0.00    +0.009 C 
BRANCH  26  28
ATOM     27  C   UNL     1      10.165  -2.524  23.703  0.00  0.00    +0.004 C 
ATOM     28  C   UNL     1       9.131  -2.105  22.661  0.00  0.00    +0.002 C 
ENDBRANCH  26  28
BRANCH  26  29
ATOM     29  C   UNL     1       7.790   0.038  22.444  0.00  0.00    +0.002 C 
ATOM     30  C   UNL     1       9.042   0.494  21.703  0.00  0.00    +0.004 C 
ENDBRANCH  26  29
ENDBRANCH  20  26
ENDBRANCH   1  20
TORSDOF 9
ENDMDL
MODEL 8
REMARK VINA RESULT:      -5.3      2.647      4.075
REMARK  Name = 
REMARK  12 active torsions:
REMARK  status: ('A' for Active; 'I' for Inactive)
REMARK    1  A    between atoms: C_1  and  C_2
REMARK    2  A    between atoms: C_2  and  C_3
REMARK    3  A    between atoms: C_3  and  C_4
REMARK    4  A    between atoms: C_3  and  C_6
REMARK    5  A    between atoms: C_4  and  C_5
REMARK    6  A    between atoms: C_6  and  N_8
REMARK    7  A    between atoms: C_6  and  C_12
REMARK    8  A    between atoms: C_9  and  C_10
REMARK    9  A    between atoms: C_14  and  O_16
REMARK   10  A    between atoms: C_17  and  C_26
REMARK   11  A    between atoms: C_20  and  N_22
REMARK   12  A    between atoms: C_26  and  O_27
REMARK                            x       y       z     vdW  Elec       q    Type
REMARK                         _______ _______ _______ _____ _____    ______ ____
ROOT
ATOM      1  C   UNL     1       6.396  -3.172  23.714  0.00  0.00    +0.076 C 
ATOM      2  C   UNL     1       7.626  -3.826  23.034  0.00  0.00    +0.153 C 
ATOM      3  C   UNL     1       7.128  -4.977  22.156  0.00  0.00    +0.058 C 
ATOM      4  C   UNL     1       5.614  -4.824  22.043  0.00  0.00    +0.130 C 
ATOM      5  C   UNL     1       5.293  -3.467  22.662  0.00  0.00    +0.136 C 
ENDROOT
BRANCH   2   6
ATOM      6  N   UNL     1       8.317  -2.858  22.186  0.00  0.00    -0.273 N 
ATOM      7  H   UNL     1       7.832  -2.654  21.315  0.00  0.00    +0.258 HD
ATOM      8  C   UNL     1       9.376  -2.082  22.494  0.00  0.00    +0.376 C 
ATOM      9  N   UNL     1       9.824  -1.151  21.731  0.00  0.00    -0.130 NA
ATOM     10  H   UNL     1       9.262  -1.111  20.880  0.00  0.00    +0.306 HD
ATOM     11  N   UNL     1      10.007  -2.298  23.661  0.00  0.00    -0.289 N 
ATOM     12  H   UNL     1      10.844  -1.724  23.698  0.00  0.00    +0.255 HD
ATOM     13  H   UNL     1      10.244  -3.266  23.824  0.00  0.00    +0.255 HD
ENDBRANCH   2   6
BRANCH   4  14
ATOM     14  C   UNL     1       4.895  -5.979  22.714  0.00  0.00    +0.310 C 
ATOM     15  O   UNL     1       3.732  -5.942  23.085  0.00  0.00    -0.251 OA
BRANCH  14  16
ATOM     16  O   UNL     1       5.687  -7.048  22.931  0.00  0.00    -0.480 OA
ATOM     17  H   UNL     1       6.140  -7.060  23.794  0.00  0.00    +0.295 HD
ENDBRANCH  14  16
ENDBRANCH   4  14
BRANCH   5  18
ATOM     18  O   UNL     1       5.386  -2.491  21.607  0.00  0.00    -0.391 OA
ATOM     19  H   UNL     1       5.028  -1.652  21.955  0.00  0.00    +0.210 HD
ENDBRANCH   5  18
BRANCH   1  20
ATOM     20  C   UNL     1       5.977  -3.645  25.152  0.00  0.00    +0.085 C 
BRANCH  20  21
ATOM     21  N   UNL     1       6.023  -2.448  26.037  0.00  0.00    -0.312 N 
ATOM     22  H   UNL     1       6.870  -2.295  26.573  0.00  0.00    +0.149 HD
ATOM     23  C   UNL     1       4.922  -1.676  26.350  0.00  0.00    +0.210 C 
ATOM     24  O   UNL     1       3.815  -1.841  25.845  0.00  0.00    -0.276 OA
ATOM     25  C   UNL     1       5.185  -0.560  27.327  0.00  0.00    +0.109 C 
ENDBRANCH  20  21
BRANCH  20  26
ATOM     26  C   UNL     1       6.861  -4.747  25.858  0.00  0.00    +0.009 C 
BRANCH  26  28
ATOM     27  C   UNL     1       9.440  -4.811  26.171  0.00  0.00    +0.004 C 
ATOM     28  C   UNL     1       8.129  -4.099  26.495  0.00  0.00    +0.002 C 
ENDBRANCH  26  28
BRANCH  26  29
ATOM     29  C   UNL     1       6.153  -5.640  26.892  0.00  0.00    +0.002 C 
ATOM     30  C   UNL     1       5.040  -6.522  26.337  0.00  0.00    +0.004 C 
ENDBRANCH  26  29
ENDBRANCH  20  26
ENDBRANCH   1  20
TORSDOF 9
ENDMDL
MODEL 9
REMARK VINA RESULT:      -5.3      2.417      4.081
REMARK  Name = 
REMARK  12 active torsions:
REMARK  status: ('A' for Active; 'I' for Inactive)
REMARK    1  A    between atoms: C_1  and  C_2
REMARK    2  A    between atoms: C_2  and  C_3
REMARK    3  A    between atoms: C_3  and  C_4
REMARK    4  A    between atoms: C_3  and  C_6
REMARK    5  A    between atoms: C_4  and  C_5
REMARK    6  A    between atoms: C_6  and  N_8
REMARK    7  A    between atoms: C_6  and  C_12
REMARK    8  A    between atoms: C_9  and  C_10
REMARK    9  A    between atoms: C_14  and  O_16
REMARK   10  A    between atoms: C_17  and  C_26
REMARK   11  A    between atoms: C_20  and  N_22
REMARK   12  A    between atoms: C_26  and  O_27
REMARK                            x       y       z     vdW  Elec       q    Type
REMARK                         _______ _______ _______ _____ _____    ______ ____
ROOT
ATOM      1  C   UNL     1       7.444   0.884  23.015  0.00  0.00    +0.076 C 
ATOM      2  C   UNL     1       7.754   2.248  23.683  0.00  0.00    +0.153 C 
ATOM      3  C   UNL     1       9.276   2.406  23.758  0.00  0.00    +0.058 C 
ATOM      4  C   UNL     1       9.877   1.324  22.866  0.00  0.00    +0.130 C 
ATOM      5  C   UNL     1       8.699   0.711  22.116  0.00  0.00    +0.136 C 
ENDROOT
BRANCH   2   6
ATOM      6  N   UNL     1       7.211   3.344  22.886  0.00  0.00    -0.273 N 
ATOM      7  H   UNL     1       7.690   3.486  22.000  0.00  0.00    +0.258 HD
ATOM      8  C   UNL     1       6.069   4.036  23.082  0.00  0.00    +0.376 C 
ATOM      9  N   UNL     1       5.596   4.885  22.243  0.00  0.00    -0.130 NA
ATOM     10  H   UNL     1       6.219   4.947  21.437  0.00  0.00    +0.306 HD
ATOM     11  N   UNL     1       5.390   3.833  24.224  0.00  0.00    -0.289 N 
ATOM     12  H   UNL     1       4.627   4.501  24.281  0.00  0.00    +0.255 HD
ATOM     13  H   UNL     1       5.961   3.890  25.054  0.00  0.00    +0.255 HD
ENDBRANCH   2   6
BRANCH   4  14
ATOM     14  C   UNL     1      10.663   0.316  23.682  0.00  0.00    +0.310 C 
ATOM     15  O   UNL     1      11.404   0.609  24.607  0.00  0.00    -0.251 OA
BRANCH  14  16
ATOM     16  O   UNL     1      10.522  -0.952  23.245  0.00  0.00    -0.480 OA
ATOM     17  H   UNL     1       9.828  -1.083  22.573  0.00  0.00    +0.295 HD
ENDBRANCH  14  16
ENDBRANCH   4  14
BRANCH   5  18
ATOM     18  O   UNL     1       8.517   1.483  20.914  0.00  0.00    -0.391 OA
ATOM     19  H   UNL     1       9.338   1.988  20.767  0.00  0.00    +0.210 HD
ENDBRANCH   5  18
BRANCH   1  20
ATOM     20  C   UNL     1       7.196  -0.372  23.924  0.00  0.00    +0.085 C 
BRANCH  20  21
ATOM     21  N   UNL     1       6.388  -1.337  23.126  0.00  0.00    -0.312 N 
ATOM     22  H   UNL     1       5.380  -1.238  23.154  0.00  0.00    +0.149 HD
ATOM     23  C   UNL     1       6.902  -2.481  22.548  0.00  0.00    +0.210 C 
ATOM     24  O   UNL     1       8.097  -2.761  22.550  0.00  0.00    -0.276 OA
ATOM     25  C   UNL     1       5.889  -3.352  21.853  0.00  0.00    +0.109 C 
ENDBRANCH  20  21
BRANCH  20  26
ATOM     26  C   UNL     1       6.414  -0.165  25.281  0.00  0.00    +0.009 C 
BRANCH  26  28
ATOM     27  C   UNL     1       5.411  -2.218  26.517  0.00  0.00    +0.004 C 
ATOM     28  C   UNL     1       5.247  -1.193  25.398  0.00  0.00    +0.002 C 
ENDBRANCH  26  28
BRANCH  26  29
ATOM     29  C   UNL     1       7.255  -0.177  26.569  0.00  0.00    +0.002 C 
ATOM     30  C   UNL     1       8.664  -0.740  26.422  0.00  0.00    +0.004 C 
ENDBRANCH  26  29
ENDBRANCH  20  26
ENDBRANCH   1  20
TORSDOF 9
ENDMDL
