MODEL 1
REMARK VINA RESULT:      -5.8      0.000      0.000
REMARK  Name = 
REMARK  15 active torsions:
REMARK  status: ('A' for Active; 'I' for Inactive)
REMARK    1  A    between atoms: CA_2  and  CB_3
REMARK    2  A    between atoms: CA_2  and  N_4
REMARK    3  A    between atoms: CA_2  and  C_27
REMARK    4  A    between atoms: C_5  and  CA_7
REMARK    5  A    between atoms: CA_7  and  CB_9
REMARK    6  A    between atoms: CA_7  and  N_16
REMARK    7  A    between atoms: CB_9  and  CG_10
REMARK    8  A    between atoms: C_17  and  C_19
REMARK    9  A    between atoms: C_19  and  S_21
REMARK   10  A    between atoms: C_19  and  C_22
REMARK   11  A    between atoms: C_22  and  C_23
REMARK   12  A    between atoms: C_23  and  C_24
REMARK   13  A    between atoms: C_24  and  C_25
REMARK   14  A    between atoms: C_25  and  C_26
REMARK   15  A    between atoms: C_27  and  O_28
REMARK                            x       y       z     vdW  Elec       q    Type
REMARK                         _______ _______ _______ _____ _____    ______ ____
ROOT
ATOM      1  CA  PHE A   1       8.628  -2.554  25.285  0.00  0.00    +0.163 C 
ENDROOT
BRANCH   1   4
ATOM      2  N   PHE A   1       9.464  -0.674  23.911  0.00  0.00    -0.301 N 
ATOM      3  H   PHE A   1      10.151  -1.332  23.566  0.00  0.00    +0.150 HD
ATOM      4  C   PHE A   1       8.700  -1.037  24.999  0.00  0.00    +0.234 C 
ATOM      5  O   PHE A   1       8.120  -0.190  25.681  0.00  0.00    -0.274 OA
BRANCH   2   6
ATOM      6  CA  PHE A   1       9.619   0.720  23.500  0.00  0.00    +0.179 C 
ATOM      7  CB  PHE A   1      10.784   1.448  24.171  0.00  0.00    +0.040 C 
BRANCH   6   8
ATOM      8  C   PHE A   1       9.605   0.854  21.973  0.00  0.00    +0.325 C 
ATOM      9  OXT PHE A   1       9.388  -0.090  21.224  0.00  0.00    -0.249 OA
BRANCH   8  10
ATOM     10  O   PHE A   1       9.966   2.071  21.506  0.00  0.00    -0.479 OA
ATOM     11  H   PHE A   1       9.626   2.239  20.596  0.00  0.00    +0.295 HD
ENDBRANCH   8  10
ENDBRANCH   6   8
ENDBRANCH   2   6
ENDBRANCH   1   4
BRANCH   1  12
ATOM     12  N   PHE A   1       7.298  -2.901  25.770  0.00  0.00    -0.303 N 
ATOM     13  H   PHE A   1       6.515  -2.326  25.467  0.00  0.00    +0.149 HD
ATOM     14  C   UNK A   0       7.092  -3.882  26.711  0.00  0.00    +0.226 C 
ATOM     15  O   UNK A   0       8.018  -4.553  27.165  0.00  0.00    -0.275 OA
BRANCH  14  16
ATOM     16  C   UNK A   0       5.637  -4.150  27.106  0.00  0.00    +0.129 C 
BRANCH  16  17
ATOM     17  S   UNK A   0       4.811  -2.581  27.583  0.00  0.00    -0.166 S 
ATOM     18  H   UNK A   0       3.845  -2.633  26.654  0.00  0.00    +0.102 HD
ENDBRANCH  16  17
BRANCH  16  19
ATOM     19  C   UNK A   0       4.845  -4.820  25.977  0.00  0.00    +0.023 C 
BRANCH  19  20
ATOM     20  C   UNK A   0       5.166  -6.315  25.848  0.00  0.00    +0.002 C 
BRANCH  20  21
ATOM     21  C   UNK A   0       4.205  -7.006  24.880  0.00  0.00    -0.000 C 
BRANCH  21  22
ATOM     22  C   UNK A   0       3.082  -6.066  24.441  0.00  0.00    -0.003 C 
ATOM     23  C   UNK A   0       2.639  -6.357  23.015  0.00  0.00    +0.004 C 
ENDBRANCH  21  22
ENDBRANCH  20  21
ENDBRANCH  19  20
ENDBRANCH  16  19
ENDBRANCH  14  16
ENDBRANCH   1  12
BRANCH   1  24
ATOM     24  CB  PHE A   1       9.068  -3.407  24.077  0.00  0.00    +0.067 C 
BRANCH  24  25
ATOM     25  CG  PHE A   1       7.946  -3.994  23.246  0.00  0.00    -0.045 A 
ATOM     26  CD2 PHE A   1       7.727  -5.378  23.225  0.00  0.00    +0.004 A 
ATOM     27  CE2 PHE A   1       6.700  -5.929  22.455  0.00  0.00    +0.000 A 
ATOM     28  CZ  PHE A   1       5.881  -5.102  21.691  0.00  0.00    +0.000 A 
ATOM     29  CE1 PHE A   1       6.095  -3.727  21.689  0.00  0.00    +0.000 A 
ATOM     30  CD1 PHE A   1       7.127  -3.180  22.454  0.00  0.00    +0.004 A 
ENDBRANCH  24  25
ENDBRANCH   1  24
TORSDOF 13
ENDMDL
MODEL 2
REMARK VINA RESULT:      -5.7      1.763      2.275
REMARK  Name = 
REMARK  15 active torsions:
REMARK  status: ('A' for Active; 'I' for Inactive)
REMARK    1  A    between atoms: CA_2  and  CB_3
REMARK    2  A    between atoms: CA_2  and  N_4
REMARK    3  A    between atoms: CA_2  and  C_27
REMARK    4  A    between atoms: C_5  and  CA_7
REMARK    5  A    between atoms: CA_7  and  CB_9
REMARK    6  A    between atoms: CA_7  and  N_16
REMARK    7  A    between atoms: CB_9  and  CG_10
REMARK    8  A    between atoms: C_17  and  C_19
REMARK    9  A    between atoms: C_19  and  S_21
REMARK   10  A    between atoms: C_19  and  C_22
REMARK   11  A    between atoms: C_22  and  C_23
REMARK   12  A    between atoms: C_23  and  C_24
REMARK   13  A    between atoms: C_24  and  C_25
REMARK   14  A    between atoms: C_25  and  C_26
REMARK   15  A    between atoms: C_27  and  O_28
REMARK                            x       y       z     vdW  Elec       q    Type
REMARK                         _______ _______ _______ _____ _____    ______ ____
ROOT
ATOM      1  CA  PHE A   1       8.675  -2.497  22.868  0.00  0.00    +0.163 C 
ENDROOT
BRANCH   1   4
ATOM      2  N   PHE A   1       8.740  -0.109  23.514  0.00  0.00    -0.301 N 
ATOM      3  H   PHE A   1       7.801  -0.257  23.860  0.00  0.00    +0.150 HD
ATOM      4  C   PHE A   1       9.315  -1.096  22.741  0.00  0.00    +0.234 C 
ATOM      5  O   PHE A   1      10.275  -0.852  22.008  0.00  0.00    -0.274 OA
BRANCH   2   6
ATOM      6  CA  PHE A   1       9.239   1.264  23.517  0.00  0.00    +0.179 C 
ATOM      7  CB  PHE A   1      10.627   1.429  24.138  0.00  0.00    +0.040 C 
BRANCH   6   8
ATOM      8  C   PHE A   1       9.103   1.908  22.132  0.00  0.00    +0.325 C 
ATOM      9  OXT PHE A   1       8.028   2.027  21.557  0.00  0.00    -0.249 OA
BRANCH   8  10
ATOM     10  O   PHE A   1      10.274   2.230  21.538  0.00  0.00    -0.479 OA
ATOM     11  H   PHE A   1      10.352   3.197  21.364  0.00  0.00    +0.295 HD
ENDBRANCH   8  10
ENDBRANCH   6   8
ENDBRANCH   2   6
ENDBRANCH   1   4
BRANCH   1  12
ATOM     12  N   PHE A   1       8.272  -2.730  24.250  0.00  0.00    -0.303 N 
ATOM     13  H   PHE A   1       7.582  -2.101  24.657  0.00  0.00    +0.149 HD
ATOM     14  C   UNK A   0       8.879  -3.672  25.044  0.00  0.00    +0.226 C 
ATOM     15  O   UNK A   0       9.771  -4.405  24.619  0.00  0.00    -0.275 OA
BRANCH  14  16
ATOM     16  C   UNK A   0       8.330  -3.819  26.467  0.00  0.00    +0.129 C 
BRANCH  16  17
ATOM     17  S   UNK A   0       6.979  -2.609  26.751  0.00  0.00    -0.166 S 
ATOM     18  H   UNK A   0       5.971  -3.430  26.417  0.00  0.00    +0.102 HD
ENDBRANCH  16  17
BRANCH  16  19
ATOM     19  C   UNK A   0       7.814  -5.234  26.745  0.00  0.00    +0.023 C 
BRANCH  19  20
ATOM     20  C   UNK A   0       6.587  -5.585  25.894  0.00  0.00    +0.002 C 
BRANCH  20  21
ATOM     21  C   UNK A   0       5.503  -6.260  26.736  0.00  0.00    -0.000 C 
BRANCH  21  22
ATOM     22  C   UNK A   0       4.157  -5.552  26.586  0.00  0.00    -0.003 C 
ATOM     23  C   UNK A   0       3.000  -6.535  26.665  0.00  0.00    +0.004 C 
ENDBRANCH  21  22
ENDBRANCH  20  21
ENDBRANCH  19  20
ENDBRANCH  16  19
ENDBRANCH  14  16
ENDBRANCH   1  12
BRANCH   1  24
ATOM     24  CB  PHE A   1       7.528  -2.720  21.862  0.00  0.00    +0.067 C 
BRANCH  24  25
ATOM     25  CG  PHE A   1       6.555  -3.827  22.213  0.00  0.00    -0.045 A 
ATOM     26  CD2 PHE A   1       6.896  -5.168  21.993  0.00  0.00    +0.004 A 
ATOM     27  CE2 PHE A   1       6.003  -6.195  22.306  0.00  0.00    +0.000 A 
ATOM     28  CZ  PHE A   1       4.751  -5.893  22.837  0.00  0.00    +0.000 A 
ATOM     29  CE1 PHE A   1       4.391  -4.565  23.047  0.00  0.00    +0.000 A 
ATOM     30  CD1 PHE A   1       5.284  -3.540  22.726  0.00  0.00    +0.004 A 
ENDBRANCH  24  25
ENDBRANCH   1  24
TORSDOF 13
ENDMDL
MODEL 3
REMARK VINA RESULT:      -5.6      2.857      7.072
REMARK  Name = 
REMARK  15 active torsions:
REMARK  status: ('A' for Active; 'I' for Inactive)
REMARK    1  A    between atoms: CA_2  and  CB_3
REMARK    2  A    between atoms: CA_2  and  N_4
REMARK    3  A    between atoms: CA_2  and  C_27
REMARK    4  A    between atoms: C_5  and  CA_7
REMARK    5  A    between atoms: CA_7  and  CB_9
REMARK    6  A    between atoms: CA_7  and  N_16
REMARK    7  A    between atoms: CB_9  and  CG_10
REMARK    8  A    between atoms: C_17  and  C_19
REMARK    9  A    between atoms: C_19  and  S_21
REMARK   10  A    between atoms: C_19  and  C_22
REMARK   11  A    between atoms: C_22  and  C_23
REMARK   12  A    between atoms: C_23  and  C_24
REMARK   13  A    between atoms: C_24  and  C_25
REMARK   14  A    between atoms: C_25  and  C_26
REMARK   15  A    between atoms: C_27  and  O_28
REMARK                            x       y       z     vdW  Elec       q    Type
REMARK                         _______ _______ _______ _____ _____    ______ ____
ROOT
ATOM      1  CA  PHE A   1       8.109  -2.264  23.657  0.00  0.00    +0.163 C 
ENDROOT
BRANCH   1   4
ATOM      2  N   PHE A   1       6.579  -4.158  24.093  0.00  0.00    -0.301 N 
ATOM      3  H   PHE A   1       5.883  -3.450  24.293  0.00  0.00    +0.150 HD
ATOM      4  C   PHE A   1       7.893  -3.764  23.958  0.00  0.00    +0.234 C 
ATOM      5  O   PHE A   1       8.815  -4.573  24.072  0.00  0.00    -0.274 OA
BRANCH   2   6
ATOM      6  CA  PHE A   1       6.208  -5.545  24.364  0.00  0.00    +0.179 C 
ATOM      7  CB  PHE A   1       5.816  -5.821  25.815  0.00  0.00    +0.040 C 
BRANCH   6   8
ATOM      8  C   PHE A   1       5.185  -6.056  23.341  0.00  0.00    +0.325 C 
ATOM      9  OXT PHE A   1       4.814  -5.391  22.382  0.00  0.00    -0.249 OA
BRANCH   8  10
ATOM     10  O   PHE A   1       4.633  -7.254  23.640  0.00  0.00    -0.479 OA
ATOM     11  H   PHE A   1       5.162  -7.754  24.304  0.00  0.00    +0.295 HD
ENDBRANCH   8  10
ENDBRANCH   6   8
ENDBRANCH   2   6
ENDBRANCH   1   4
BRANCH   1  12
ATOM     12  N   PHE A   1       7.562  -1.460  24.743  0.00  0.00    -0.303 N 
ATOM     13  H   PHE A   1       7.772  -1.742  25.698  0.00  0.00    +0.149 HD
ATOM     14  C   UNK A   0       6.680  -0.430  24.522  0.00  0.00    +0.226 C 
ATOM     15  O   UNK A   0       6.335  -0.099  23.389  0.00  0.00    -0.275 OA
BRANCH  14  16
ATOM     16  C   UNK A   0       6.209   0.340  25.761  0.00  0.00    +0.129 C 
BRANCH  16  17
ATOM     17  S   UNK A   0       7.341   0.023  27.171  0.00  0.00    -0.166 S 
ATOM     18  H   UNK A   0       8.441  -0.191  26.432  0.00  0.00    +0.102 HD
ENDBRANCH  16  17
BRANCH  16  19
ATOM     19  C   UNK A   0       6.121   1.848  25.506  0.00  0.00    +0.023 C 
BRANCH  19  20
ATOM     20  C   UNK A   0       7.467   2.554  25.715  0.00  0.00    +0.002 C 
BRANCH  20  21
ATOM     21  C   UNK A   0       7.681   3.659  24.680  0.00  0.00    -0.000 C 
BRANCH  21  22
ATOM     22  C   UNK A   0       6.989   3.326  23.358  0.00  0.00    -0.003 C 
ATOM     23  C   UNK A   0       7.239   4.404  22.314  0.00  0.00    +0.004 C 
ENDBRANCH  21  22
ENDBRANCH  20  21
ENDBRANCH  19  20
ENDBRANCH  16  19
ENDBRANCH  14  16
ENDBRANCH   1  12
BRANCH   1  24
ATOM     24  CB  PHE A   1       9.582  -1.926  23.344  0.00  0.00    +0.067 C 
BRANCH  24  25
ATOM     25  CG  PHE A   1       9.899  -0.453  23.195  0.00  0.00    -0.045 A 
ATOM     26  CD2 PHE A   1       9.618   0.216  21.997  0.00  0.00    +0.004 A 
ATOM     27  CE2 PHE A   1       9.914   1.573  21.846  0.00  0.00    +0.000 A 
ATOM     28  CZ  PHE A   1      10.503   2.278  22.894  0.00  0.00    +0.000 A 
ATOM     29  CE1 PHE A   1      10.802   1.624  24.085  0.00  0.00    +0.000 A 
ATOM     30  CD1 PHE A   1      10.512   0.266  24.229  0.00  0.00    +0.004 A 
ENDBRANCH  24  25
ENDBRANCH   1  24
TORSDOF 13
ENDMDL
MODEL 4
REMARK VINA RESULT:      -5.5      2.653      7.187
REMARK  Name = 
REMARK  15 active torsions:
REMARK  status: ('A' for Active; 'I' for Inactive)
REMARK    1  A    between atoms: CA_2  and  CB_3
REMARK    2  A    between atoms: CA_2  and  N_4
REMARK    3  A    between atoms: CA_2  and  C_27
REMARK    4  A    between atoms: C_5  and  CA_7
REMARK    5  A    between atoms: CA_7  and  CB_9
REMARK    6  A    between atoms: CA_7  and  N_16
REMARK    7  A    between atoms: CB_9  and  CG_10
REMARK    8  A    between atoms: C_17  and  C_19
REMARK    9  A    between atoms: C_19  and  S_21
REMARK   10  A    between atoms: C_19  and  C_22
REMARK   11  A    between atoms: C_22  and  C_23
REMARK   12  A    between atoms: C_23  and  C_24
REMARK   13  A    between atoms: C_24  and  C_25
REMARK   14  A    between atoms: C_25  and  C_26
REMARK   15  A    between atoms: C_27  and  O_28
REMARK                            x       y       z     vdW  Elec       q    Type
REMARK                         _______ _______ _______ _____ _____    ______ ____
ROOT
ATOM      1  CA  PHE A   1       8.997  -3.188  24.595  0.00  0.00    +0.163 C 
ENDROOT
BRANCH   1   4
ATOM      2  N   PHE A   1       7.136  -4.336  23.438  0.00  0.00    -0.301 N 
ATOM      3  H   PHE A   1       6.588  -3.518  23.671  0.00  0.00    +0.150 HD
ATOM      4  C   PHE A   1       8.375  -4.482  24.025  0.00  0.00    +0.234 C 
ATOM      5  O   PHE A   1       8.930  -5.581  24.077  0.00  0.00    -0.274 OA
BRANCH   2   6
ATOM      6  CA  PHE A   1       6.423  -5.462  22.839  0.00  0.00    +0.179 C 
ATOM      7  CB  PHE A   1       5.271  -6.001  23.688  0.00  0.00    +0.040 C 
BRANCH   6   8
ATOM      8  C   PHE A   1       6.032  -5.162  21.387  0.00  0.00    +0.325 C 
ATOM      9  OXT PHE A   1       6.135  -5.986  20.487  0.00  0.00    -0.249 OA
BRANCH   8  10
ATOM     10  O   PHE A   1       5.674  -3.880  21.149  0.00  0.00    -0.479 OA
ATOM     11  H   PHE A   1       5.238  -3.770  20.271  0.00  0.00    +0.295 HD
ENDBRANCH   8  10
ENDBRANCH   6   8
ENDBRANCH   2   6
ENDBRANCH   1   4
BRANCH   1  12
ATOM     12  N   PHE A   1       8.590  -2.047  23.784  0.00  0.00    -0.303 N 
ATOM     13  H   PHE A   1       7.637  -1.705  23.887  0.00  0.00    +0.149 HD
ATOM     14  C   UNK A   0       9.397  -1.513  22.809  0.00  0.00    +0.226 C 
ATOM     15  O   UNK A   0      10.530  -1.942  22.594  0.00  0.00    -0.275 OA
BRANCH  14  16
ATOM     16  C   UNK A   0       8.842  -0.301  22.054  0.00  0.00    +0.129 C 
BRANCH  16  17
ATOM     17  S   UNK A   0       7.413   0.409  22.963  0.00  0.00    -0.166 S 
ATOM     18  H   UNK A   0       6.611   0.547  21.896  0.00  0.00    +0.102 HD
ENDBRANCH  16  17
BRANCH  16  19
ATOM     19  C   UNK A   0       9.902   0.784  21.843  0.00  0.00    +0.023 C 
BRANCH  19  20
ATOM     20  C   UNK A   0       9.509   2.118  22.491  0.00  0.00    +0.002 C 
BRANCH  20  21
ATOM     21  C   UNK A   0      10.528   2.543  23.549  0.00  0.00    -0.000 C 
BRANCH  21  22
ATOM     22  C   UNK A   0      10.660   4.064  23.619  0.00  0.00    -0.003 C 
ATOM     23  C   UNK A   0      12.066   4.517  23.256  0.00  0.00    +0.004 C 
ENDBRANCH  21  22
ENDBRANCH  20  21
ENDBRANCH  19  20
ENDBRANCH  16  19
ENDBRANCH  14  16
ENDBRANCH   1  12
BRANCH   1  24
ATOM     24  CB  PHE A   1       8.696  -2.994  26.096  0.00  0.00    +0.067 C 
BRANCH  24  25
ATOM     25  CG  PHE A   1       7.414  -3.628  26.594  0.00  0.00    -0.045 A 
ATOM     26  CD2 PHE A   1       6.212  -2.908  26.576  0.00  0.00    +0.004 A 
ATOM     27  CE2 PHE A   1       5.026  -3.481  27.040  0.00  0.00    +0.000 A 
ATOM     28  CZ  PHE A   1       5.028  -4.783  27.536  0.00  0.00    +0.000 A 
ATOM     29  CE1 PHE A   1       6.217  -5.506  27.575  0.00  0.00    +0.000 A 
ATOM     30  CD1 PHE A   1       7.402  -4.928  27.117  0.00  0.00    +0.004 A 
ENDBRANCH  24  25
ENDBRANCH   1  24
TORSDOF 13
ENDMDL
MODEL 5
REMARK VINA RESULT:      -5.3      3.201      7.288
REMARK  Name = 
REMARK  15 active torsions:
REMARK  status: ('A' for Active; 'I' for Inactive)
REMARK    1  A    between atoms: CA_2  and  CB_3
REMARK    2  A    between atoms: CA_2  and  N_4
REMARK    3  A    between atoms: CA_2  and  C_27
REMARK    4  A    between atoms: C_5  and  CA_7
REMARK    5  A    between atoms: CA_7  and  CB_9
REMARK    6  A    between atoms: CA_7  and  N_16
REMARK    7  A    between atoms: CB_9  and  CG_10
REMARK    8  A    between atoms: C_17  and  C_19
REMARK    9  A    between atoms: C_19  and  S_21
REMARK   10  A    between atoms: C_19  and  C_22
REMARK   11  A    between atoms: C_22  and  C_23
REMARK   12  A    between atoms: C_23  and  C_24
REMARK   13  A    between atoms: C_24  and  C_25
REMARK   14  A    between atoms: C_25  and  C_26
REMARK   15  A    between atoms: C_27  and  O_28
REMARK                            x       y       z     vdW  Elec       q    Type
REMARK                         _______ _______ _______ _____ _____    ______ ____
ROOT
ATOM      1  CA  PHE A   1       6.760  -5.582  25.954  0.00  0.00    +0.163 C 
ENDROOT
BRANCH   1   4
ATOM      2  N   PHE A   1       4.361  -6.017  25.534  0.00  0.00    -0.301 N 
ATOM      3  H   PHE A   1       4.393  -5.192  24.948  0.00  0.00    +0.150 HD
ATOM      4  C   PHE A   1       5.440  -6.282  26.350  0.00  0.00    +0.234 C 
ATOM      5  O   PHE A   1       5.335  -7.031  27.322  0.00  0.00    -0.274 OA
BRANCH   2   6
ATOM      6  CA  PHE A   1       3.047  -6.613  25.765  0.00  0.00    +0.179 C 
ATOM      7  CB  PHE A   1       1.914  -5.599  25.925  0.00  0.00    +0.040 C 
BRANCH   6   8
ATOM      8  C   PHE A   1       2.749  -7.715  24.741  0.00  0.00    +0.325 C 
ATOM      9  OXT PHE A   1       2.404  -7.478  23.591  0.00  0.00    -0.249 OA
BRANCH   8  10
ATOM     10  O   PHE A   1       2.782  -8.973  25.236  0.00  0.00    -0.479 OA
ATOM     11  H   PHE A   1       2.245  -9.601  24.697  0.00  0.00    +0.295 HD
ENDBRANCH   8  10
ENDBRANCH   6   8
ENDBRANCH   2   6
ENDBRANCH   1   4
BRANCH   1  12
ATOM     12  N   PHE A   1       6.611  -4.952  24.648  0.00  0.00    -0.303 N 
ATOM     13  H   PHE A   1       5.690  -4.603  24.390  0.00  0.00    +0.149 HD
ATOM     14  C   UNK A   0       7.624  -4.935  23.720  0.00  0.00    +0.226 C 
ATOM     15  O   UNK A   0       8.732  -5.414  23.957  0.00  0.00    -0.275 OA
BRANCH  14  16
ATOM     16  C   UNK A   0       7.326  -4.216  22.401  0.00  0.00    +0.129 C 
BRANCH  16  17
ATOM     17  S   UNK A   0       6.322  -5.294  21.305  0.00  0.00    -0.166 S 
ATOM     18  H   UNK A   0       5.244  -4.495  21.259  0.00  0.00    +0.102 HD
ENDBRANCH  16  17
BRANCH  16  19
ATOM     19  C   UNK A   0       6.595  -2.887  22.619  0.00  0.00    +0.023 C 
BRANCH  19  20
ATOM     20  C   UNK A   0       7.563  -1.703  22.747  0.00  0.00    +0.002 C 
BRANCH  20  21
ATOM     21  C   UNK A   0       8.894  -1.997  22.054  0.00  0.00    -0.000 C 
BRANCH  21  22
ATOM     22  C   UNK A   0      10.078  -1.730  22.983  0.00  0.00    -0.003 C 
ATOM     23  C   UNK A   0      10.265  -0.242  23.232  0.00  0.00    +0.004 C 
ENDBRANCH  21  22
ENDBRANCH  20  21
ENDBRANCH  19  20
ENDBRANCH  16  19
ENDBRANCH  14  16
ENDBRANCH   1  12
BRANCH   1  24
ATOM     24  CB  PHE A   1       7.263  -4.606  27.037  0.00  0.00    +0.067 C 
BRANCH  24  25
ATOM     25  CG  PHE A   1       7.128  -3.134  26.706  0.00  0.00    -0.045 A 
ATOM     26  CD2 PHE A   1       8.265  -2.359  26.439  0.00  0.00    +0.004 A 
ATOM     27  CE2 PHE A   1       8.151  -0.999  26.140  0.00  0.00    +0.000 A 
ATOM     28  CZ  PHE A   1       6.897  -0.394  26.111  0.00  0.00    +0.000 A 
ATOM     29  CE1 PHE A   1       5.759  -1.147  26.389  0.00  0.00    +0.000 A 
ATOM     30  CD1 PHE A   1       5.877  -2.504  26.694  0.00  0.00    +0.004 A 
ENDBRANCH  24  25
ENDBRANCH   1  24
TORSDOF 13
ENDMDL
MODEL 6
REMARK VINA RESULT:      -5.3      3.026      5.514
REMARK  Name = 
REMARK  15 active torsions:
REMARK  status: ('A' for Active; 'I' for Inactive)
REMARK    1  A    between atoms: CA_2  and  CB_3
REMARK    2  A    between atoms: CA_2  and  N_4
REMARK    3  A    between atoms: CA_2  and  C_27
REMARK    4  A    between atoms: C_5  and  CA_7
REMARK    5  A    between atoms: CA_7  and  CB_9
REMARK    6  A    between atoms: CA_7  and  N_16
REMARK    7  A    between atoms: CB_9  and  CG_10
REMARK    8  A    between atoms: C_17  and  C_19
REMARK    9  A    between atoms: C_19  and  S_21
REMARK   10  A    between atoms: C_19  and  C_22
REMARK   11  A    between atoms: C_22  and  C_23
REMARK   12  A    between atoms: C_23  and  C_24
REMARK   13  A    between atoms: C_24  and  C_25
REMARK   14  A    between atoms: C_25  and  C_26
REMARK   15  A    between atoms: C_27  and  O_28
REMARK                            x       y       z     vdW  Elec       q    Type
REMARK                         _______ _______ _______ _____ _____    ______ ____
ROOT
ATOM      1  CA  PHE A   1       9.702   0.851  22.566  0.00  0.00    +0.163 C 
ENDROOT
BRANCH   1   4
ATOM      2  N   PHE A   1      10.703   3.097  22.841  0.00  0.00    -0.301 N 
ATOM      3  H   PHE A   1      10.995   3.000  21.876  0.00  0.00    +0.150 HD
ATOM      4  C   PHE A   1      10.203   1.986  23.487  0.00  0.00    +0.234 C 
ATOM      5  O   PHE A   1      10.167   1.928  24.717  0.00  0.00    -0.274 OA
BRANCH   2   6
ATOM      6  CA  PHE A   1      11.202   4.261  23.570  0.00  0.00    +0.179 C 
ATOM      7  CB  PHE A   1      12.442   4.907  22.952  0.00  0.00    +0.040 C 
BRANCH   6   8
ATOM      8  C   PHE A   1      10.073   5.254  23.869  0.00  0.00    +0.325 C 
ATOM      9  OXT PHE A   1      10.008   6.363  23.353  0.00  0.00    -0.249 OA
BRANCH   8  10
ATOM     10  O   PHE A   1       9.213   4.862  24.836  0.00  0.00    -0.479 OA
ATOM     11  H   PHE A   1       9.557   4.096  25.354  0.00  0.00    +0.295 HD
ENDBRANCH   8  10
ENDBRANCH   6   8
ENDBRANCH   2   6
ENDBRANCH   1   4
BRANCH   1  12
ATOM     12  N   PHE A   1       9.315  -0.301  23.371  0.00  0.00    -0.303 N 
ATOM     13  H   PHE A   1       8.748  -0.135  24.199  0.00  0.00    +0.149 HD
ATOM     14  C   UNK A   0       9.793  -1.565  23.122  0.00  0.00    +0.226 C 
ATOM     15  O   UNK A   0      10.543  -1.804  22.177  0.00  0.00    -0.275 OA
BRANCH  14  16
ATOM     16  C   UNK A   0       9.278  -2.679  24.039  0.00  0.00    +0.129 C 
BRANCH  16  17
ATOM     17  S   UNK A   0       8.373  -1.958  25.464  0.00  0.00    -0.166 S 
ATOM     18  H   UNK A   0       7.542  -2.994  25.653  0.00  0.00    +0.102 HD
ENDBRANCH  16  17
BRANCH  16  19
ATOM     19  C   UNK A   0       8.363  -3.661  23.298  0.00  0.00    +0.023 C 
BRANCH  19  20
ATOM     20  C   UNK A   0       7.196  -2.954  22.597  0.00  0.00    +0.002 C 
BRANCH  20  21
ATOM     21  C   UNK A   0       5.918  -3.793  22.666  0.00  0.00    -0.000 C 
BRANCH  21  22
ATOM     22  C   UNK A   0       6.214  -5.279  22.462  0.00  0.00    -0.003 C 
ATOM     23  C   UNK A   0       6.246  -5.641  20.985  0.00  0.00    +0.004 C 
ENDBRANCH  21  22
ENDBRANCH  20  21
ENDBRANCH  19  20
ENDBRANCH  16  19
ENDBRANCH  14  16
ENDBRANCH   1  12
BRANCH   1  24
ATOM     24  CB  PHE A   1       8.587   1.314  21.605  0.00  0.00    +0.067 C 
BRANCH  24  25
ATOM     25  CG  PHE A   1       7.454   2.090  22.243  0.00  0.00    -0.045 A 
ATOM     26  CD2 PHE A   1       7.298   3.459  21.985  0.00  0.00    +0.004 A 
ATOM     27  CE2 PHE A   1       6.260   4.186  22.574  0.00  0.00    +0.000 A 
ATOM     28  CZ  PHE A   1       5.367   3.552  23.435  0.00  0.00    +0.000 A 
ATOM     29  CE1 PHE A   1       5.517   2.196  23.712  0.00  0.00    +0.000 A 
ATOM     30  CD1 PHE A   1       6.559   1.475  23.127  0.00  0.00    +0.004 A 
ENDBRANCH  24  25
ENDBRANCH   1  24
TORSDOF 13
ENDMDL
MODEL 7
REMARK VINA RESULT:      -5.3      2.731      7.092
REMARK  Name = 
REMARK  15 active torsions:
REMARK  status: ('A' for Active; 'I' for Inactive)
REMARK    1  A    between atoms: CA_2  and  CB_3
REMARK    2  A    between atoms: CA_2  and  N_4
REMARK    3  A    between atoms: CA_2  and  C_27
REMARK    4  A    between atoms: C_5  and  CA_7
REMARK    5  A    between atoms: CA_7  and  CB_9
REMARK    6  A    between atoms: CA_7  and  N_16
REMARK    7  A    between atoms: CB_9  and  CG_10
REMARK    8  A    between atoms: C_17  and  C_19
REMARK    9  A    between atoms: C_19  and  S_21
REMARK   10  A    between atoms: C_19  and  C_22
REMARK   11  A    between atoms: C_22  and  C_23
REMARK   12  A    between atoms: C_23  and  C_24
REMARK   13  A    between atoms: C_24  and  C_25
REMARK   14  A    between atoms: C_25  and  C_26
REMARK   15  A    between atoms: C_27  and  O_28
REMARK                            x       y       z     vdW  Elec       q    Type
REMARK                         _______ _______ _______ _____ _____    ______ ____
ROOT
ATOM      1  CA  PHE A   1       7.877  -1.875  22.859  0.00  0.00    +0.163 C 
ENDROOT
BRANCH   1   4
ATOM      2  N   PHE A   1       8.194  -3.615  24.589  0.00  0.00    -0.301 N 
ATOM      3  H   PHE A   1       8.735  -2.916  25.083  0.00  0.00    +0.150 HD
ATOM      4  C   PHE A   1       7.835  -3.361  23.282  0.00  0.00    +0.234 C 
ATOM      5  O   PHE A   1       7.504  -4.273  22.524  0.00  0.00    -0.274 OA
BRANCH   2   6
ATOM      6  CA  PHE A   1       8.190  -4.965  25.147  0.00  0.00    +0.179 C 
ATOM      7  CB  PHE A   1       9.581  -5.573  25.333  0.00  0.00    +0.040 C 
BRANCH   6   8
ATOM      8  C   PHE A   1       7.309  -5.046  26.400  0.00  0.00    +0.325 C 
ATOM      9  OXT PHE A   1       6.238  -4.461  26.498  0.00  0.00    -0.249 OA
BRANCH   8  10
ATOM     10  O   PHE A   1       7.858  -5.719  27.437  0.00  0.00    -0.479 OA
ATOM     11  H   PHE A   1       8.276  -5.116  28.094  0.00  0.00    +0.295 HD
ENDBRANCH   8  10
ENDBRANCH   6   8
ENDBRANCH   2   6
ENDBRANCH   1   4
BRANCH   1  12
ATOM     12  N   PHE A   1       7.522  -1.029  23.992  0.00  0.00    -0.303 N 
ATOM     13  H   PHE A   1       7.798  -1.338  24.922  0.00  0.00    +0.149 HD
ATOM     14  C   UNK A   0       6.726   0.082  23.858  0.00  0.00    +0.226 C 
ATOM     15  O   UNK A   0       6.303   0.453  22.764  0.00  0.00    -0.275 OA
BRANCH  14  16
ATOM     16  C   UNK A   0       6.458   0.885  25.135  0.00  0.00    +0.129 C 
BRANCH  16  17
ATOM     17  S   UNK A   0       5.810  -0.219  26.451  0.00  0.00    -0.166 S 
ATOM     18  H   UNK A   0       4.667  -0.541  25.826  0.00  0.00    +0.102 HD
ENDBRANCH  16  17
BRANCH  16  19
ATOM     19  C   UNK A   0       7.714   1.601  25.642  0.00  0.00    +0.023 C 
BRANCH  19  20
ATOM     20  C   UNK A   0       7.487   3.106  25.841  0.00  0.00    +0.002 C 
BRANCH  20  21
ATOM     21  C   UNK A   0       7.895   3.897  24.597  0.00  0.00    -0.000 C 
BRANCH  21  22
ATOM     22  C   UNK A   0       6.690   4.190  23.702  0.00  0.00    -0.003 C 
ATOM     23  C   UNK A   0       7.000   3.903  22.242  0.00  0.00    +0.004 C 
ENDBRANCH  21  22
ENDBRANCH  20  21
ENDBRANCH  19  20
ENDBRANCH  16  19
ENDBRANCH  14  16
ENDBRANCH   1  12
BRANCH   1  24
ATOM     24  CB  PHE A   1       9.221  -1.479  22.213  0.00  0.00    +0.067 C 
BRANCH  24  25
ATOM     25  CG  PHE A   1       9.814  -0.168  22.685  0.00  0.00    -0.045 A 
ATOM     26  CD2 PHE A   1       9.691   0.989  21.903  0.00  0.00    +0.004 A 
ATOM     27  CE2 PHE A   1      10.240   2.202  22.326  0.00  0.00    +0.000 A 
ATOM     28  CZ  PHE A   1      10.928   2.271  23.535  0.00  0.00    +0.000 A 
ATOM     29  CE1 PHE A   1      11.072   1.128  24.316  0.00  0.00    +0.000 A 
ATOM     30  CD1 PHE A   1      10.527  -0.084  23.887  0.00  0.00    +0.004 A 
ENDBRANCH  24  25
ENDBRANCH   1  24
TORSDOF 13
ENDMDL
MODEL 8
REMARK VINA RESULT:      -5.3      2.316      3.942
REMARK  Name = 
REMARK  15 active torsions:
REMARK  status: ('A' for Active; 'I' for Inactive)
REMARK    1  A    between atoms: CA_2  and  CB_3
REMARK    2  A    between atoms: CA_2  and  N_4
REMARK    3  A    between atoms: CA_2  and  C_27
REMARK    4  A    between atoms: C_5  and  CA_7
REMARK    5  A    between atoms: CA_7  and  CB_9
REMARK    6  A    between atoms: CA_7  and  N_16
REMARK    7  A    between atoms: CB_9  and  CG_10
REMARK    8  A    between atoms: C_17  and  C_19
REMARK    9  A    between atoms: C_19  and  S_21
REMARK   10  A    between atoms: C_19  and  C_22
REMARK   11  A    between atoms: C_22  and  C_23
REMARK   12  A    between atoms: C_23  and  C_24
REMARK   13  A    between atoms: C_24  and  C_25
REMARK   14  A    between atoms: C_25  and  C_26
REMARK   15  A    between atoms: C_27  and  O_28
REMARK                            x       y       z     vdW  Elec       q    Type
REMARK                         _______ _______ _______ _____ _____    ______ ____
ROOT
ATOM      1  CA  PHE A   1       7.923  -3.196  24.618  0.00  0.00    +0.163 C 
ENDROOT
BRANCH   1   4
ATOM      2  N   PHE A   1       8.857  -1.194  23.505  0.00  0.00    -0.301 N 
ATOM      3  H   PHE A   1       7.895  -0.899  23.398  0.00  0.00    +0.150 HD
ATOM      4  C   PHE A   1       9.103  -2.486  23.917  0.00  0.00    +0.234 C 
ATOM      5  O   PHE A   1      10.199  -3.017  23.730  0.00  0.00    -0.274 OA
BRANCH   2   6
ATOM      6  CA  PHE A   1       9.876  -0.383  22.840  0.00  0.00    +0.179 C 
ATOM      7  CB  PHE A   1       9.447   0.179  21.485  0.00  0.00    +0.040 C 
BRANCH   6   8
ATOM      8  C   PHE A   1      10.453   0.672  23.792  0.00  0.00    +0.325 C 
ATOM      9  OXT PHE A   1      10.701   0.442  24.968  0.00  0.00    -0.249 OA
BRANCH   8  10
ATOM     10  O   PHE A   1      10.560   1.913  23.265  0.00  0.00    -0.479 OA
ATOM     11  H   PHE A   1      10.259   1.948  22.327  0.00  0.00    +0.295 HD
ENDBRANCH   8  10
ENDBRANCH   6   8
ENDBRANCH   2   6
ENDBRANCH   1   4
BRANCH   1  12
ATOM     12  N   PHE A   1       7.263  -4.097  23.681  0.00  0.00    -0.303 N 
ATOM     13  H   PHE A   1       7.832  -4.803  23.219  0.00  0.00    +0.149 HD
ATOM     14  C   UNK A   0       5.949  -3.940  23.311  0.00  0.00    +0.226 C 
ATOM     15  O   UNK A   0       5.241  -3.053  23.786  0.00  0.00    -0.275 OA
BRANCH  14  16
ATOM     16  C   UNK A   0       5.388  -4.979  22.336  0.00  0.00    +0.129 C 
BRANCH  16  17
ATOM     17  S   UNK A   0       6.747  -6.014  21.664  0.00  0.00    -0.166 S 
ATOM     18  H   UNK A   0       7.439  -5.008  21.107  0.00  0.00    +0.102 HD
ENDBRANCH  16  17
BRANCH  16  19
ATOM     19  C   UNK A   0       4.337  -5.880  22.992  0.00  0.00    +0.023 C 
BRANCH  19  20
ATOM     20  C   UNK A   0       4.927  -6.736  24.121  0.00  0.00    +0.002 C 
BRANCH  20  21
ATOM     21  C   UNK A   0       4.136  -6.562  25.419  0.00  0.00    -0.000 C 
BRANCH  21  22
ATOM     22  C   UNK A   0       2.994  -5.561  25.247  0.00  0.00    -0.003 C 
ATOM     23  C   UNK A   0       2.097  -5.526  26.475  0.00  0.00    +0.004 C 
ENDBRANCH  21  22
ENDBRANCH  20  21
ENDBRANCH  19  20
ENDBRANCH  16  19
ENDBRANCH  14  16
ENDBRANCH   1  12
BRANCH   1  24
ATOM     24  CB  PHE A   1       8.343  -3.895  25.928  0.00  0.00    +0.067 C 
BRANCH  24  25
ATOM     25  CG  PHE A   1       7.210  -4.299  26.848  0.00  0.00    -0.045 A 
ATOM     26  CD2 PHE A   1       6.156  -3.413  27.107  0.00  0.00    +0.004 A 
ATOM     27  CE2 PHE A   1       5.110  -3.773  27.960  0.00  0.00    +0.000 A 
ATOM     28  CZ  PHE A   1       5.109  -5.025  28.571  0.00  0.00    +0.000 A 
ATOM     29  CE1 PHE A   1       6.156  -5.910  28.336  0.00  0.00    +0.000 A 
ATOM     30  CD1 PHE A   1       7.203  -5.544  27.488  0.00  0.00    +0.004 A 
ENDBRANCH  24  25
ENDBRANCH   1  24
TORSDOF 13
ENDMDL
MODEL 9
REMARK VINA RESULT:      -5.2      3.377      5.861
REMARK  Name = 
REMARK  15 active torsions:
REMARK  status: ('A' for Active; 'I' for Inactive)
REMARK    1  A    between atoms: CA_2  and  CB_3
REMARK    2  A    between atoms: CA_2  and  N_4
REMARK    3  A    between atoms: CA_2  and  C_27
REMARK    4  A    between atoms: C_5  and  CA_7
REMARK    5  A    between atoms: CA_7  and  CB_9
REMARK    6  A    between atoms: CA_7  and  N_16
REMARK    7  A    between atoms: CB_9  and  CG_10
REMARK    8  A    between atoms: C_17  and  C_19
REMARK    9  A    between atoms: C_19  and  S_21
REMARK   10  A    between atoms: C_19  and  C_22
REMARK   11  A    between atoms: C_22  and  C_23
REMARK   12  A    between atoms: C_23  and  C_24
REMARK   13  A    between atoms: C_24  and  C_25
REMARK   14  A    between atoms: C_25  and  C_26
REMARK   15  A    between atoms: C_27  and  O_28
REMARK                            x       y       z     vdW  Elec       q    Type
REMARK                         _______ _______ _______ _____ _____    ______ ____
ROOT
ATOM      1  CA  PHE A   1       9.194   1.158  22.433  0.00  0.00    +0.163 C 
ENDROOT
BRANCH   1   4
ATOM      2  N   PHE A   1      10.498   3.216  22.862  0.00  0.00    -0.301 N 
ATOM      3  H   PHE A   1      10.846   3.100  21.919  0.00  0.00    +0.150 HD
ATOM      4  C   PHE A   1       9.788   2.179  23.429  0.00  0.00    +0.234 C 
ATOM      5  O   PHE A   1       9.648   2.095  24.650  0.00  0.00    -0.274 OA
BRANCH   2   6
ATOM      6  CA  PHE A   1      11.109   4.271  23.668  0.00  0.00    +0.179 C 
ATOM      7  CB  PHE A   1      12.468   4.747  23.156  0.00  0.00    +0.040 C 
BRANCH   6   8
ATOM      8  C   PHE A   1      10.117   5.409  23.936  0.00  0.00    +0.325 C 
ATOM      9  OXT PHE A   1       9.553   5.560  25.012  0.00  0.00    -0.249 OA
BRANCH   8  10
ATOM     10  O   PHE A   1       9.819   6.169  22.858  0.00  0.00    -0.479 OA
ATOM     11  H   PHE A   1      10.597   6.297  22.265  0.00  0.00    +0.295 HD
ENDBRANCH   8  10
ENDBRANCH   6   8
ENDBRANCH   2   6
ENDBRANCH   1   4
BRANCH   1  12
ATOM     12  N   PHE A   1       8.726  -0.020  23.154  0.00  0.00    -0.303 N 
ATOM     13  H   PHE A   1       8.232   0.125  24.032  0.00  0.00    +0.149 HD
ATOM     14  C   UNK A   0       9.042  -1.297  22.760  0.00  0.00    +0.226 C 
ATOM     15  O   UNK A   0       9.704  -1.521  21.747  0.00  0.00    -0.275 OA
BRANCH  14  16
ATOM     16  C   UNK A   0       8.458  -2.434  23.605  0.00  0.00    +0.129 C 
BRANCH  16  17
ATOM     17  S   UNK A   0       7.471  -3.565  22.547  0.00  0.00    -0.166 S 
ATOM     18  H   UNK A   0       8.181  -4.673  22.812  0.00  0.00    +0.102 HD
ENDBRANCH  16  17
BRANCH  16  19
ATOM     19  C   UNK A   0       9.546  -3.233  24.330  0.00  0.00    +0.023 C 
BRANCH  19  20
ATOM     20  C   UNK A   0       9.031  -4.584  24.845  0.00  0.00    +0.002 C 
BRANCH  20  21
ATOM     21  C   UNK A   0       9.028  -4.629  26.374  0.00  0.00    -0.000 C 
BRANCH  21  22
ATOM     22  C   UNK A   0       7.743  -5.260  26.912  0.00  0.00    -0.003 C 
ATOM     23  C   UNK A   0       6.665  -5.322  25.841  0.00  0.00    +0.004 C 
ENDBRANCH  21  22
ENDBRANCH  20  21
ENDBRANCH  19  20
ENDBRANCH  16  19
ENDBRANCH  14  16
ENDBRANCH   1  12
BRANCH   1  24
ATOM     24  CB  PHE A   1       8.111   1.774  21.525  0.00  0.00    +0.067 C 
BRANCH  24  25
ATOM     25  CG  PHE A   1       7.094   2.654  22.222  0.00  0.00    -0.045 A 
ATOM     26  CD2 PHE A   1       6.064   2.083  22.981  0.00  0.00    +0.004 A 
ATOM     27  CE2 PHE A   1       5.116   2.886  23.623  0.00  0.00    +0.000 A 
ATOM     28  CZ  PHE A   1       5.184   4.272  23.506  0.00  0.00    +0.000 A 
ATOM     29  CE1 PHE A   1       6.193   4.854  22.743  0.00  0.00    +0.000 A 
ATOM     30  CD1 PHE A   1       7.133   4.048  22.098  0.00  0.00    +0.004 A 
ENDBRANCH  24  25
ENDBRANCH   1  24
TORSDOF 13
ENDMDL
