MODEL 1
REMARK VINA RESULT:      -6.8      0.000      0.000
REMARK  Name = 
REMARK  4 active torsions:
REMARK  status: ('A' for Active; 'I' for Inactive)
REMARK    1  A    between atoms: C_2  and  C_17
REMARK    2  A    between atoms: C_4  and  C_10
REMARK    3  A    between atoms: C_7  and  C_8
REMARK    4  A    between atoms: C_21  and  O_22
REMARK                            x       y       z     vdW  Elec       q    Type
REMARK                         _______ _______ _______ _____ _____    ______ ____
ROOT
ATOM      1  C   UNL     1       7.919  -2.218  22.897  0.00  0.00    +0.137 C 
ATOM      2  N   UNL     1       8.213  -3.074  24.049  0.00  0.00    -0.185 N 
ATOM      3  C   UNL     1       9.490  -3.545  24.330  0.00  0.00    +0.232 C 
ATOM      4  O   UNL     1      10.516  -3.047  23.868  0.00  0.00    -0.274 OA
ATOM      5  C   UNL     1       9.563  -4.743  25.250  0.00  0.00    +0.111 C 
ATOM      6  N   UNL     1       7.104  -3.778  24.462  0.00  0.00    -0.181 NA
ATOM      7  C   UNL     1       6.078  -3.314  23.811  0.00  0.00    +0.070 C 
ATOM      8  C   UNL     1       6.394  -2.148  22.913  0.00  0.00    +0.087 C 
ENDROOT
BRANCH   7   9
ATOM      9  C   UNL     1       4.728  -3.926  23.927  0.00  0.00    +0.016 A 
ATOM     10  C   UNL     1       3.847  -3.300  24.831  0.00  0.00    +0.011 A 
ATOM     11  C   UNL     1       2.553  -3.787  25.035  0.00  0.00    +0.001 A 
ATOM     12  C   UNL     1       2.115  -4.905  24.336  0.00  0.00    +0.001 A 
ATOM     13  C   UNL     1       2.974  -5.533  23.433  0.00  0.00    +0.020 A 
ATOM     14  C   UNL     1       4.276  -5.050  23.223  0.00  0.00    +0.050 A 
ATOM     15 CL   UNL     1       5.199  -5.894  22.036  0.00  0.00    -0.083 Cl
ENDBRANCH   7   9
BRANCH   1  16
ATOM     16  C   UNL     1       8.514  -0.827  22.849  0.00  0.00    -0.021 A 
ATOM     17  C   UNL     1       8.421  -0.017  23.996  0.00  0.00    +0.051 A 
ATOM     18  C   UNL     1       9.032   1.232  24.037  0.00  0.00    +0.117 A 
ATOM     19  C   UNL     1       9.743   1.710  22.945  0.00  0.00    +0.045 A 
ATOM     20  C   UNL     1       9.841   0.921  21.797  0.00  0.00    +0.004 A 
ATOM     21  C   UNL     1       9.237  -0.341  21.751  0.00  0.00    +0.006 A 
BRANCH  18  22
ATOM     22  O   UNL     1       8.919   1.956  25.188  0.00  0.00    -0.507 OA
ATOM     23  H   UNL     1       8.661   1.355  25.906  0.00  0.00    +0.292 HD
ENDBRANCH  18  22
ENDBRANCH   1  16
TORSDOF 3
ENDMDL
MODEL 2
REMARK VINA RESULT:      -6.7      3.260      6.502
REMARK  Name = 
REMARK  4 active torsions:
REMARK  status: ('A' for Active; 'I' for Inactive)
REMARK    1  A    between atoms: C_2  and  C_17
REMARK    2  A    between atoms: C_4  and  C_10
REMARK    3  A    between atoms: C_7  and  C_8
REMARK    4  A    between atoms: C_21  and  O_22
REMARK                            x       y       z     vdW  Elec       q    Type
REMARK                         _______ _______ _______ _____ _____    ______ ____
ROOT
ATOM      1  C   UNL     1       7.305  -3.754  24.612  0.00  0.00    +0.137 C 
ATOM      2  N   UNL     1       6.656  -3.844  23.301  0.00  0.00    -0.185 N 
ATOM      3  C   UNL     1       6.340  -5.057  22.701  0.00  0.00    +0.232 C 
ATOM      4  O   UNL     1       6.260  -6.120  23.314  0.00  0.00    -0.274 OA
ATOM      5  C   UNL     1       6.099  -5.009  21.208  0.00  0.00    +0.111 C 
ATOM      6  N   UNL     1       6.893  -2.725  22.533  0.00  0.00    -0.181 NA
ATOM      7  C   UNL     1       7.469  -1.841  23.293  0.00  0.00    +0.070 C 
ATOM      8  C   UNL     1       7.615  -2.263  24.730  0.00  0.00    +0.087 C 
ENDROOT
BRANCH   7   9
ATOM      9  C   UNL     1       7.973  -0.549  22.756  0.00  0.00    +0.016 A 
ATOM     10  C   UNL     1       7.042   0.509  22.734  0.00  0.00    +0.011 A 
ATOM     11  C   UNL     1       7.392   1.770  22.243  0.00  0.00    +0.001 A 
ATOM     12  C   UNL     1       8.680   1.997  21.772  0.00  0.00    +0.001 A 
ATOM     13  C   UNL     1       9.613   0.961  21.791  0.00  0.00    +0.020 A 
ATOM     14  C   UNL     1       9.269  -0.309  22.282  0.00  0.00    +0.050 A 
ATOM     15 CL   UNL     1      10.544  -1.471  22.296  0.00  0.00    -0.083 Cl
ENDBRANCH   7   9
BRANCH   1  16
ATOM     16  C   UNL     1       6.556  -4.239  25.834  0.00  0.00    -0.021 A 
ATOM     17  C   UNL     1       7.161  -5.216  26.647  0.00  0.00    +0.051 A 
ATOM     18  C   UNL     1       6.558  -5.629  27.832  0.00  0.00    +0.117 A 
ATOM     19  C   UNL     1       5.344  -5.091  28.235  0.00  0.00    +0.045 A 
ATOM     20  C   UNL     1       4.728  -4.125  27.437  0.00  0.00    +0.004 A 
ATOM     21  C   UNL     1       5.332  -3.697  26.248  0.00  0.00    +0.006 A 
BRANCH  18  22
ATOM     22  O   UNL     1       7.209  -6.564  28.582  0.00  0.00    -0.507 OA
ATOM     23  H   UNL     1       8.132  -6.283  28.692  0.00  0.00    +0.292 HD
ENDBRANCH  18  22
ENDBRANCH   1  16
TORSDOF 3
ENDMDL
MODEL 3
REMARK VINA RESULT:      -6.7      1.297      1.651
REMARK  Name = 
REMARK  4 active torsions:
REMARK  status: ('A' for Active; 'I' for Inactive)
REMARK    1  A    between atoms: C_2  and  C_17
REMARK    2  A    between atoms: C_4  and  C_10
REMARK    3  A    between atoms: C_7  and  C_8
REMARK    4  A    between atoms: C_21  and  O_22
REMARK                            x       y       z     vdW  Elec       q    Type
REMARK                         _______ _______ _______ _____ _____    ______ ____
ROOT
ATOM      1  C   UNL     1       7.715  -2.388  23.038  0.00  0.00    +0.137 C 
ATOM      2  N   UNL     1       7.954  -3.204  24.231  0.00  0.00    -0.185 N 
ATOM      3  C   UNL     1       9.194  -3.757  24.527  0.00  0.00    +0.232 C 
ATOM      4  O   UNL     1      10.251  -3.364  24.034  0.00  0.00    -0.274 OA
ATOM      5  C   UNL     1       9.184  -4.909  25.507  0.00  0.00    +0.111 C 
ATOM      6  N   UNL     1       6.798  -3.799  24.686  0.00  0.00    -0.181 NA
ATOM      7  C   UNL     1       5.805  -3.290  24.019  0.00  0.00    +0.070 C 
ATOM      8  C   UNL     1       6.200  -2.199  23.060  0.00  0.00    +0.087 C 
ENDROOT
BRANCH   7   9
ATOM      9  C   UNL     1       4.413  -3.790  24.175  0.00  0.00    +0.016 A 
ATOM     10  C   UNL     1       4.018  -4.795  23.270  0.00  0.00    +0.011 A 
ATOM     11  C   UNL     1       2.731  -5.338  23.308  0.00  0.00    +0.001 A 
ATOM     12  C   UNL     1       1.818  -4.891  24.255  0.00  0.00    +0.001 A 
ATOM     13  C   UNL     1       2.195  -3.899  25.161  0.00  0.00    +0.020 A 
ATOM     14  C   UNL     1       3.487  -3.347  25.129  0.00  0.00    +0.050 A 
ATOM     15 CL   UNL     1       3.825  -2.174  26.346  0.00  0.00    -0.083 Cl
ENDBRANCH   7   9
BRANCH   1  16
ATOM     16  C   UNL     1       8.415  -1.051  22.914  0.00  0.00    -0.021 A 
ATOM     17  C   UNL     1       8.467  -0.215  24.044  0.00  0.00    +0.051 A 
ATOM     18  C   UNL     1       9.178   0.982  24.012  0.00  0.00    +0.117 A 
ATOM     19  C   UNL     1       9.846   1.379  22.862  0.00  0.00    +0.045 A 
ATOM     20  C   UNL     1       9.799   0.563  21.730  0.00  0.00    +0.004 A 
ATOM     21  C   UNL     1       9.094  -0.647  21.757  0.00  0.00    +0.006 A 
BRANCH  18  22
ATOM     22  O   UNL     1       9.205   1.734  25.149  0.00  0.00    -0.507 OA
ATOM     23  H   UNL     1       9.930   1.418  25.711  0.00  0.00    +0.292 HD
ENDBRANCH  18  22
ENDBRANCH   1  16
TORSDOF 3
ENDMDL
MODEL 4
REMARK VINA RESULT:      -6.7      2.568      6.567
REMARK  Name = 
REMARK  4 active torsions:
REMARK  status: ('A' for Active; 'I' for Inactive)
REMARK    1  A    between atoms: C_2  and  C_17
REMARK    2  A    between atoms: C_4  and  C_10
REMARK    3  A    between atoms: C_7  and  C_8
REMARK    4  A    between atoms: C_21  and  O_22
REMARK                            x       y       z     vdW  Elec       q    Type
REMARK                         _______ _______ _______ _____ _____    ______ ____
ROOT
ATOM      1  C   UNL     1       6.645  -3.197  24.851  0.00  0.00    +0.137 C 
ATOM      2  N   UNL     1       8.017  -3.710  24.821  0.00  0.00    -0.185 N 
ATOM      3  C   UNL     1       8.420  -4.821  25.553  0.00  0.00    +0.232 C 
ATOM      4  O   UNL     1       7.640  -5.655  26.011  0.00  0.00    -0.274 OA
ATOM      5  C   UNL     1       9.910  -4.958  25.775  0.00  0.00    +0.111 C 
ATOM      6  N   UNL     1       8.924  -2.731  24.483  0.00  0.00    -0.181 NA
ATOM      7  C   UNL     1       8.251  -1.685  24.103  0.00  0.00    +0.070 C 
ATOM      8  C   UNL     1       6.760  -1.889  24.072  0.00  0.00    +0.087 C 
ENDROOT
BRANCH   7   9
ATOM      9  C   UNL     1       8.916  -0.396  23.775  0.00  0.00    +0.016 A 
ATOM     10  C   UNL     1       9.016   0.528  24.834  0.00  0.00    +0.011 A 
ATOM     11  C   UNL     1       9.611   1.779  24.649  0.00  0.00    +0.001 A 
ATOM     12  C   UNL     1      10.122   2.126  23.404  0.00  0.00    +0.001 A 
ATOM     13  C   UNL     1      10.034   1.220  22.347  0.00  0.00    +0.020 A 
ATOM     14  C   UNL     1       9.437  -0.039  22.525  0.00  0.00    +0.050 A 
ATOM     15 CL   UNL     1       9.453  -1.071  21.144  0.00  0.00    -0.083 Cl
ENDBRANCH   7   9
BRANCH   1  16
ATOM     16  C   UNL     1       5.531  -4.054  24.289  0.00  0.00    -0.021 A 
ATOM     17  C   UNL     1       5.773  -4.778  23.107  0.00  0.00    +0.051 A 
ATOM     18  C   UNL     1       4.818  -5.653  22.598  0.00  0.00    +0.117 A 
ATOM     19  C   UNL     1       3.601  -5.826  23.244  0.00  0.00    +0.045 A 
ATOM     20  C   UNL     1       3.343  -5.112  24.415  0.00  0.00    +0.004 A 
ATOM     21  C   UNL     1       4.302  -4.236  24.938  0.00  0.00    +0.006 A 
BRANCH  18  22
ATOM     22  O   UNL     1       5.126  -6.338  21.460  0.00  0.00    -0.507 OA
ATOM     23  H   UNL     1       6.093  -6.384  21.381  0.00  0.00    +0.292 HD
ENDBRANCH  18  22
ENDBRANCH   1  16
TORSDOF 3
ENDMDL
MODEL 5
REMARK VINA RESULT:      -6.6      2.817      6.740
REMARK  Name = 
REMARK  4 active torsions:
REMARK  status: ('A' for Active; 'I' for Inactive)
REMARK    1  A    between atoms: C_2  and  C_17
REMARK    2  A    between atoms: C_4  and  C_10
REMARK    3  A    between atoms: C_7  and  C_8
REMARK    4  A    between atoms: C_21  and  O_22
REMARK                            x       y       z     vdW  Elec       q    Type
REMARK                         _______ _______ _______ _____ _____    ______ ____
ROOT
ATOM      1  C   UNL     1       6.713  -3.259  24.797  0.00  0.00    +0.137 C 
ATOM      2  N   UNL     1       8.066  -3.811  24.695  0.00  0.00    -0.185 N 
ATOM      3  C   UNL     1       8.499  -4.886  25.462  0.00  0.00    +0.232 C 
ATOM      4  O   UNL     1       7.738  -5.669  26.029  0.00  0.00    -0.274 OA
ATOM      5  C   UNL     1       9.998  -5.049  25.579  0.00  0.00    +0.111 C 
ATOM      6  N   UNL     1       8.967  -2.879  24.229  0.00  0.00    -0.181 NA
ATOM      7  C   UNL     1       8.290  -1.839  23.837  0.00  0.00    +0.070 C 
ATOM      8  C   UNL     1       6.797  -2.004  23.931  0.00  0.00    +0.087 C 
ENDROOT
BRANCH   7   9
ATOM      9  C   UNL     1       8.957  -0.592  23.379  0.00  0.00    +0.016 A 
ATOM     10  C   UNL     1       8.820  -0.290  22.010  0.00  0.00    +0.011 A 
ATOM     11  C   UNL     1       9.409   0.850  21.457  0.00  0.00    +0.001 A 
ATOM     12  C   UNL     1      10.140   1.712  22.265  0.00  0.00    +0.001 A 
ATOM     13  C   UNL     1      10.281   1.430  23.623  0.00  0.00    +0.020 A 
ATOM     14  C   UNL     1       9.693   0.286  24.187  0.00  0.00    +0.050 A 
ATOM     15 CL   UNL     1       9.905   0.101  25.888  0.00  0.00    -0.083 Cl
ENDBRANCH   7   9
BRANCH   1  16
ATOM     16  C   UNL     1       5.539  -4.118  24.375  0.00  0.00    -0.021 A 
ATOM     17  C   UNL     1       5.617  -4.804  23.149  0.00  0.00    +0.051 A 
ATOM     18  C   UNL     1       4.608  -5.679  22.758  0.00  0.00    +0.117 A 
ATOM     19  C   UNL     1       3.500  -5.890  23.566  0.00  0.00    +0.045 A 
ATOM     20  C   UNL     1       3.405  -5.213  24.783  0.00  0.00    +0.004 A 
ATOM     21  C   UNL     1       4.420  -4.338  25.189  0.00  0.00    +0.006 A 
BRANCH  18  22
ATOM     22  O   UNL     1       4.758  -6.327  21.567  0.00  0.00    -0.507 OA
ATOM     23  H   UNL     1       4.332  -7.197  21.634  0.00  0.00    +0.292 HD
ENDBRANCH  18  22
ENDBRANCH   1  16
TORSDOF 3
ENDMDL
MODEL 6
REMARK VINA RESULT:      -6.5      3.275      6.840
REMARK  Name = 
REMARK  4 active torsions:
REMARK  status: ('A' for Active; 'I' for Inactive)
REMARK    1  A    between atoms: C_2  and  C_17
REMARK    2  A    between atoms: C_4  and  C_10
REMARK    3  A    between atoms: C_7  and  C_8
REMARK    4  A    between atoms: C_21  and  O_22
REMARK                            x       y       z     vdW  Elec       q    Type
REMARK                         _______ _______ _______ _____ _____    ______ ____
ROOT
ATOM      1  C   UNL     1       6.577  -1.443  23.128  0.00  0.00    +0.137 C 
ATOM      2  N   UNL     1       6.344  -1.049  24.519  0.00  0.00    -0.185 N 
ATOM      3  C   UNL     1       5.227  -1.455  25.239  0.00  0.00    +0.232 C 
ATOM      4  O   UNL     1       4.524  -2.413  24.921  0.00  0.00    -0.274 OA
ATOM      5  C   UNL     1       4.899  -0.632  26.465  0.00  0.00    +0.111 C 
ATOM      6  N   UNL     1       6.986   0.129  24.833  0.00  0.00    -0.181 NA
ATOM      7  C   UNL     1       7.767   0.429  23.837  0.00  0.00    +0.070 C 
ATOM      8  C   UNL     1       7.790  -0.600  22.739  0.00  0.00    +0.087 C 
ENDROOT
BRANCH   7   9
ATOM      9  C   UNL     1       8.529   1.705  23.790  0.00  0.00    +0.016 A 
ATOM     10  C   UNL     1       7.765   2.867  23.560  0.00  0.00    +0.011 A 
ATOM     11  C   UNL     1       8.366   4.125  23.484  0.00  0.00    +0.001 A 
ATOM     12  C   UNL     1       9.742   4.247  23.641  0.00  0.00    +0.001 A 
ATOM     13  C   UNL     1      10.511   3.107  23.874  0.00  0.00    +0.020 A 
ATOM     14  C   UNL     1       9.914   1.837  23.951  0.00  0.00    +0.050 A 
ATOM     15 CL   UNL     1      10.985   0.532  24.300  0.00  0.00    -0.083 Cl
ENDBRANCH   7   9
BRANCH   1  16
ATOM     16  C   UNL     1       6.824  -2.904  22.813  0.00  0.00    -0.021 A 
ATOM     17  C   UNL     1       7.775  -3.603  23.578  0.00  0.00    +0.051 A 
ATOM     18  C   UNL     1       7.973  -4.968  23.394  0.00  0.00    +0.117 A 
ATOM     19  C   UNL     1       7.240  -5.669  22.446  0.00  0.00    +0.045 A 
ATOM     20  C   UNL     1       6.296  -4.989  21.675  0.00  0.00    +0.004 A 
ATOM     21  C   UNL     1       6.084  -3.617  21.861  0.00  0.00    +0.006 A 
BRANCH  18  22
ATOM     22  O   UNL     1       8.896  -5.588  24.184  0.00  0.00    -0.507 OA
ATOM     23  H   UNL     1       8.457  -5.882  24.999  0.00  0.00    +0.292 HD
ENDBRANCH  18  22
ENDBRANCH   1  16
TORSDOF 3
ENDMDL
MODEL 7
REMARK VINA RESULT:      -6.3      3.361      6.961
REMARK  Name = 
REMARK  4 active torsions:
REMARK  status: ('A' for Active; 'I' for Inactive)
REMARK    1  A    between atoms: C_2  and  C_17
REMARK    2  A    between atoms: C_4  and  C_10
REMARK    3  A    between atoms: C_7  and  C_8
REMARK    4  A    between atoms: C_21  and  O_22
REMARK                            x       y       z     vdW  Elec       q    Type
REMARK                         _______ _______ _______ _____ _____    ______ ____
ROOT
ATOM      1  C   UNL     1       6.899  -4.587  24.760  0.00  0.00    +0.137 C 
ATOM      2  N   UNL     1       6.544  -4.483  23.342  0.00  0.00    -0.185 N 
ATOM      3  C   UNL     1       6.130  -5.575  22.589  0.00  0.00    +0.232 C 
ATOM      4  O   UNL     1       5.710  -6.622  23.080  0.00  0.00    -0.274 OA
ATOM      5  C   UNL     1       6.233  -5.416  21.088  0.00  0.00    +0.111 C 
ATOM      6  N   UNL     1       7.159  -3.410  22.737  0.00  0.00    -0.181 NA
ATOM      7  C   UNL     1       7.722  -2.700  23.670  0.00  0.00    +0.070 C 
ATOM      8  C   UNL     1       7.466  -3.202  25.066  0.00  0.00    +0.087 C 
ENDROOT
BRANCH   7   9
ATOM      9  C   UNL     1       8.576  -1.524  23.359  0.00  0.00    +0.016 A 
ATOM     10  C   UNL     1       8.816  -1.285  21.991  0.00  0.00    +0.011 A 
ATOM     11  C   UNL     1       9.612  -0.216  21.572  0.00  0.00    +0.001 A 
ATOM     12  C   UNL     1      10.177   0.637  22.512  0.00  0.00    +0.001 A 
ATOM     13  C   UNL     1       9.945   0.418  23.870  0.00  0.00    +0.020 A 
ATOM     14  C   UNL     1       9.146  -0.656  24.300  0.00  0.00    +0.050 A 
ATOM     15 CL   UNL     1       8.903  -0.765  26.003  0.00  0.00    -0.083 Cl
ENDBRANCH   7   9
BRANCH   1  16
ATOM     16  C   UNL     1       5.821  -4.952  25.759  0.00  0.00    -0.021 A 
ATOM     17  C   UNL     1       6.004  -6.100  26.552  0.00  0.00    +0.051 A 
ATOM     18  C   UNL     1       5.091  -6.429  27.550  0.00  0.00    +0.117 A 
ATOM     19  C   UNL     1       3.976  -5.635  27.780  0.00  0.00    +0.045 A 
ATOM     20  C   UNL     1       3.777  -4.496  26.998  0.00  0.00    +0.004 A 
ATOM     21  C   UNL     1       4.696  -4.152  25.998  0.00  0.00    +0.006 A 
BRANCH  18  22
ATOM     22  O   UNL     1       5.340  -7.544  28.295  0.00  0.00    -0.507 OA
ATOM     23  H   UNL     1       6.237  -7.856  28.093  0.00  0.00    +0.292 HD
ENDBRANCH  18  22
ENDBRANCH   1  16
TORSDOF 3
ENDMDL
MODEL 8
REMARK VINA RESULT:      -6.3      3.260      6.647
REMARK  Name = 
REMARK  4 active torsions:
REMARK  status: ('A' for Active; 'I' for Inactive)
REMARK    1  A    between atoms: C_2  and  C_17
REMARK    2  A    between atoms: C_4  and  C_10
REMARK    3  A    between atoms: C_7  and  C_8
REMARK    4  A    between atoms: C_21  and  O_22
REMARK                            x       y       z     vdW  Elec       q    Type
REMARK                         _______ _______ _______ _____ _____    ______ ____
ROOT
ATOM      1  C   UNL     1       7.307  -3.759  24.653  0.00  0.00    +0.137 C 
ATOM      2  N   UNL     1       6.656  -3.786  23.341  0.00  0.00    -0.185 N 
ATOM      3  C   UNL     1       6.306  -4.968  22.699  0.00  0.00    +0.232 C 
ATOM      4  O   UNL     1       6.197  -6.049  23.276  0.00  0.00    -0.274 OA
ATOM      5  C   UNL     1       6.068  -4.863  21.209  0.00  0.00    +0.111 C 
ATOM      6  N   UNL     1       6.924  -2.649  22.611  0.00  0.00    -0.181 NA
ATOM      7  C   UNL     1       7.524  -1.807  23.400  0.00  0.00    +0.070 C 
ATOM      8  C   UNL     1       7.658  -2.282  24.822  0.00  0.00    +0.087 C 
ENDROOT
BRANCH   7   9
ATOM      9  C   UNL     1       8.063  -0.512  22.907  0.00  0.00    +0.016 A 
ATOM     10  C   UNL     1       9.210  -0.596  22.093  0.00  0.00    +0.011 A 
ATOM     11  C   UNL     1       9.817   0.552  21.577  0.00  0.00    +0.001 A 
ATOM     12  C   UNL     1       9.284   1.804  21.860  0.00  0.00    +0.001 A 
ATOM     13  C   UNL     1       8.147   1.903  22.661  0.00  0.00    +0.020 A 
ATOM     14  C   UNL     1       7.531   0.754  23.185  0.00  0.00    +0.050 A 
ATOM     15 CL   UNL     1       6.102   1.031  24.108  0.00  0.00    -0.083 Cl
ENDBRANCH   7   9
BRANCH   1  16
ATOM     16  C   UNL     1       6.544  -4.265  25.858  0.00  0.00    -0.021 A 
ATOM     17  C   UNL     1       7.153  -5.232  26.680  0.00  0.00    +0.051 A 
ATOM     18  C   UNL     1       6.536  -5.662  27.851  0.00  0.00    +0.117 A 
ATOM     19  C   UNL     1       5.303  -5.151  28.232  0.00  0.00    +0.045 A 
ATOM     20  C   UNL     1       4.683  -4.195  27.425  0.00  0.00    +0.004 A 
ATOM     21  C   UNL     1       5.301  -3.750  26.250  0.00  0.00    +0.006 A 
BRANCH  18  22
ATOM     22  O   UNL     1       7.192  -6.586  28.610  0.00  0.00    -0.507 OA
ATOM     23  H   UNL     1       8.106  -6.286  28.739  0.00  0.00    +0.292 HD
ENDBRANCH  18  22
ENDBRANCH   1  16
TORSDOF 3
ENDMDL
MODEL 9
REMARK VINA RESULT:      -6.3      3.840      7.885
REMARK  Name = 
REMARK  4 active torsions:
REMARK  status: ('A' for Active; 'I' for Inactive)
REMARK    1  A    between atoms: C_2  and  C_17
REMARK    2  A    between atoms: C_4  and  C_10
REMARK    3  A    between atoms: C_7  and  C_8
REMARK    4  A    between atoms: C_21  and  O_22
REMARK                            x       y       z     vdW  Elec       q    Type
REMARK                         _______ _______ _______ _____ _____    ______ ____
ROOT
ATOM      1  C   UNL     1       7.483   0.587  23.299  0.00  0.00    +0.137 C 
ATOM      2  N   UNL     1       7.198   1.174  24.611  0.00  0.00    -0.185 N 
ATOM      3  C   UNL     1       6.002   0.961  25.286  0.00  0.00    +0.232 C 
ATOM      4  O   UNL     1       5.232   0.036  25.033  0.00  0.00    -0.274 OA
ATOM      5  C   UNL     1       5.674   1.959  26.375  0.00  0.00    +0.111 C 
ATOM      6  N   UNL     1       7.928   2.321  24.829  0.00  0.00    -0.181 NA
ATOM      7  C   UNL     1       8.798   2.423  23.868  0.00  0.00    +0.070 C 
ATOM      8  C   UNL     1       8.794   1.265  22.906  0.00  0.00    +0.087 C 
ENDROOT
BRANCH   7   9
ATOM      9  C   UNL     1       9.680   3.612  23.726  0.00  0.00    +0.016 A 
ATOM     10  C   UNL     1      11.036   3.339  23.457  0.00  0.00    +0.011 A 
ATOM     11  C   UNL     1      11.967   4.371  23.312  0.00  0.00    +0.001 A 
ATOM     12  C   UNL     1      11.558   5.695  23.427  0.00  0.00    +0.001 A 
ATOM     13  C   UNL     1      10.218   5.981  23.689  0.00  0.00    +0.020 A 
ATOM     14  C   UNL     1       9.276   4.949  23.836  0.00  0.00    +0.050 A 
ATOM     15 CL   UNL     1       7.650   5.458  24.099  0.00  0.00    -0.083 Cl
ENDBRANCH   7   9
BRANCH   1  16
ATOM     16  C   UNL     1       7.608  -0.917  23.183  0.00  0.00    -0.021 A 
ATOM     17  C   UNL     1       8.757  -1.537  23.709  0.00  0.00    +0.051 A 
ATOM     18  C   UNL     1       8.879  -2.924  23.712  0.00  0.00    +0.117 A 
ATOM     19  C   UNL     1       7.873  -3.726  23.192  0.00  0.00    +0.045 A 
ATOM     20  C   UNL     1       6.729  -3.126  22.662  0.00  0.00    +0.004 A 
ATOM     21  C   UNL     1       6.593  -1.732  22.663  0.00  0.00    +0.006 A 
BRANCH  18  22
ATOM     22  O   UNL     1      10.009  -3.459  24.256  0.00  0.00    -0.507 OA
ATOM     23  H   UNL     1      10.650  -3.616  23.544  0.00  0.00    +0.292 HD
ENDBRANCH  18  22
ENDBRANCH   1  16
TORSDOF 3
ENDMDL
