MODEL 1
REMARK VINA RESULT:      -6.9      0.000      0.000
REMARK  Name = 
REMARK  5 active torsions:
REMARK  status: ('A' for Active; 'I' for Inactive)
REMARK    1  A    between atoms: C_1  and  O_2
REMARK    2  A    between atoms: O_2  and  C_3
REMARK    3  A    between atoms: C_6  and  C_7
REMARK    4  A    between atoms: C_7  and  N_8
REMARK    5  A    between atoms: C_15  and  N_17
REMARK                            x       y       z     vdW  Elec       q    Type
REMARK                         _______ _______ _______ _____ _____    ______ ____
ROOT
ATOM      1  N   UNL     1       9.848  -2.594  24.019  0.00  0.00    -0.295 N 
ATOM      2  H   UNL     1      10.252  -2.235  24.869  0.00  0.00    +0.151 HD
ATOM      3  C   UNL     1       8.583  -3.143  24.113  0.00  0.00    +0.306 C 
ATOM      4  N   UNL     1       8.395  -3.750  25.330  0.00  0.00    -0.248 N 
ATOM      5  H   UNL     1       9.195  -3.913  25.919  0.00  0.00    +0.158 HD
ATOM      6  C   UNL     1       7.235  -4.399  25.641  0.00  0.00    +0.172 A 
ATOM      7  S   UNL     1       7.340  -5.366  27.049  0.00  0.00    +0.022 S 
ATOM      8  C   UNL     1       5.731  -5.852  26.789  0.00  0.00    +0.332 A 
ATOM      9  C   UNL     1       5.202  -5.231  25.684  0.00  0.00    +0.205 A 
ATOM     10  N   UNL     1       6.080  -4.388  25.026  0.00  0.00    -0.226 NA
ATOM     11  O   UNL     1       7.787  -3.107  23.184  0.00  0.00    -0.252 OA
ENDROOT
BRANCH   8  12
ATOM     12  N   UNL     1       5.079  -6.785  27.649  0.00  0.00    +0.089 N 
ATOM     13  O   UNL     1       3.846  -6.856  27.605  0.00  0.00    +0.042 OA
ATOM     14  O   UNL     1       5.813  -7.457  28.385  0.00  0.00    -0.576 OA
ENDBRANCH   8  12
BRANCH   1  15
ATOM     15  C   UNL     1      10.221  -1.905  22.803  0.00  0.00    +0.141 C 
BRANCH  15  19
ATOM     16  C   UNL     1      10.324   2.395  23.151  0.00  0.00    +0.120 A 
ATOM     17  C   UNL     1       9.887   1.797  21.970  0.00  0.00    +0.046 A 
ATOM     18  C   UNL     1       9.812   0.403  21.873  0.00  0.00    +0.009 A 
ATOM     19  C   UNL     1      10.165  -0.407  22.956  0.00  0.00    -0.030 A 
ATOM     20  C   UNL     1      10.554   0.204  24.158  0.00  0.00    +0.009 A 
ATOM     21  C   UNL     1      10.621   1.596  24.255  0.00  0.00    +0.046 A 
BRANCH  16  23
ATOM     22  C   UNL     1      11.805   4.209  23.338  0.00  0.00    +0.277 C 
ATOM     23  O   UNL     1      10.458   3.745  23.329  0.00  0.00    -0.495 OA
ENDBRANCH  16  23
ENDBRANCH  15  19
ENDBRANCH   1  15
TORSDOF 4
ENDMDL
MODEL 2
REMARK VINA RESULT:      -6.8      1.116      1.785
REMARK  Name = 
REMARK  5 active torsions:
REMARK  status: ('A' for Active; 'I' for Inactive)
REMARK    1  A    between atoms: C_1  and  O_2
REMARK    2  A    between atoms: O_2  and  C_3
REMARK    3  A    between atoms: C_6  and  C_7
REMARK    4  A    between atoms: C_7  and  N_8
REMARK    5  A    between atoms: C_15  and  N_17
REMARK                            x       y       z     vdW  Elec       q    Type
REMARK                         _______ _______ _______ _____ _____    ______ ____
ROOT
ATOM      1  N   UNL     1      10.026  -2.330  23.730  0.00  0.00    -0.295 N 
ATOM      2  H   UNL     1      10.326  -2.004  24.635  0.00  0.00    +0.151 HD
ATOM      3  C   UNL     1       8.775  -2.914  23.661  0.00  0.00    +0.306 C 
ATOM      4  N   UNL     1       8.477  -3.586  24.820  0.00  0.00    -0.248 N 
ATOM      5  H   UNL     1       9.213  -3.758  25.485  0.00  0.00    +0.158 HD
ATOM      6  C   UNL     1       7.310  -4.278  24.973  0.00  0.00    +0.172 A 
ATOM      7  S   UNL     1       7.292  -5.311  26.337  0.00  0.00    +0.022 S 
ATOM      8  C   UNL     1       5.735  -5.823  25.883  0.00  0.00    +0.332 A 
ATOM      9  C   UNL     1       5.309  -5.160  24.756  0.00  0.00    +0.205 A 
ATOM     10  N   UNL     1       6.227  -4.264  24.238  0.00  0.00    -0.226 NA
ATOM     11  O   UNL     1       8.083  -2.851  22.654  0.00  0.00    -0.252 OA
ENDROOT
BRANCH   8  12
ATOM     12  N   UNL     1       5.023  -6.814  26.622  0.00  0.00    +0.089 N 
ATOM     13  O   UNL     1       5.490  -7.180  27.706  0.00  0.00    +0.042 OA
ATOM     14  O   UNL     1       3.979  -7.235  26.107  0.00  0.00    -0.576 OA
ENDBRANCH   8  12
BRANCH   1  15
ATOM     15  C   UNL     1      10.506  -1.572  22.596  0.00  0.00    +0.141 C 
BRANCH  15  19
ATOM     16  C   UNL     1       9.213   2.527  22.973  0.00  0.00    +0.120 A 
ATOM     17  C   UNL     1       9.945   1.925  23.996  0.00  0.00    +0.046 A 
ATOM     18  C   UNL     1      10.402   0.611  23.855  0.00  0.00    +0.009 A 
ATOM     19  C   UNL     1      10.139  -0.114  22.687  0.00  0.00    -0.030 A 
ATOM     20  C   UNL     1       9.448   0.517  21.642  0.00  0.00    +0.009 A 
ATOM     21  C   UNL     1       8.999   1.832  21.782  0.00  0.00    +0.046 A 
BRANCH  16  23
ATOM     22  C   UNL     1       7.427   3.947  22.413  0.00  0.00    +0.277 C 
ATOM     23  O   UNL     1       8.701   3.794  23.033  0.00  0.00    -0.495 OA
ENDBRANCH  16  23
ENDBRANCH  15  19
ENDBRANCH   1  15
TORSDOF 4
ENDMDL
MODEL 3
REMARK VINA RESULT:      -6.8      2.023      2.682
REMARK  Name = 
REMARK  5 active torsions:
REMARK  status: ('A' for Active; 'I' for Inactive)
REMARK    1  A    between atoms: C_1  and  O_2
REMARK    2  A    between atoms: O_2  and  C_3
REMARK    3  A    between atoms: C_6  and  C_7
REMARK    4  A    between atoms: C_7  and  N_8
REMARK    5  A    between atoms: C_15  and  N_17
REMARK                            x       y       z     vdW  Elec       q    Type
REMARK                         _______ _______ _______ _____ _____    ______ ____
ROOT
ATOM      1  N   UNL     1       8.907  -1.327  21.922  0.00  0.00    -0.295 N 
ATOM      2  H   UNL     1       8.460  -1.854  21.189  0.00  0.00    +0.151 HD
ATOM      3  C   UNL     1       9.168  -1.998  23.101  0.00  0.00    +0.306 C 
ATOM      4  N   UNL     1       8.208  -2.944  23.358  0.00  0.00    -0.248 N 
ATOM      5  H   UNL     1       7.356  -2.928  22.821  0.00  0.00    +0.158 HD
ATOM      6  C   UNL     1       8.230  -3.708  24.489  0.00  0.00    +0.172 A 
ATOM      7  S   UNL     1       6.776  -4.563  24.775  0.00  0.00    +0.022 S 
ATOM      8  C   UNL     1       7.454  -5.160  26.216  0.00  0.00    +0.332 A 
ATOM      9  C   UNL     1       8.743  -4.710  26.376  0.00  0.00    +0.205 A 
ATOM     10  N   UNL     1       9.185  -3.872  25.369  0.00  0.00    -0.226 NA
ATOM     11  O   UNL     1      10.123  -1.714  23.814  0.00  0.00    -0.252 OA
ENDROOT
BRANCH   8  12
ATOM     12  N   UNL     1       6.723  -6.013  27.095  0.00  0.00    +0.089 N 
ATOM     13  O   UNL     1       5.690  -6.541  26.669  0.00  0.00    +0.042 OA
ATOM     14  O   UNL     1       7.189  -6.155  28.233  0.00  0.00    -0.576 OA
ENDBRANCH   8  12
BRANCH   1  15
ATOM     15  C   UNL     1       9.823  -0.295  21.487  0.00  0.00    +0.141 C 
BRANCH  15  19
ATOM     16  C   UNL     1       8.406   3.530  22.891  0.00  0.00    +0.120 A 
ATOM     17  C   UNL     1       9.663   3.064  23.276  0.00  0.00    +0.046 A 
ATOM     18  C   UNL     1      10.140   1.843  22.785  0.00  0.00    +0.009 A 
ATOM     19  C   UNL     1       9.371   1.080  21.900  0.00  0.00    -0.030 A 
ATOM     20  C   UNL     1       8.130   1.583  21.478  0.00  0.00    +0.009 A 
ATOM     21  C   UNL     1       7.659   2.804  21.964  0.00  0.00    +0.046 A 
BRANCH  16  23
ATOM     22  C   UNL     1       7.249   5.495  22.324  0.00  0.00    +0.277 C 
ATOM     23  O   UNL     1       7.844   4.694  23.341  0.00  0.00    -0.495 OA
ENDBRANCH  16  23
ENDBRANCH  15  19
ENDBRANCH   1  15
TORSDOF 4
ENDMDL
MODEL 4
REMARK VINA RESULT:      -6.4      1.804      2.009
REMARK  Name = 
REMARK  5 active torsions:
REMARK  status: ('A' for Active; 'I' for Inactive)
REMARK    1  A    between atoms: C_1  and  O_2
REMARK    2  A    between atoms: O_2  and  C_3
REMARK    3  A    between atoms: C_6  and  C_7
REMARK    4  A    between atoms: C_7  and  N_8
REMARK    5  A    between atoms: C_15  and  N_17
REMARK                            x       y       z     vdW  Elec       q    Type
REMARK                         _______ _______ _______ _____ _____    ______ ____
ROOT
ATOM      1  N   UNL     1       9.353  -2.315  22.498  0.00  0.00    -0.295 N 
ATOM      2  H   UNL     1       9.338  -2.795  21.612  0.00  0.00    +0.151 HD
ATOM      3  C   UNL     1       8.861  -3.006  23.590  0.00  0.00    +0.306 C 
ATOM      4  N   UNL     1       7.838  -3.845  23.226  0.00  0.00    -0.248 N 
ATOM      5  H   UNL     1       7.427  -3.742  22.313  0.00  0.00    +0.158 HD
ATOM      6  C   UNL     1       7.166  -4.603  24.141  0.00  0.00    +0.172 A 
ATOM      7  S   UNL     1       5.725  -5.300  23.537  0.00  0.00    +0.022 S 
ATOM      8  C   UNL     1       5.441  -5.960  25.080  0.00  0.00    +0.332 A 
ATOM      9  C   UNL     1       6.464  -5.647  25.943  0.00  0.00    +0.205 A 
ATOM     10  N   UNL     1       7.461  -4.863  25.390  0.00  0.00    -0.226 NA
ATOM     11  O   UNL     1       9.287  -2.821  24.723  0.00  0.00    -0.252 OA
ENDROOT
BRANCH   8  12
ATOM     12  N   UNL     1       4.274  -6.728  25.367  0.00  0.00    +0.089 N 
ATOM     13  O   UNL     1       3.979  -7.649  24.597  0.00  0.00    +0.042 OA
ATOM     14  O   UNL     1       3.640  -6.403  26.378  0.00  0.00    -0.576 OA
ENDBRANCH   8  12
BRANCH   1  15
ATOM     15  C   UNL     1      10.446  -1.387  22.694  0.00  0.00    +0.141 C 
BRANCH  15  19
ATOM     16  C   UNL     1       9.327   2.749  23.198  0.00  0.00    +0.120 A 
ATOM     17  C   UNL     1       9.199   2.135  21.953  0.00  0.00    +0.046 A 
ATOM     18  C   UNL     1       9.520   0.782  21.800  0.00  0.00    +0.009 A 
ATOM     19  C   UNL     1       9.965   0.027  22.890  0.00  0.00    -0.030 A 
ATOM     20  C   UNL     1      10.041   0.640  24.150  0.00  0.00    +0.009 A 
ATOM     21  C   UNL     1       9.713   1.989  24.302  0.00  0.00    +0.046 A 
BRANCH  16  23
ATOM     22  C   UNL     1       7.753   4.489  23.075  0.00  0.00    +0.277 C 
ATOM     23  O   UNL     1       9.066   4.071  23.437  0.00  0.00    -0.495 OA
ENDBRANCH  16  23
ENDBRANCH  15  19
ENDBRANCH   1  15
TORSDOF 4
ENDMDL
MODEL 5
REMARK VINA RESULT:      -6.3      2.591      8.950
REMARK  Name = 
REMARK  5 active torsions:
REMARK  status: ('A' for Active; 'I' for Inactive)
REMARK    1  A    between atoms: C_1  and  O_2
REMARK    2  A    between atoms: O_2  and  C_3
REMARK    3  A    between atoms: C_6  and  C_7
REMARK    4  A    between atoms: C_7  and  N_8
REMARK    5  A    between atoms: C_15  and  N_17
REMARK                            x       y       z     vdW  Elec       q    Type
REMARK                         _______ _______ _______ _____ _____    ______ ____
ROOT
ATOM      1  N   UNL     1       8.735  -3.359  23.885  0.00  0.00    -0.295 N 
ATOM      2  H   UNL     1       9.546  -3.614  24.426  0.00  0.00    +0.151 HD
ATOM      3  C   UNL     1       8.818  -2.190  23.152  0.00  0.00    +0.306 C 
ATOM      4  N   UNL     1       9.599  -1.259  23.789  0.00  0.00    -0.248 N 
ATOM      5  H   UNL     1       9.853  -1.415  24.751  0.00  0.00    +0.158 HD
ATOM      6  C   UNL     1       9.795  -0.009  23.276  0.00  0.00    +0.172 A 
ATOM      7  S   UNL     1      10.503   1.088  24.382  0.00  0.00    +0.022 S 
ATOM      8  C   UNL     1      10.388   2.301  23.194  0.00  0.00    +0.332 A 
ATOM      9  C   UNL     1       9.860   1.799  22.029  0.00  0.00    +0.205 A 
ATOM     10  N   UNL     1       9.522   0.458  22.085  0.00  0.00    -0.226 NA
ATOM     11  O   UNL     1       8.213  -2.039  22.098  0.00  0.00    -0.252 OA
ENDROOT
BRANCH   8  12
ATOM     12  N   UNL     1      10.806   3.642  23.444  0.00  0.00    +0.089 N 
ATOM     13  O   UNL     1      12.011   3.902  23.356  0.00  0.00    +0.042 OA
ATOM     14  O   UNL     1       9.914   4.447  23.738  0.00  0.00    -0.576 OA
ENDBRANCH   8  12
BRANCH   1  15
ATOM     15  C   UNL     1       7.956  -4.459  23.360  0.00  0.00    +0.141 C 
BRANCH  15  19
ATOM     16  C   UNL     1       5.312  -6.261  26.255  0.00  0.00    +0.120 A 
ATOM     17  C   UNL     1       6.439  -5.556  26.677  0.00  0.00    +0.046 A 
ATOM     18  C   UNL     1       7.271  -4.934  25.740  0.00  0.00    +0.009 A 
ATOM     19  C   UNL     1       6.984  -5.005  24.373  0.00  0.00    -0.030 A 
ATOM     20  C   UNL     1       5.820  -5.672  23.962  0.00  0.00    +0.009 A 
ATOM     21  C   UNL     1       4.986  -6.286  24.899  0.00  0.00    +0.046 A 
BRANCH  16  23
ATOM     22  C   UNL     1       4.842  -6.904  28.466  0.00  0.00    +0.277 C 
ATOM     23  O   UNL     1       4.459  -6.925  27.094  0.00  0.00    -0.495 OA
ENDBRANCH  16  23
ENDBRANCH  15  19
ENDBRANCH   1  15
TORSDOF 4
ENDMDL
MODEL 6
REMARK VINA RESULT:      -6.2      2.126      2.567
REMARK  Name = 
REMARK  5 active torsions:
REMARK  status: ('A' for Active; 'I' for Inactive)
REMARK    1  A    between atoms: C_1  and  O_2
REMARK    2  A    between atoms: O_2  and  C_3
REMARK    3  A    between atoms: C_6  and  C_7
REMARK    4  A    between atoms: C_7  and  N_8
REMARK    5  A    between atoms: C_15  and  N_17
REMARK                            x       y       z     vdW  Elec       q    Type
REMARK                         _______ _______ _______ _____ _____    ______ ____
ROOT
ATOM      1  N   UNL     1       8.034  -2.697  23.004  0.00  0.00    -0.295 N 
ATOM      2  H   UNL     1       8.174  -2.393  23.955  0.00  0.00    +0.151 HD
ATOM      3  C   UNL     1       6.844  -3.344  22.727  0.00  0.00    +0.306 C 
ATOM      4  N   UNL     1       6.415  -4.078  23.805  0.00  0.00    -0.248 N 
ATOM      5  H   UNL     1       7.052  -4.237  24.567  0.00  0.00    +0.158 HD
ATOM      6  C   UNL     1       5.282  -4.837  23.755  0.00  0.00    +0.172 A 
ATOM      7  S   UNL     1       5.121  -5.925  25.066  0.00  0.00    +0.022 S 
ATOM      8  C   UNL     1       3.683  -6.501  24.363  0.00  0.00    +0.332 A 
ATOM      9  C   UNL     1       3.392  -5.817  23.208  0.00  0.00    +0.205 A 
ATOM     10  N   UNL     1       4.323  -4.852  22.864  0.00  0.00    -0.226 NA
ATOM     11  O   UNL     1       6.308  -3.277  21.628  0.00  0.00    -0.252 OA
ENDROOT
BRANCH   8  12
ATOM     12  N   UNL     1       2.928  -7.558  24.953  0.00  0.00    +0.089 N 
ATOM     13  O   UNL     1       2.666  -8.545  24.257  0.00  0.00    +0.042 OA
ATOM     14  O   UNL     1       2.588  -7.396  26.132  0.00  0.00    -0.576 OA
ENDBRANCH   8  12
BRANCH   1  15
ATOM     15  C   UNL     1       8.633  -1.868  21.982  0.00  0.00    +0.141 C 
BRANCH  15  19
ATOM     16  C   UNL     1       9.800   1.996  23.506  0.00  0.00    +0.120 A 
ATOM     17  C   UNL     1       9.302   1.022  24.371  0.00  0.00    +0.046 A 
ATOM     18  C   UNL     1       8.965  -0.245  23.883  0.00  0.00    +0.009 A 
ATOM     19  C   UNL     1       9.129  -0.555  22.529  0.00  0.00    -0.030 A 
ATOM     20  C   UNL     1       9.680   0.414  21.677  0.00  0.00    +0.009 A 
ATOM     21  C   UNL     1      10.023   1.676  22.167  0.00  0.00    +0.046 A 
BRANCH  16  23
ATOM     22  C   UNL     1      11.332   3.766  23.308  0.00  0.00    +0.277 C 
ATOM     23  O   UNL     1      10.128   3.269  23.885  0.00  0.00    -0.495 OA
ENDBRANCH  16  23
ENDBRANCH  15  19
ENDBRANCH   1  15
TORSDOF 4
ENDMDL
MODEL 7
REMARK VINA RESULT:      -6.2      3.667      4.263
REMARK  Name = 
REMARK  5 active torsions:
REMARK  status: ('A' for Active; 'I' for Inactive)
REMARK    1  A    between atoms: C_1  and  O_2
REMARK    2  A    between atoms: O_2  and  C_3
REMARK    3  A    between atoms: C_6  and  C_7
REMARK    4  A    between atoms: C_7  and  N_8
REMARK    5  A    between atoms: C_15  and  N_17
REMARK                            x       y       z     vdW  Elec       q    Type
REMARK                         _______ _______ _______ _____ _____    ______ ____
ROOT
ATOM      1  N   UNL     1       8.154   0.591  25.165  0.00  0.00    -0.295 N 
ATOM      2  H   UNL     1       8.671   0.089  25.870  0.00  0.00    +0.151 HD
ATOM      3  C   UNL     1       7.257  -0.141  24.411  0.00  0.00    +0.306 C 
ATOM      4  N   UNL     1       7.700  -1.427  24.223  0.00  0.00    -0.248 N 
ATOM      5  H   UNL     1       8.655  -1.649  24.451  0.00  0.00    +0.158 HD
ATOM      6  C   UNL     1       7.001  -2.329  23.473  0.00  0.00    +0.172 A 
ATOM      7  S   UNL     1       7.887  -3.740  23.085  0.00  0.00    +0.022 S 
ATOM      8  C   UNL     1       6.548  -4.290  22.192  0.00  0.00    +0.332 A 
ATOM      9  C   UNL     1       5.505  -3.398  22.271  0.00  0.00    +0.205 A 
ATOM     10  N   UNL     1       5.775  -2.266  23.018  0.00  0.00    -0.226 NA
ATOM     11  O   UNL     1       6.235   0.354  23.954  0.00  0.00    -0.252 OA
ENDROOT
BRANCH   8  12
ATOM     12  N   UNL     1       6.574  -5.526  21.481  0.00  0.00    +0.089 N 
ATOM     13  O   UNL     1       7.201  -6.470  21.975  0.00  0.00    +0.042 OA
ATOM     14  O   UNL     1       5.959  -5.553  20.407  0.00  0.00    -0.576 OA
ENDBRANCH   8  12
BRANCH   1  15
ATOM     15  C   UNL     1       7.846   1.971  25.472  0.00  0.00    +0.141 C 
BRANCH  15  19
ATOM     16  C   UNL     1      10.669   4.708  23.696  0.00  0.00    +0.120 A 
ATOM     17  C   UNL     1      10.783   3.337  23.468  0.00  0.00    +0.046 A 
ATOM     18  C   UNL     1       9.842   2.454  24.008  0.00  0.00    +0.009 A 
ATOM     19  C   UNL     1       8.773   2.931  24.774  0.00  0.00    -0.030 A 
ATOM     20  C   UNL     1       8.637   4.316  24.955  0.00  0.00    +0.009 A 
ATOM     21  C   UNL     1       9.574   5.197  24.409  0.00  0.00    +0.046 A 
BRANCH  16  23
ATOM     22  C   UNL     1      12.895   5.175  23.106  0.00  0.00    +0.277 C 
ATOM     23  O   UNL     1      11.555   5.644  23.236  0.00  0.00    -0.495 OA
ENDBRANCH  16  23
ENDBRANCH  15  19
ENDBRANCH   1  15
TORSDOF 4
ENDMDL
MODEL 8
REMARK VINA RESULT:      -6.1      2.819      8.781
REMARK  Name = 
REMARK  5 active torsions:
REMARK  status: ('A' for Active; 'I' for Inactive)
REMARK    1  A    between atoms: C_1  and  O_2
REMARK    2  A    between atoms: O_2  and  C_3
REMARK    3  A    between atoms: C_6  and  C_7
REMARK    4  A    between atoms: C_7  and  N_8
REMARK    5  A    between atoms: C_15  and  N_17
REMARK                            x       y       z     vdW  Elec       q    Type
REMARK                         _______ _______ _______ _____ _____    ______ ____
ROOT
ATOM      1  N   UNL     1       7.365  -3.117  22.744  0.00  0.00    -0.295 N 
ATOM      2  H   UNL     1       6.451  -2.788  23.013  0.00  0.00    +0.151 HD
ATOM      3  C   UNL     1       8.445  -2.354  23.145  0.00  0.00    +0.306 C 
ATOM      4  N   UNL     1       8.125  -1.019  23.177  0.00  0.00    -0.248 N 
ATOM      5  H   UNL     1       7.269  -0.715  22.743  0.00  0.00    +0.158 HD
ATOM      6  C   UNL     1       9.044  -0.064  23.504  0.00  0.00    +0.172 A 
ATOM      7  S   UNL     1       8.539   1.531  23.149  0.00  0.00    +0.022 S 
ATOM      8  C   UNL     1      10.047   2.092  23.701  0.00  0.00    +0.332 A 
ATOM      9  C   UNL     1      10.823   1.050  24.152  0.00  0.00    +0.205 A 
ATOM     10  N   UNL     1      10.232  -0.195  24.037  0.00  0.00    -0.226 NA
ATOM     11  O   UNL     1       9.539  -2.849  23.383  0.00  0.00    -0.252 OA
ENDROOT
BRANCH   8  12
ATOM     12  N   UNL     1      10.393   3.475  23.672  0.00  0.00    +0.089 N 
ATOM     13  O   UNL     1       9.523   4.300  23.974  0.00  0.00    +0.042 OA
ATOM     14  O   UNL     1      11.554   3.742  23.338  0.00  0.00    -0.576 OA
ENDBRANCH   8  12
BRANCH   1  15
ATOM     15  C   UNL     1       7.517  -4.553  22.660  0.00  0.00    +0.141 C 
BRANCH  15  19
ATOM     16  C   UNL     1       4.955  -6.399  25.601  0.00  0.00    +0.120 A 
ATOM     17  C   UNL     1       4.683  -6.548  24.241  0.00  0.00    +0.046 A 
ATOM     18  C   UNL     1       5.539  -5.986  23.287  0.00  0.00    +0.009 A 
ATOM     19  C   UNL     1       6.678  -5.277  23.681  0.00  0.00    -0.030 A 
ATOM     20  C   UNL     1       6.972  -5.178  25.049  0.00  0.00    +0.009 A 
ATOM     21  C   UNL     1       6.120  -5.745  26.000  0.00  0.00    +0.046 A 
BRANCH  16  23
ATOM     22  C   UNL     1       4.695  -6.714  27.914  0.00  0.00    +0.277 C 
ATOM     23  O   UNL     1       4.162  -6.886  26.604  0.00  0.00    -0.495 OA
ENDBRANCH  16  23
ENDBRANCH  15  19
ENDBRANCH   1  15
TORSDOF 4
ENDMDL
MODEL 9
REMARK VINA RESULT:      -6.0      3.371      8.537
REMARK  Name = 
REMARK  5 active torsions:
REMARK  status: ('A' for Active; 'I' for Inactive)
REMARK    1  A    between atoms: C_1  and  O_2
REMARK    2  A    between atoms: O_2  and  C_3
REMARK    3  A    between atoms: C_6  and  C_7
REMARK    4  A    between atoms: C_7  and  N_8
REMARK    5  A    between atoms: C_15  and  N_17
REMARK                            x       y       z     vdW  Elec       q    Type
REMARK                         _______ _______ _______ _____ _____    ______ ____
ROOT
ATOM      1  N   UNL     1       9.363  -3.341  24.159  0.00  0.00    -0.295 N 
ATOM      2  H   UNL     1       9.535  -3.467  23.174  0.00  0.00    +0.151 HD
ATOM      3  C   UNL     1       8.985  -2.076  24.568  0.00  0.00    +0.306 C 
ATOM      4  N   UNL     1       9.574  -1.107  23.795  0.00  0.00    -0.248 N 
ATOM      5  H   UNL     1      10.329  -1.368  23.183  0.00  0.00    +0.158 HD
ATOM      6  C   UNL     1       9.383   0.223  24.035  0.00  0.00    +0.172 A 
ATOM      7  S   UNL     1      10.467   1.241  23.189  0.00  0.00    +0.022 S 
ATOM      8  C   UNL     1       9.748   2.580  23.953  0.00  0.00    +0.332 A 
ATOM      9  C   UNL     1       8.715   2.184  24.768  0.00  0.00    +0.205 A 
ATOM     10  N   UNL     1       8.508   0.817  24.807  0.00  0.00    -0.226 NA
ATOM     11  O   UNL     1       8.253  -1.896  25.533  0.00  0.00    -0.252 OA
ENDROOT
BRANCH   8  12
ATOM     12  N   UNL     1      10.208   3.912  23.728  0.00  0.00    +0.089 N 
ATOM     13  O   UNL     1       9.406   4.839  23.881  0.00  0.00    +0.042 OA
ATOM     14  O   UNL     1      11.392   4.031  23.389  0.00  0.00    -0.576 OA
ENDBRANCH   8  12
BRANCH   1  15
ATOM     15  C   UNL     1       8.829  -4.489  24.858  0.00  0.00    +0.141 C 
BRANCH  15  19
ATOM     16  C   UNL     1       5.100  -5.659  23.030  0.00  0.00    +0.120 A 
ATOM     17  C   UNL     1       6.265  -5.594  22.267  0.00  0.00    +0.046 A 
ATOM     18  C   UNL     1       7.482  -5.257  22.869  0.00  0.00    +0.009 A 
ATOM     19  C   UNL     1       7.550  -4.990  24.240  0.00  0.00    -0.030 A 
ATOM     20  C   UNL     1       6.383  -5.109  25.010  0.00  0.00    +0.009 A 
ATOM     21  C   UNL     1       5.170  -5.452  24.408  0.00  0.00    +0.046 A 
BRANCH  16  23
ATOM     22  C   UNL     1       2.839  -6.081  23.509  0.00  0.00    +0.277 C 
ATOM     23  O   UNL     1       3.862  -5.950  22.526  0.00  0.00    -0.495 OA
ENDBRANCH  16  23
ENDBRANCH  15  19
ENDBRANCH   1  15
TORSDOF 4
ENDMDL
