MODEL 1
REMARK VINA RESULT:      -4.9      0.000      0.000
REMARK  Name = 
REMARK  4 active torsions:
REMARK  status: ('A' for Active; 'I' for Inactive)
REMARK    1  A    between atoms: O_1  and  C_2
REMARK    2  A    between atoms: C_2  and  C_4
REMARK    3  A    between atoms: C_7  and  O_8
REMARK    4  A    between atoms: C_9  and  O_10
REMARK                            x       y       z     vdW  Elec       q    Type
REMARK                         _______ _______ _______ _____ _____    ______ ____
ROOT
ATOM      1  C   UNL     1       9.617  -1.356  23.561  0.00  0.00    +0.063 A 
ATOM      2  C   UNL     1      10.138  -0.224  24.197  0.00  0.00    +0.064 A 
ATOM      3  C   UNL     1      10.291   0.944  23.464  0.00  0.00    +0.159 A 
ATOM      4  C   UNL     1       9.954   0.998  22.112  0.00  0.00    +0.158 A 
ATOM      5  C   UNL     1       9.456  -0.127  21.466  0.00  0.00    +0.050 A 
ATOM      6  C   UNL     1       9.290  -1.308  22.195  0.00  0.00    +0.019 A 
ENDROOT
BRANCH   1   7
ATOM      7  C   UNL     1       9.433  -2.639  24.281  0.00  0.00    +0.337 C 
ATOM      8  O   UNL     1      10.163  -3.600  24.112  0.00  0.00    -0.245 OA
BRANCH   7   9
ATOM      9  O   UNL     1       8.354  -2.662  25.090  0.00  0.00    -0.477 OA
ATOM     10  H   UNL     1       7.522  -2.350  24.686  0.00  0.00    +0.295 HD
ENDBRANCH   7   9
ENDBRANCH   1   7
BRANCH   3  11
ATOM     11  O   UNL     1      10.788   2.052  24.088  0.00  0.00    -0.503 OA
ATOM     12  H   UNL     1      10.532   2.799  23.510  0.00  0.00    +0.292 HD
ENDBRANCH   3  11
BRANCH   4  13
ATOM     13  O   UNL     1      10.145   2.183  21.459  0.00  0.00    -0.503 OA
ATOM     14  H   UNL     1      10.363   2.865  22.120  0.00  0.00    +0.292 HD
ENDBRANCH   4  13
TORSDOF 4
ENDMDL
MODEL 2
REMARK VINA RESULT:      -4.9      1.078      2.251
REMARK  Name = 
REMARK  4 active torsions:
REMARK  status: ('A' for Active; 'I' for Inactive)
REMARK    1  A    between atoms: O_1  and  C_2
REMARK    2  A    between atoms: C_2  and  C_4
REMARK    3  A    between atoms: C_7  and  O_8
REMARK    4  A    between atoms: C_9  and  O_10
REMARK                            x       y       z     vdW  Elec       q    Type
REMARK                         _______ _______ _______ _____ _____    ______ ____
ROOT
ATOM      1  C   UNL     1       9.727  -0.903  23.310  0.00  0.00    +0.063 A 
ATOM      2  C   UNL     1       9.555  -0.014  22.243  0.00  0.00    +0.064 A 
ATOM      3  C   UNL     1       9.945   1.307  22.404  0.00  0.00    +0.159 A 
ATOM      4  C   UNL     1      10.480   1.761  23.609  0.00  0.00    +0.158 A 
ATOM      5  C   UNL     1      10.635   0.891  24.681  0.00  0.00    +0.050 A 
ATOM      6  C   UNL     1      10.254  -0.445  24.530  0.00  0.00    +0.019 A 
ENDROOT
BRANCH   1   7
ATOM      7  C   UNL     1       9.328  -2.327  23.210  0.00  0.00    +0.337 C 
ATOM      8  O   UNL     1       8.378  -2.701  22.544  0.00  0.00    -0.245 OA
BRANCH   7   9
ATOM      9  O   UNL     1      10.074  -3.159  23.967  0.00  0.00    -0.477 OA
ATOM     10  H   UNL     1      10.200  -2.880  24.893  0.00  0.00    +0.295 HD
ENDBRANCH   7   9
ENDBRANCH   1   7
BRANCH   3  11
ATOM     11  O   UNL     1       9.789   2.171  21.359  0.00  0.00    -0.503 OA
ATOM     12  H   UNL     1      10.500   2.833  21.474  0.00  0.00    +0.292 HD
ENDBRANCH   3  11
BRANCH   4  13
ATOM     13  O   UNL     1      10.828   3.080  23.689  0.00  0.00    -0.503 OA
ATOM     14  H   UNL     1      11.753   3.135  23.986  0.00  0.00    +0.292 HD
ENDBRANCH   4  13
TORSDOF 4
ENDMDL
MODEL 3
REMARK VINA RESULT:      -4.8      1.715      4.636
REMARK  Name = 
REMARK  4 active torsions:
REMARK  status: ('A' for Active; 'I' for Inactive)
REMARK    1  A    between atoms: O_1  and  C_2
REMARK    2  A    between atoms: C_2  and  C_4
REMARK    3  A    between atoms: C_7  and  O_8
REMARK    4  A    between atoms: C_9  and  O_10
REMARK                            x       y       z     vdW  Elec       q    Type
REMARK                         _______ _______ _______ _____ _____    ______ ____
ROOT
ATOM      1  C   UNL     1      10.329   1.848  23.272  0.00  0.00    +0.063 A 
ATOM      2  C   UNL     1      10.026   1.157  22.094  0.00  0.00    +0.064 A 
ATOM      3  C   UNL     1       9.851  -0.217  22.150  0.00  0.00    +0.159 A 
ATOM      4  C   UNL     1       9.991  -0.916  23.349  0.00  0.00    +0.158 A 
ATOM      5  C   UNL     1      10.312  -0.242  24.521  0.00  0.00    +0.050 A 
ATOM      6  C   UNL     1      10.484   1.145  24.480  0.00  0.00    +0.019 A 
ENDROOT
BRANCH   1   7
ATOM      7  C   UNL     1      10.535   3.315  23.285  0.00  0.00    +0.337 C 
ATOM      8  O   UNL     1      11.634   3.825  23.428  0.00  0.00    -0.245 OA
BRANCH   7   9
ATOM      9  O   UNL     1       9.395   4.030  23.184  0.00  0.00    -0.477 OA
ATOM     10  H   UNL     1       9.478   4.884  22.720  0.00  0.00    +0.295 HD
ENDBRANCH   7   9
ENDBRANCH   1   7
BRANCH   3  11
ATOM     11  O   UNL     1       9.543  -0.889  21.002  0.00  0.00    -0.503 OA
ATOM     12  H   UNL     1       8.972  -1.629  21.292  0.00  0.00    +0.292 HD
ENDBRANCH   3  11
BRANCH   4  13
ATOM     13  O   UNL     1       9.813  -2.270  23.317  0.00  0.00    -0.503 OA
ATOM     14  H   UNL     1       9.954  -2.576  22.403  0.00  0.00    +0.292 HD
ENDBRANCH   4  13
TORSDOF 4
ENDMDL
MODEL 4
REMARK VINA RESULT:      -4.6      5.432      6.515
REMARK  Name = 
REMARK  4 active torsions:
REMARK  status: ('A' for Active; 'I' for Inactive)
REMARK    1  A    between atoms: O_1  and  C_2
REMARK    2  A    between atoms: C_2  and  C_4
REMARK    3  A    between atoms: C_7  and  O_8
REMARK    4  A    between atoms: C_9  and  O_10
REMARK                            x       y       z     vdW  Elec       q    Type
REMARK                         _______ _______ _______ _____ _____    ______ ____
ROOT
ATOM      1  C   UNL     1       6.584  -5.187  23.506  0.00  0.00    +0.063 A 
ATOM      2  C   UNL     1       7.982  -5.180  23.568  0.00  0.00    +0.064 A 
ATOM      3  C   UNL     1       8.597  -5.251  24.810  0.00  0.00    +0.159 A 
ATOM      4  C   UNL     1       7.848  -5.308  25.985  0.00  0.00    +0.158 A 
ATOM      5  C   UNL     1       6.460  -5.294  25.935  0.00  0.00    +0.050 A 
ATOM      6  C   UNL     1       5.827  -5.231  24.690  0.00  0.00    +0.019 A 
ENDROOT
BRANCH   1   7
ATOM      7  C   UNL     1       5.860  -5.107  22.215  0.00  0.00    +0.337 C 
ATOM      8  O   UNL     1       6.073  -5.875  21.292  0.00  0.00    -0.245 OA
BRANCH   7   9
ATOM      9  O   UNL     1       4.992  -4.078  22.137  0.00  0.00    -0.477 OA
ATOM     10  H   UNL     1       5.395  -3.190  22.143  0.00  0.00    +0.295 HD
ENDBRANCH   7   9
ENDBRANCH   1   7
BRANCH   3  11
ATOM     11  O   UNL     1       9.961  -5.257  24.869  0.00  0.00    -0.503 OA
ATOM     12  H   UNL     1      10.199  -4.376  25.222  0.00  0.00    +0.292 HD
ENDBRANCH   3  11
BRANCH   4  13
ATOM     13  O   UNL     1       8.531  -5.365  27.167  0.00  0.00    -0.503 OA
ATOM     14  H   UNL     1       9.465  -5.155  26.992  0.00  0.00    +0.292 HD
ENDBRANCH   4  13
TORSDOF 4
ENDMDL
MODEL 5
REMARK VINA RESULT:      -4.5      1.747      2.099
REMARK  Name = 
REMARK  4 active torsions:
REMARK  status: ('A' for Active; 'I' for Inactive)
REMARK    1  A    between atoms: O_1  and  C_2
REMARK    2  A    between atoms: C_2  and  C_4
REMARK    3  A    between atoms: C_7  and  O_8
REMARK    4  A    between atoms: C_9  and  O_10
REMARK                            x       y       z     vdW  Elec       q    Type
REMARK                         _______ _______ _______ _____ _____    ______ ____
ROOT
ATOM      1  C   UNL     1       8.914  -0.640  22.633  0.00  0.00    +0.063 A 
ATOM      2  C   UNL     1       9.905   0.255  22.217  0.00  0.00    +0.064 A 
ATOM      3  C   UNL     1       9.560   1.581  22.002  0.00  0.00    +0.159 A 
ATOM      4  C   UNL     1       8.249   2.025  22.173  0.00  0.00    +0.158 A 
ATOM      5  C   UNL     1       7.254   1.139  22.566  0.00  0.00    +0.050 A 
ATOM      6  C   UNL     1       7.589  -0.199  22.794  0.00  0.00    +0.019 A 
ENDROOT
BRANCH   1   7
ATOM      7  C   UNL     1       9.209  -2.072  22.877  0.00  0.00    +0.337 C 
ATOM      8  O   UNL     1      10.308  -2.469  23.225  0.00  0.00    -0.245 OA
BRANCH   7   9
ATOM      9  O   UNL     1       8.171  -2.896  22.623  0.00  0.00    -0.477 OA
ATOM     10  H   UNL     1       8.282  -3.481  21.850  0.00  0.00    +0.295 HD
ENDBRANCH   7   9
ENDBRANCH   1   7
BRANCH   3  11
ATOM     11  O   UNL     1      10.530   2.458  21.608  0.00  0.00    -0.503 OA
ATOM     12  H   UNL     1      11.362   2.089  21.969  0.00  0.00    +0.292 HD
ENDBRANCH   3  11
BRANCH   4  13
ATOM     13  O   UNL     1       7.991   3.344  21.930  0.00  0.00    -0.503 OA
ATOM     14  H   UNL     1       8.796   3.855  22.126  0.00  0.00    +0.292 HD
ENDBRANCH   4  13
TORSDOF 4
ENDMDL
MODEL 6
REMARK VINA RESULT:      -4.4      5.469      6.850
REMARK  Name = 
REMARK  4 active torsions:
REMARK  status: ('A' for Active; 'I' for Inactive)
REMARK    1  A    between atoms: O_1  and  C_2
REMARK    2  A    between atoms: C_2  and  C_4
REMARK    3  A    between atoms: C_7  and  O_8
REMARK    4  A    between atoms: C_9  and  O_10
REMARK                            x       y       z     vdW  Elec       q    Type
REMARK                         _______ _______ _______ _____ _____    ______ ____
ROOT
ATOM      1  C   UNL     1       6.344  -5.237  23.708  0.00  0.00    +0.063 A 
ATOM      2  C   UNL     1       5.883  -5.661  24.959  0.00  0.00    +0.064 A 
ATOM      3  C   UNL     1       6.749  -5.617  26.041  0.00  0.00    +0.159 A 
ATOM      4  C   UNL     1       8.065  -5.180  25.897  0.00  0.00    +0.158 A 
ATOM      5  C   UNL     1       8.539  -4.777  24.654  0.00  0.00    +0.050 A 
ATOM      6  C   UNL     1       7.674  -4.808  23.557  0.00  0.00    +0.019 A 
ENDROOT
BRANCH   1   7
ATOM      7  C   UNL     1       5.476  -5.262  22.507  0.00  0.00    +0.337 C 
ATOM      8  O   UNL     1       4.649  -4.397  22.273  0.00  0.00    -0.245 OA
BRANCH   7   9
ATOM      9  O   UNL     1       5.644  -6.353  21.732  0.00  0.00    -0.477 OA
ATOM     10  H   UNL     1       6.571  -6.587  21.536  0.00  0.00    +0.295 HD
ENDBRANCH   7   9
ENDBRANCH   1   7
BRANCH   3  11
ATOM     11  O   UNL     1       6.295  -6.019  27.264  0.00  0.00    -0.503 OA
ATOM     12  H   UNL     1       6.229  -6.993  27.199  0.00  0.00    +0.292 HD
ENDBRANCH   3  11
BRANCH   4  13
ATOM     13  O   UNL     1       8.857  -5.178  27.010  0.00  0.00    -0.503 OA
ATOM     14  H   UNL     1       9.713  -4.776  26.777  0.00  0.00    +0.292 HD
ENDBRANCH   4  13
TORSDOF 4
ENDMDL
MODEL 7
REMARK VINA RESULT:      -4.4      1.272      4.274
REMARK  Name = 
REMARK  4 active torsions:
REMARK  status: ('A' for Active; 'I' for Inactive)
REMARK    1  A    between atoms: O_1  and  C_2
REMARK    2  A    between atoms: C_2  and  C_4
REMARK    3  A    between atoms: C_7  and  O_8
REMARK    4  A    between atoms: C_9  and  O_10
REMARK                            x       y       z     vdW  Elec       q    Type
REMARK                         _______ _______ _______ _____ _____    ______ ____
ROOT
ATOM      1  C   UNL     1       9.505   0.363  22.941  0.00  0.00    +0.063 A 
ATOM      2  C   UNL     1      10.227  -0.770  23.332  0.00  0.00    +0.064 A 
ATOM      3  C   UNL     1       9.554  -1.973  23.485  0.00  0.00    +0.159 A 
ATOM      4  C   UNL     1       8.178  -2.062  23.276  0.00  0.00    +0.158 A 
ATOM      5  C   UNL     1       7.448  -0.939  22.908  0.00  0.00    +0.050 A 
ATOM      6  C   UNL     1       8.116   0.278  22.742  0.00  0.00    +0.019 A 
ENDROOT
BRANCH   1   7
ATOM      7  C   UNL     1      10.158   1.682  22.764  0.00  0.00    +0.337 C 
ATOM      8  O   UNL     1      10.709   2.272  23.677  0.00  0.00    -0.245 OA
BRANCH   7   9
ATOM      9  O   UNL     1      10.036   2.190  21.520  0.00  0.00    -0.477 OA
ATOM     10  H   UNL     1       9.196   1.987  21.066  0.00  0.00    +0.295 HD
ENDBRANCH   7   9
ENDBRANCH   1   7
BRANCH   3  11
ATOM     11  O   UNL     1      10.261  -3.081  23.855  0.00  0.00    -0.503 OA
ATOM     12  H   UNL     1      10.643  -3.422  23.021  0.00  0.00    +0.292 HD
ENDBRANCH   3  11
BRANCH   4  13
ATOM     13  O   UNL     1       7.588  -3.282  23.459  0.00  0.00    -0.503 OA
ATOM     14  H   UNL     1       7.525  -3.724  22.594  0.00  0.00    +0.292 HD
ENDBRANCH   4  13
TORSDOF 4
ENDMDL
MODEL 8
REMARK VINA RESULT:      -4.4      1.908      2.454
REMARK  Name = 
REMARK  4 active torsions:
REMARK  status: ('A' for Active; 'I' for Inactive)
REMARK    1  A    between atoms: O_1  and  C_2
REMARK    2  A    between atoms: C_2  and  C_4
REMARK    3  A    between atoms: C_7  and  O_8
REMARK    4  A    between atoms: C_9  and  O_10
REMARK                            x       y       z     vdW  Elec       q    Type
REMARK                         _______ _______ _______ _____ _____    ______ ____
ROOT
ATOM      1  C   UNL     1       9.756  -0.060  23.091  0.00  0.00    +0.063 A 
ATOM      2  C   UNL     1       9.240   0.326  24.332  0.00  0.00    +0.064 A 
ATOM      3  C   UNL     1       8.973   1.669  24.556  0.00  0.00    +0.159 A 
ATOM      4  C   UNL     1       9.229   2.630  23.579  0.00  0.00    +0.158 A 
ATOM      5  C   UNL     1       9.762   2.259  22.351  0.00  0.00    +0.050 A 
ATOM      6  C   UNL     1      10.028   0.908  22.109  0.00  0.00    +0.019 A 
ENDROOT
BRANCH   1   7
ATOM      7  C   UNL     1      10.071  -1.476  22.783  0.00  0.00    +0.337 C 
ATOM      8  O   UNL     1      10.118  -2.342  23.640  0.00  0.00    -0.245 OA
BRANCH   7   9
ATOM      9  O   UNL     1      10.354  -1.704  21.484  0.00  0.00    -0.477 OA
ATOM     10  H   UNL     1      10.017  -2.547  21.125  0.00  0.00    +0.295 HD
ENDBRANCH   7   9
ENDBRANCH   1   7
BRANCH   3  11
ATOM     11  O   UNL     1       8.457   2.045  25.763  0.00  0.00    -0.503 OA
ATOM     12  H   UNL     1       7.977   1.255  26.086  0.00  0.00    +0.292 HD
ENDBRANCH   3  11
BRANCH   4  13
ATOM     13  O   UNL     1       8.949   3.932  23.884  0.00  0.00    -0.503 OA
ATOM     14  H   UNL     1       7.982   4.047  23.875  0.00  0.00    +0.292 HD
ENDBRANCH   4  13
TORSDOF 4
ENDMDL
MODEL 9
REMARK VINA RESULT:      -4.4      1.995      5.191
REMARK  Name = 
REMARK  4 active torsions:
REMARK  status: ('A' for Active; 'I' for Inactive)
REMARK    1  A    between atoms: O_1  and  C_2
REMARK    2  A    between atoms: C_2  and  C_4
REMARK    3  A    between atoms: C_7  and  O_8
REMARK    4  A    between atoms: C_9  and  O_10
REMARK                            x       y       z     vdW  Elec       q    Type
REMARK                         _______ _______ _______ _____ _____    ______ ____
ROOT
ATOM      1  C   UNL     1       9.591  -2.041  24.154  0.00  0.00    +0.063 A 
ATOM      2  C   UNL     1       9.895  -3.405  24.078  0.00  0.00    +0.064 A 
ATOM      3  C   UNL     1       9.419  -4.252  25.067  0.00  0.00    +0.159 A 
ATOM      4  C   UNL     1       8.668  -3.765  26.136  0.00  0.00    +0.158 A 
ATOM      5  C   UNL     1       8.378  -2.410  26.232  0.00  0.00    +0.050 A 
ATOM      6  C   UNL     1       8.845  -1.546  25.237  0.00  0.00    +0.019 A 
ENDROOT
BRANCH   1   7
ATOM      7  C   UNL     1      10.071  -1.077  23.135  0.00  0.00    +0.337 C 
ATOM      8  O   UNL     1      10.135   0.123  23.342  0.00  0.00    -0.245 OA
BRANCH   7   9
ATOM      9  O   UNL     1      10.372  -1.640  21.947  0.00  0.00    -0.477 OA
ATOM     10  H   UNL     1      10.627  -2.581  21.984  0.00  0.00    +0.295 HD
ENDBRANCH   7   9
ENDBRANCH   1   7
BRANCH   3  11
ATOM     11  O   UNL     1       9.706  -5.585  24.986  0.00  0.00    -0.503 OA
ATOM     12  H   UNL     1       9.796  -5.877  25.916  0.00  0.00    +0.292 HD
ENDBRANCH   3  11
BRANCH   4  13
ATOM     13  O   UNL     1       8.247  -4.665  27.075  0.00  0.00    -0.503 OA
ATOM     14  H   UNL     1       7.615  -5.274  26.653  0.00  0.00    +0.292 HD
ENDBRANCH   4  13
TORSDOF 4
ENDMDL
