MODEL 1
REMARK VINA RESULT:      -4.6      0.000      0.000
REMARK  Name = 
REMARK  3 active torsions:
REMARK  status: ('A' for Active; 'I' for Inactive)
REMARK    1  A    between atoms: O_1  and  C_2
REMARK    2  A    between atoms: C_2  and  C_4
REMARK    3  A    between atoms: C_4  and  C_6
REMARK                            x       y       z     vdW  Elec       q    Type
REMARK                         _______ _______ _______ _____ _____    ______ ____
ROOT
ATOM      1  C   UNL     1       8.766  -4.812  24.780  0.00  0.00    +0.269 C 
ATOM      2  O   UNL     1       9.978  -4.642  24.639  0.00  0.00    -0.280 OA
ENDROOT
BRANCH   1   3
ATOM      3  C   UNL     1       7.805  -4.565  23.682  0.00  0.00    +0.029 A 
ATOM      4  C   UNL     1       7.134  -3.346  23.535  0.00  0.00    +0.012 A 
ATOM      5  C   UNL     1       6.258  -3.153  22.464  0.00  0.00    +0.001 A 
ATOM      6  C   UNL     1       6.041  -4.178  21.543  0.00  0.00    +0.000 A 
ATOM      7  C   UNL     1       6.684  -5.404  21.700  0.00  0.00    +0.001 A 
ATOM      8  C   UNL     1       7.559  -5.602  22.771  0.00  0.00    +0.012 A 
ENDBRANCH   1   3
BRANCH   1   9
ATOM      9  C   UNL     1       8.307  -5.260  26.168  0.00  0.00    +0.378 C 
ATOM     10  O   UNL     1       7.260  -5.825  26.412  0.00  0.00    -0.241 OA
BRANCH   9  11
ATOM     11  O   UNL     1       9.231  -4.913  27.088  0.00  0.00    -0.475 OA
ATOM     12  H   UNL     1       9.068  -3.978  27.360  0.00  0.00    +0.296 HD
ENDBRANCH   9  11
ENDBRANCH   1   9
TORSDOF 3
ENDMDL
MODEL 2
REMARK VINA RESULT:      -4.6      4.266      5.338
REMARK  Name = 
REMARK  3 active torsions:
REMARK  status: ('A' for Active; 'I' for Inactive)
REMARK    1  A    between atoms: O_1  and  C_2
REMARK    2  A    between atoms: C_2  and  C_4
REMARK    3  A    between atoms: C_4  and  C_6
REMARK                            x       y       z     vdW  Elec       q    Type
REMARK                         _______ _______ _______ _____ _____    ______ ____
ROOT
ATOM      1  C   UNL     1       9.467  -2.133  23.407  0.00  0.00    +0.269 C 
ATOM      2  O   UNL     1      10.306  -2.954  23.780  0.00  0.00    -0.280 OA
ENDROOT
BRANCH   1   3
ATOM      3  C   UNL     1       9.791  -0.699  23.237  0.00  0.00    +0.029 A 
ATOM      4  C   UNL     1       9.606  -0.030  22.022  0.00  0.00    +0.012 A 
ATOM      5  C   UNL     1       9.901   1.332  21.921  0.00  0.00    +0.001 A 
ATOM      6  C   UNL     1      10.390   2.026  23.027  0.00  0.00    +0.000 A 
ATOM      7  C   UNL     1      10.604   1.359  24.232  0.00  0.00    +0.001 A 
ATOM      8  C   UNL     1      10.313  -0.003  24.336  0.00  0.00    +0.012 A 
ENDBRANCH   1   3
BRANCH   1   9
ATOM      9  C   UNL     1       8.058  -2.676  23.162  0.00  0.00    +0.378 C 
ATOM     10  O   UNL     1       7.741  -3.422  22.258  0.00  0.00    -0.241 OA
BRANCH   9  11
ATOM     11  O   UNL     1       7.211  -2.182  24.091  0.00  0.00    -0.475 OA
ATOM     12  H   UNL     1       6.313  -2.558  23.928  0.00  0.00    +0.296 HD
ENDBRANCH   9  11
ENDBRANCH   1   9
TORSDOF 3
ENDMDL
MODEL 3
REMARK VINA RESULT:      -4.6      6.915      7.901
REMARK  Name = 
REMARK  3 active torsions:
REMARK  status: ('A' for Active; 'I' for Inactive)
REMARK    1  A    between atoms: O_1  and  C_2
REMARK    2  A    between atoms: C_2  and  C_4
REMARK    3  A    between atoms: C_4  and  C_6
REMARK                            x       y       z     vdW  Elec       q    Type
REMARK                         _______ _______ _______ _____ _____    ______ ____
ROOT
ATOM      1  C   UNL     1      10.527   3.280  23.490  0.00  0.00    +0.269 C 
ATOM      2  O   UNL     1      11.640   3.799  23.396  0.00  0.00    -0.280 OA
ENDROOT
BRANCH   1   3
ATOM      3  C   UNL     1      10.286   1.865  23.126  0.00  0.00    +0.029 A 
ATOM      4  C   UNL     1       9.781   1.490  21.877  0.00  0.00    +0.012 A 
ATOM      5  C   UNL     1       9.599   0.138  21.573  0.00  0.00    +0.001 A 
ATOM      6  C   UNL     1       9.911  -0.840  22.516  0.00  0.00    +0.000 A 
ATOM      7  C   UNL     1      10.388  -0.471  23.773  0.00  0.00    +0.001 A 
ATOM      8  C   UNL     1      10.568   0.879  24.082  0.00  0.00    +0.012 A 
ENDBRANCH   1   3
BRANCH   1   9
ATOM      9  C   UNL     1       9.398   4.192  23.972  0.00  0.00    +0.378 C 
ATOM     10  O   UNL     1       8.775   4.050  25.004  0.00  0.00    -0.241 OA
BRANCH   9  11
ATOM     11  O   UNL     1       9.181   5.168  23.064  0.00  0.00    -0.475 OA
ATOM     12  H   UNL     1       9.291   4.786  22.161  0.00  0.00    +0.296 HD
ENDBRANCH   9  11
ENDBRANCH   1   9
TORSDOF 3
ENDMDL
MODEL 4
REMARK VINA RESULT:      -4.6      4.238      5.247
REMARK  Name = 
REMARK  3 active torsions:
REMARK  status: ('A' for Active; 'I' for Inactive)
REMARK    1  A    between atoms: O_1  and  C_2
REMARK    2  A    between atoms: C_2  and  C_4
REMARK    3  A    between atoms: C_4  and  C_6
REMARK                            x       y       z     vdW  Elec       q    Type
REMARK                         _______ _______ _______ _____ _____    ______ ____
ROOT
ATOM      1  C   UNL     1       9.463  -2.155  23.451  0.00  0.00    +0.269 C 
ATOM      2  O   UNL     1      10.306  -2.983  23.799  0.00  0.00    -0.280 OA
ENDROOT
BRANCH   1   3
ATOM      3  C   UNL     1       9.781  -0.716  23.321  0.00  0.00    +0.029 A 
ATOM      4  C   UNL     1      10.250   0.046  24.397  0.00  0.00    +0.012 A 
ATOM      5  C   UNL     1      10.563   1.396  24.215  0.00  0.00    +0.001 A 
ATOM      6  C   UNL     1      10.401   1.990  22.965  0.00  0.00    +0.000 A 
ATOM      7  C   UNL     1       9.908   1.244  21.896  0.00  0.00    +0.001 A 
ATOM      8  C   UNL     1       9.591  -0.104  22.074  0.00  0.00    +0.012 A 
ENDBRANCH   1   3
BRANCH   1   9
ATOM      9  C   UNL     1       8.056  -2.697  23.192  0.00  0.00    +0.378 C 
ATOM     10  O   UNL     1       7.706  -3.289  22.191  0.00  0.00    -0.241 OA
BRANCH   9  11
ATOM     11  O   UNL     1       7.254  -2.398  24.236  0.00  0.00    -0.475 OA
ATOM     12  H   UNL     1       7.701  -2.685  25.068  0.00  0.00    +0.296 HD
ENDBRANCH   9  11
ENDBRANCH   1   9
TORSDOF 3
ENDMDL
MODEL 5
REMARK VINA RESULT:      -4.5      2.897      3.688
REMARK  Name = 
REMARK  3 active torsions:
REMARK  status: ('A' for Active; 'I' for Inactive)
REMARK    1  A    between atoms: O_1  and  C_2
REMARK    2  A    between atoms: C_2  and  C_4
REMARK    3  A    between atoms: C_4  and  C_6
REMARK                            x       y       z     vdW  Elec       q    Type
REMARK                         _______ _______ _______ _____ _____    ______ ____
ROOT
ATOM      1  C   UNL     1       8.690  -3.591  23.966  0.00  0.00    +0.269 C 
ATOM      2  O   UNL     1       7.816  -4.236  23.385  0.00  0.00    -0.280 OA
ENDROOT
BRANCH   1   3
ATOM      3  C   UNL     1       9.157  -2.276  23.472  0.00  0.00    +0.029 A 
ATOM      4  C   UNL     1       9.843  -1.372  24.289  0.00  0.00    +0.012 A 
ATOM      5  C   UNL     1      10.288  -0.155  23.766  0.00  0.00    +0.001 A 
ATOM      6  C   UNL     1      10.042   0.166  22.432  0.00  0.00    +0.000 A 
ATOM      7  C   UNL     1       9.334  -0.719  21.621  0.00  0.00    +0.001 A 
ATOM      8  C   UNL     1       8.885  -1.935  22.140  0.00  0.00    +0.012 A 
ENDBRANCH   1   3
BRANCH   1   9
ATOM      9  C   UNL     1       9.290  -4.244  25.212  0.00  0.00    +0.378 C 
ATOM     10  O   UNL     1       8.913  -4.059  26.351  0.00  0.00    -0.241 OA
BRANCH   9  11
ATOM     11  O   UNL     1      10.320  -5.042  24.858  0.00  0.00    -0.475 OA
ATOM     12  H   UNL     1      11.096  -4.473  24.638  0.00  0.00    +0.296 HD
ENDBRANCH   9  11
ENDBRANCH   1   9
TORSDOF 3
ENDMDL
MODEL 6
REMARK VINA RESULT:      -4.4      1.518      2.305
REMARK  Name = 
REMARK  3 active torsions:
REMARK  status: ('A' for Active; 'I' for Inactive)
REMARK    1  A    between atoms: O_1  and  C_2
REMARK    2  A    between atoms: C_2  and  C_4
REMARK    3  A    between atoms: C_4  and  C_6
REMARK                            x       y       z     vdW  Elec       q    Type
REMARK                         _______ _______ _______ _____ _____    ______ ____
ROOT
ATOM      1  C   UNL     1       7.127  -4.391  25.829  0.00  0.00    +0.269 C 
ATOM      2  O   UNL     1       6.499  -3.450  26.315  0.00  0.00    -0.280 OA
ENDROOT
BRANCH   1   3
ATOM      3  C   UNL     1       6.789  -4.961  24.505  0.00  0.00    +0.029 A 
ATOM      4  C   UNL     1       7.744  -5.123  23.495  0.00  0.00    +0.012 A 
ATOM      5  C   UNL     1       7.380  -5.693  22.273  0.00  0.00    +0.001 A 
ATOM      6  C   UNL     1       6.063  -6.093  22.051  0.00  0.00    +0.000 A 
ATOM      7  C   UNL     1       5.101  -5.908  23.042  0.00  0.00    +0.001 A 
ATOM      8  C   UNL     1       5.460  -5.336  24.264  0.00  0.00    +0.012 A 
ENDBRANCH   1   3
BRANCH   1   9
ATOM      9  C   UNL     1       8.256  -4.961  26.688  0.00  0.00    +0.378 C 
ATOM     10  O   UNL     1       9.426  -4.642  26.610  0.00  0.00    -0.241 OA
BRANCH   9  11
ATOM     11  O   UNL     1       7.762  -5.889  27.533  0.00  0.00    -0.475 OA
ATOM     12  H   UNL     1       6.818  -5.670  27.723  0.00  0.00    +0.296 HD
ENDBRANCH   9  11
ENDBRANCH   1   9
TORSDOF 3
ENDMDL
MODEL 7
REMARK VINA RESULT:      -4.3      3.068      4.424
REMARK  Name = 
REMARK  3 active torsions:
REMARK  status: ('A' for Active; 'I' for Inactive)
REMARK    1  A    between atoms: O_1  and  C_2
REMARK    2  A    between atoms: C_2  and  C_4
REMARK    3  A    between atoms: C_4  and  C_6
REMARK                            x       y       z     vdW  Elec       q    Type
REMARK                         _______ _______ _______ _____ _____    ______ ____
ROOT
ATOM      1  C   UNL     1       6.299  -3.981  22.133  0.00  0.00    +0.269 C 
ATOM      2  O   UNL     1       5.318  -3.268  21.916  0.00  0.00    -0.280 OA
ENDROOT
BRANCH   1   3
ATOM      3  C   UNL     1       7.533  -3.451  22.756  0.00  0.00    +0.029 A 
ATOM      4  C   UNL     1       8.107  -4.034  23.891  0.00  0.00    +0.012 A 
ATOM      5  C   UNL     1       9.288  -3.512  24.424  0.00  0.00    +0.001 A 
ATOM      6  C   UNL     1       9.895  -2.405  23.833  0.00  0.00    +0.000 A 
ATOM      7  C   UNL     1       9.313  -1.803  22.718  0.00  0.00    +0.001 A 
ATOM      8  C   UNL     1       8.131  -2.319  22.184  0.00  0.00    +0.012 A 
ENDBRANCH   1   3
BRANCH   1   9
ATOM      9  C   UNL     1       6.182  -5.440  21.689  0.00  0.00    +0.378 C 
ATOM     10  O   UNL     1       7.061  -6.081  21.151  0.00  0.00    -0.241 OA
BRANCH   9  11
ATOM     11  O   UNL     1       4.944  -5.902  21.965  0.00  0.00    -0.475 OA
ATOM     12  H   UNL     1       4.656  -5.530  22.833  0.00  0.00    +0.296 HD
ENDBRANCH   9  11
ENDBRANCH   1   9
TORSDOF 3
ENDMDL
MODEL 8
REMARK VINA RESULT:      -4.2      4.628      5.909
REMARK  Name = 
REMARK  3 active torsions:
REMARK  status: ('A' for Active; 'I' for Inactive)
REMARK    1  A    between atoms: O_1  and  C_2
REMARK    2  A    between atoms: C_2  and  C_4
REMARK    3  A    between atoms: C_4  and  C_6
REMARK                            x       y       z     vdW  Elec       q    Type
REMARK                         _______ _______ _______ _____ _____    ______ ____
ROOT
ATOM      1  C   UNL     1       8.685  -1.141  23.367  0.00  0.00    +0.269 C 
ATOM      2  O   UNL     1       7.617  -1.713  23.587  0.00  0.00    -0.280 OA
ENDROOT
BRANCH   1   3
ATOM      3  C   UNL     1       8.794   0.335  23.331  0.00  0.00    +0.029 A 
ATOM      4  C   UNL     1       9.403   1.065  24.357  0.00  0.00    +0.012 A 
ATOM      5  C   UNL     1       9.505   2.455  24.261  0.00  0.00    +0.001 A 
ATOM      6  C   UNL     1       8.994   3.120  23.147  0.00  0.00    +0.000 A 
ATOM      7  C   UNL     1       8.361   2.401  22.135  0.00  0.00    +0.001 A 
ATOM      8  C   UNL     1       8.254   1.012  22.228  0.00  0.00    +0.012 A 
ENDBRANCH   1   3
BRANCH   1   9
ATOM      9  C   UNL     1       9.889  -2.045  23.100  0.00  0.00    +0.378 C 
ATOM     10  O   UNL     1      10.260  -2.950  23.820  0.00  0.00    -0.241 OA
BRANCH   9  11
ATOM     11  O   UNL     1      10.493  -1.673  21.951  0.00  0.00    -0.475 OA
ATOM     12  H   UNL     1      11.164  -2.357  21.713  0.00  0.00    +0.296 HD
ENDBRANCH   9  11
ENDBRANCH   1   9
TORSDOF 3
ENDMDL
MODEL 9
REMARK VINA RESULT:      -4.2      1.770      2.500
REMARK  Name = 
REMARK  3 active torsions:
REMARK  status: ('A' for Active; 'I' for Inactive)
REMARK    1  A    between atoms: O_1  and  C_2
REMARK    2  A    between atoms: C_2  and  C_4
REMARK    3  A    between atoms: C_4  and  C_6
REMARK                            x       y       z     vdW  Elec       q    Type
REMARK                         _______ _______ _______ _____ _____    ______ ____
ROOT
ATOM      1  C   UNL     1       8.894  -4.502  24.506  0.00  0.00    +0.269 C 
ATOM      2  O   UNL     1       9.793  -5.231  24.927  0.00  0.00    -0.280 OA
ENDROOT
BRANCH   1   3
ATOM      3  C   UNL     1       7.591  -5.040  24.054  0.00  0.00    +0.029 A 
ATOM      4  C   UNL     1       6.489  -5.147  24.910  0.00  0.00    +0.012 A 
ATOM      5  C   UNL     1       5.273  -5.636  24.427  0.00  0.00    +0.001 A 
ATOM      6  C   UNL     1       5.155  -6.028  23.094  0.00  0.00    +0.000 A 
ATOM      7  C   UNL     1       6.257  -5.950  22.244  0.00  0.00    +0.001 A 
ATOM      8  C   UNL     1       7.475  -5.465  22.723  0.00  0.00    +0.012 A 
ENDBRANCH   1   3
BRANCH   1   9
ATOM      9  C   UNL     1       9.215  -3.008  24.443  0.00  0.00    +0.378 C 
ATOM     10  O   UNL     1       8.599  -2.134  25.019  0.00  0.00    -0.241 OA
BRANCH   9  11
ATOM     11  O   UNL     1      10.273  -2.802  23.631  0.00  0.00    -0.475 OA
ATOM     12  H   UNL     1      11.099  -2.874  24.168  0.00  0.00    +0.296 HD
ENDBRANCH   9  11
ENDBRANCH   1   9
TORSDOF 3
ENDMDL
