MODEL 1
REMARK VINA RESULT:      -6.7      0.000      0.000
REMARK  Name = 
REMARK  4 active torsions:
REMARK  status: ('A' for Active; 'I' for Inactive)
REMARK    1  A    between atoms: C_1  and  C_2
REMARK    2  A    between atoms: C_1  and  O_8
REMARK    3  A    between atoms: C_2  and  N_3
REMARK    4  A    between atoms: O_8  and  C_9
REMARK                            x       y       z     vdW  Elec       q    Type
REMARK                         _______ _______ _______ _____ _____    ______ ____
ROOT
ATOM      1  C   UNL     1       9.980  -1.742  23.289  0.00  0.00    +0.121 A 
ATOM      2  C   UNL     1       9.554  -1.573  21.970  0.00  0.00    +0.047 A 
ATOM      3  C   UNL     1       9.520  -0.308  21.367  0.00  0.00    +0.030 A 
ATOM      4  C   UNL     1       9.909   0.788  22.147  0.00  0.00    +0.047 A 
ATOM      5  N   UNL     1       9.965   2.130  21.844  0.00  0.00    -0.361 N 
ATOM      6  H   UNL     1       9.716   2.527  20.949  0.00  0.00    +0.165 HD
ATOM      7  C   UNL     1      10.389   2.844  22.933  0.00  0.00    +0.083 A 
ATOM      8  C   UNL     1      10.624   1.954  23.954  0.00  0.00    +0.027 A 
ATOM      9  C   UNL     1      10.327   0.654  23.469  0.00  0.00    +0.003 A 
ATOM     10  C   UNL     1      10.368  -0.630  24.044  0.00  0.00    +0.055 A 
ENDROOT
BRANCH   1  11
ATOM     11  O   UNL     1       9.945  -3.032  23.761  0.00  0.00    -0.490 OA
BRANCH  11  12
ATOM     12  C   UNL     1       8.762  -3.386  24.482  0.00  0.00    +0.250 C 
BRANCH  12  13
ATOM     13  C   UNL     1       8.387  -4.828  24.177  0.00  0.00    +0.162 C 
BRANCH  13  14
ATOM     14  N   UNL     1       7.488  -4.897  23.039  0.00  0.00    -0.350 N 
ATOM     15  C   UNL     1       7.336  -5.981  22.214  0.00  0.00    +0.086 A 
ATOM     16  C   UNL     1       6.434  -5.640  21.229  0.00  0.00    +0.019 A 
ATOM     17  C   UNL     1       6.033  -4.303  21.470  0.00  0.00    +0.019 A 
ATOM     18  C   UNL     1       6.702  -3.868  22.592  0.00  0.00    +0.086 A 
ENDBRANCH  13  14
ENDBRANCH  12  13
ENDBRANCH  11  12
ENDBRANCH   1  11
TORSDOF 4
ENDMDL
MODEL 2
REMARK VINA RESULT:      -6.3      1.634      2.469
REMARK  Name = 
REMARK  4 active torsions:
REMARK  status: ('A' for Active; 'I' for Inactive)
REMARK    1  A    between atoms: C_1  and  C_2
REMARK    2  A    between atoms: C_1  and  O_8
REMARK    3  A    between atoms: C_2  and  N_3
REMARK    4  A    between atoms: O_8  and  C_9
REMARK                            x       y       z     vdW  Elec       q    Type
REMARK                         _______ _______ _______ _____ _____    ______ ____
ROOT
ATOM      1  C   UNL     1       9.611  -1.728  23.299  0.00  0.00    +0.121 A 
ATOM      2  C   UNL     1       9.283  -1.540  21.955  0.00  0.00    +0.047 A 
ATOM      3  C   UNL     1       9.416  -0.290  21.336  0.00  0.00    +0.030 A 
ATOM      4  C   UNL     1       9.871   0.775  22.124  0.00  0.00    +0.047 A 
ATOM      5  N   UNL     1      10.084   2.097  21.809  0.00  0.00    -0.361 N 
ATOM      6  H   UNL     1       9.931   2.502  20.896  0.00  0.00    +0.165 HD
ATOM      7  C   UNL     1      10.516   2.784  22.912  0.00  0.00    +0.083 A 
ATOM      8  C   UNL     1      10.597   1.894  23.957  0.00  0.00    +0.027 A 
ATOM      9  C   UNL     1      10.195   0.622  23.470  0.00  0.00    +0.003 A 
ATOM     10  C   UNL     1      10.068  -0.649  24.063  0.00  0.00    +0.055 A 
ENDROOT
BRANCH   1  11
ATOM     11  O   UNL     1       9.415  -2.999  23.783  0.00  0.00    -0.490 OA
BRANCH  11  12
ATOM     12  C   UNL     1       8.119  -3.551  23.538  0.00  0.00    +0.250 C 
BRANCH  12  13
ATOM     13  C   UNL     1       8.103  -5.019  23.937  0.00  0.00    +0.162 C 
BRANCH  13  14
ATOM     14  N   UNL     1       7.414  -5.202  25.202  0.00  0.00    -0.350 N 
ATOM     15  C   UNL     1       8.006  -5.172  26.438  0.00  0.00    +0.086 A 
ATOM     16  C   UNL     1       7.033  -5.436  27.379  0.00  0.00    +0.019 A 
ATOM     17  C   UNL     1       5.817  -5.637  26.682  0.00  0.00    +0.019 A 
ATOM     18  C   UNL     1       6.082  -5.490  25.338  0.00  0.00    +0.086 A 
ENDBRANCH  13  14
ENDBRANCH  12  13
ENDBRANCH  11  12
ENDBRANCH   1  11
TORSDOF 4
ENDMDL
MODEL 3
REMARK VINA RESULT:      -6.0      1.995      6.900
REMARK  Name = 
REMARK  4 active torsions:
REMARK  status: ('A' for Active; 'I' for Inactive)
REMARK    1  A    between atoms: C_1  and  C_2
REMARK    2  A    between atoms: C_1  and  O_8
REMARK    3  A    between atoms: C_2  and  N_3
REMARK    4  A    between atoms: O_8  and  C_9
REMARK                            x       y       z     vdW  Elec       q    Type
REMARK                         _______ _______ _______ _____ _____    ______ ____
ROOT
ATOM      1  C   UNL     1       9.076  -4.104  24.683  0.00  0.00    +0.121 A 
ATOM      2  C   UNL     1       9.217  -4.408  26.038  0.00  0.00    +0.047 A 
ATOM      3  C   UNL     1       8.226  -5.106  26.741  0.00  0.00    +0.030 A 
ATOM      4  C   UNL     1       7.072  -5.470  26.036  0.00  0.00    +0.047 A 
ATOM      5  N   UNL     1       5.940  -6.135  26.450  0.00  0.00    -0.361 N 
ATOM      6  H   UNL     1       5.786  -6.476  27.389  0.00  0.00    +0.165 HD
ATOM      7  C   UNL     1       5.053  -6.252  25.414  0.00  0.00    +0.083 A 
ATOM      8  C   UNL     1       5.620  -5.666  24.307  0.00  0.00    +0.027 A 
ATOM      9  C   UNL     1       6.895  -5.172  24.687  0.00  0.00    +0.003 A 
ATOM     10  C   UNL     1       7.914  -4.484  24.001  0.00  0.00    +0.055 A 
ENDROOT
BRANCH   1  11
ATOM     11  O   UNL     1      10.114  -3.400  24.123  0.00  0.00    -0.490 OA
BRANCH  11  12
ATOM     12  C   UNL     1       9.738  -2.200  23.440  0.00  0.00    +0.250 C 
BRANCH  12  13
ATOM     13  C   UNL     1       9.737  -1.034  24.417  0.00  0.00    +0.162 C 
BRANCH  13  14
ATOM     14  N   UNL     1       9.965   0.221  23.723  0.00  0.00    -0.350 N 
ATOM     15  C   UNL     1      10.302   1.407  24.320  0.00  0.00    +0.086 A 
ATOM     16  C   UNL     1      10.381   2.369  23.336  0.00  0.00    +0.019 A 
ATOM     17  C   UNL     1      10.076   1.738  22.105  0.00  0.00    +0.019 A 
ATOM     18  C   UNL     1       9.820   0.412  22.374  0.00  0.00    +0.086 A 
ENDBRANCH  13  14
ENDBRANCH  12  13
ENDBRANCH  11  12
ENDBRANCH   1  11
TORSDOF 4
ENDMDL
MODEL 4
REMARK VINA RESULT:      -5.9      1.936      2.808
REMARK  Name = 
REMARK  4 active torsions:
REMARK  status: ('A' for Active; 'I' for Inactive)
REMARK    1  A    between atoms: C_1  and  C_2
REMARK    2  A    between atoms: C_1  and  O_8
REMARK    3  A    between atoms: C_2  and  N_3
REMARK    4  A    between atoms: O_8  and  C_9
REMARK                            x       y       z     vdW  Elec       q    Type
REMARK                         _______ _______ _______ _____ _____    ______ ____
ROOT
ATOM      1  C   UNL     1       9.798  -1.746  23.326  0.00  0.00    +0.121 A 
ATOM      2  C   UNL     1       9.435  -1.569  21.989  0.00  0.00    +0.047 A 
ATOM      3  C   UNL     1       9.497  -0.312  21.373  0.00  0.00    +0.030 A 
ATOM      4  C   UNL     1       9.916   0.770  22.158  0.00  0.00    +0.047 A 
ATOM      5  N   UNL     1      10.060   2.103  21.845  0.00  0.00    -0.361 N 
ATOM      6  H   UNL     1       9.870   2.503  20.937  0.00  0.00    +0.165 HD
ATOM      7  C   UNL     1      10.480   2.805  22.943  0.00  0.00    +0.083 A 
ATOM      8  C   UNL     1      10.624   1.915  23.982  0.00  0.00    +0.027 A 
ATOM      9  C   UNL     1      10.273   0.628  23.497  0.00  0.00    +0.003 A 
ATOM     10  C   UNL     1      10.218  -0.649  24.086  0.00  0.00    +0.055 A 
ENDROOT
BRANCH   1  11
ATOM     11  O   UNL     1       9.671  -3.027  23.808  0.00  0.00    -0.490 OA
BRANCH  11  12
ATOM     12  C   UNL     1       8.404  -3.646  23.570  0.00  0.00    +0.250 C 
BRANCH  12  13
ATOM     13  C   UNL     1       7.576  -3.624  24.845  0.00  0.00    +0.162 C 
BRANCH  13  14
ATOM     14  N   UNL     1       7.008  -2.306  25.069  0.00  0.00    -0.350 N 
ATOM     15  C   UNL     1       6.191  -1.637  24.195  0.00  0.00    +0.086 A 
ATOM     16  C   UNL     1       5.905  -0.405  24.744  0.00  0.00    +0.019 A 
ATOM     17  C   UNL     1       6.577  -0.331  25.988  0.00  0.00    +0.019 A 
ATOM     18  C   UNL     1       7.253  -1.519  26.162  0.00  0.00    +0.086 A 
ENDBRANCH  13  14
ENDBRANCH  12  13
ENDBRANCH  11  12
ENDBRANCH   1  11
TORSDOF 4
ENDMDL
MODEL 5
REMARK VINA RESULT:      -5.8      2.105      6.953
REMARK  Name = 
REMARK  4 active torsions:
REMARK  status: ('A' for Active; 'I' for Inactive)
REMARK    1  A    between atoms: C_1  and  C_2
REMARK    2  A    between atoms: C_1  and  O_8
REMARK    3  A    between atoms: C_2  and  N_3
REMARK    4  A    between atoms: O_8  and  C_9
REMARK                            x       y       z     vdW  Elec       q    Type
REMARK                         _______ _______ _______ _____ _____    ______ ____
ROOT
ATOM      1  C   UNL     1       7.204  -4.044  22.731  0.00  0.00    +0.121 A 
ATOM      2  C   UNL     1       6.701  -4.834  21.695  0.00  0.00    +0.047 A 
ATOM      3  C   UNL     1       5.793  -5.873  21.940  0.00  0.00    +0.030 A 
ATOM      4  C   UNL     1       5.423  -6.105  23.271  0.00  0.00    +0.047 A 
ATOM      5  N   UNL     1       4.579  -7.045  23.816  0.00  0.00    -0.361 N 
ATOM      6  H   UNL     1       4.075  -7.741  23.284  0.00  0.00    +0.165 HD
ATOM      7  C   UNL     1       4.535  -6.910  25.178  0.00  0.00    +0.083 A 
ATOM      8  C   UNL     1       5.352  -5.859  25.523  0.00  0.00    +0.027 A 
ATOM      9  C   UNL     1       5.915  -5.343  24.327  0.00  0.00    +0.003 A 
ATOM     10  C   UNL     1       6.814  -4.294  24.051  0.00  0.00    +0.055 A 
ENDROOT
BRANCH   1  11
ATOM     11  O   UNL     1       8.101  -3.074  22.353  0.00  0.00    -0.490 OA
BRANCH  11  12
ATOM     12  C   UNL     1       8.747  -2.389  23.429  0.00  0.00    +0.250 C 
BRANCH  12  13
ATOM     13  C   UNL     1      10.119  -1.910  22.981  0.00  0.00    +0.162 C 
BRANCH  13  14
ATOM     14  N   UNL     1      10.143  -0.465  22.844  0.00  0.00    -0.350 N 
ATOM     15  C   UNL     1      10.521   0.418  23.821  0.00  0.00    +0.086 A 
ATOM     16  C   UNL     1      10.359   1.694  23.325  0.00  0.00    +0.019 A 
ATOM     17  C   UNL     1       9.861   1.572  22.005  0.00  0.00    +0.019 A 
ATOM     18  C   UNL     1       9.733   0.227  21.735  0.00  0.00    +0.086 A 
ENDBRANCH  13  14
ENDBRANCH  12  13
ENDBRANCH  11  12
ENDBRANCH   1  11
TORSDOF 4
ENDMDL
MODEL 6
REMARK VINA RESULT:      -5.7      1.676      2.368
REMARK  Name = 
REMARK  4 active torsions:
REMARK  status: ('A' for Active; 'I' for Inactive)
REMARK    1  A    between atoms: C_1  and  C_2
REMARK    2  A    between atoms: C_1  and  O_8
REMARK    3  A    between atoms: C_2  and  N_3
REMARK    4  A    between atoms: O_8  and  C_9
REMARK                            x       y       z     vdW  Elec       q    Type
REMARK                         _______ _______ _______ _____ _____    ______ ____
ROOT
ATOM      1  C   UNL     1      10.108   0.604  23.148  0.00  0.00    +0.121 A 
ATOM      2  C   UNL     1       9.434   0.631  21.925  0.00  0.00    +0.047 A 
ATOM      3  C   UNL     1       8.671   1.738  21.533  0.00  0.00    +0.030 A 
ATOM      4  C   UNL     1       8.589   2.814  22.426  0.00  0.00    +0.047 A 
ATOM      5  N   UNL     1       7.915   4.010  22.330  0.00  0.00    -0.361 N 
ATOM      6  H   UNL     1       7.352   4.290  21.540  0.00  0.00    +0.165 HD
ATOM      7  C   UNL     1       8.107   4.754  23.464  0.00  0.00    +0.083 A 
ATOM      8  C   UNL     1       8.927   4.038  24.303  0.00  0.00    +0.027 A 
ATOM      9  C   UNL     1       9.239   2.813  23.658  0.00  0.00    +0.003 A 
ATOM     10  C   UNL     1      10.013   1.694  24.020  0.00  0.00    +0.055 A 
ENDROOT
BRANCH   1  11
ATOM     11  O   UNL     1      10.803  -0.551  23.415  0.00  0.00    -0.490 OA
BRANCH  11  12
ATOM     12  C   UNL     1      10.243  -1.743  22.858  0.00  0.00    +0.250 C 
BRANCH  12  13
ATOM     13  C   UNL     1       9.666  -2.606  23.970  0.00  0.00    +0.162 C 
BRANCH  13  14
ATOM     14  N   UNL     1       8.535  -3.379  23.489  0.00  0.00    -0.350 N 
ATOM     15  C   UNL     1       8.161  -4.611  23.958  0.00  0.00    +0.086 A 
ATOM     16  C   UNL     1       7.078  -5.034  23.218  0.00  0.00    +0.019 A 
ATOM     17  C   UNL     1       6.795  -4.022  22.269  0.00  0.00    +0.019 A 
ATOM     18  C   UNL     1       7.713  -3.012  22.457  0.00  0.00    +0.086 A 
ENDBRANCH  13  14
ENDBRANCH  12  13
ENDBRANCH  11  12
ENDBRANCH   1  11
TORSDOF 4
ENDMDL
MODEL 7
REMARK VINA RESULT:      -5.6      2.157      3.570
REMARK  Name = 
REMARK  4 active torsions:
REMARK  status: ('A' for Active; 'I' for Inactive)
REMARK    1  A    between atoms: C_1  and  C_2
REMARK    2  A    between atoms: C_1  and  O_8
REMARK    3  A    between atoms: C_2  and  N_3
REMARK    4  A    between atoms: O_8  and  C_9
REMARK                            x       y       z     vdW  Elec       q    Type
REMARK                         _______ _______ _______ _____ _____    ______ ____
ROOT
ATOM      1  C   UNL     1       9.197   0.977  21.815  0.00  0.00    +0.121 A 
ATOM      2  C   UNL     1      10.157   1.367  22.750  0.00  0.00    +0.047 A 
ATOM      3  C   UNL     1      10.032   2.560  23.475  0.00  0.00    +0.030 A 
ATOM      4  C   UNL     1       8.914   3.362  23.208  0.00  0.00    +0.047 A 
ATOM      5  N   UNL     1       8.533   4.574  23.737  0.00  0.00    -0.361 N 
ATOM      6  H   UNL     1       9.049   5.079  24.444  0.00  0.00    +0.165 HD
ATOM      7  C   UNL     1       7.368   4.999  23.157  0.00  0.00    +0.083 A 
ATOM      8  C   UNL     1       6.979   4.045  22.246  0.00  0.00    +0.027 A 
ATOM      9  C   UNL     1       7.946   3.006  22.272  0.00  0.00    +0.003 A 
ATOM     10  C   UNL     1       8.088   1.794  21.570  0.00  0.00    +0.055 A 
ENDROOT
BRANCH   1  11
ATOM     11  O   UNL     1       9.454  -0.205  21.162  0.00  0.00    -0.490 OA
BRANCH  11  12
ATOM     12  C   UNL     1       9.681  -1.333  22.011  0.00  0.00    +0.250 C 
BRANCH  12  13
ATOM     13  C   UNL     1       8.375  -2.080  22.232  0.00  0.00    +0.162 C 
BRANCH  13  14
ATOM     14  N   UNL     1       8.527  -3.095  23.259  0.00  0.00    -0.350 N 
ATOM     15  C   UNL     1       9.483  -3.091  24.241  0.00  0.00    +0.086 A 
ATOM     16  C   UNL     1       9.330  -4.242  24.984  0.00  0.00    +0.019 A 
ATOM     17  C   UNL     1       8.247  -4.964  24.425  0.00  0.00    +0.019 A 
ATOM     18  C   UNL     1       7.772  -4.233  23.358  0.00  0.00    +0.086 A 
ENDBRANCH  13  14
ENDBRANCH  12  13
ENDBRANCH  11  12
ENDBRANCH   1  11
TORSDOF 4
ENDMDL
MODEL 8
REMARK VINA RESULT:      -5.5      2.076      3.141
REMARK  Name = 
REMARK  4 active torsions:
REMARK  status: ('A' for Active; 'I' for Inactive)
REMARK    1  A    between atoms: C_1  and  C_2
REMARK    2  A    between atoms: C_1  and  O_8
REMARK    3  A    between atoms: C_2  and  N_3
REMARK    4  A    between atoms: O_8  and  C_9
REMARK                            x       y       z     vdW  Elec       q    Type
REMARK                         _______ _______ _______ _____ _____    ______ ____
ROOT
ATOM      1  C   UNL     1       8.575  -1.005  22.416  0.00  0.00    +0.121 A 
ATOM      2  C   UNL     1       9.716  -0.365  21.929  0.00  0.00    +0.047 A 
ATOM      3  C   UNL     1       9.761   1.026  21.761  0.00  0.00    +0.030 A 
ATOM      4  C   UNL     1       8.606   1.751  22.081  0.00  0.00    +0.047 A 
ATOM      5  N   UNL     1       8.345   3.100  22.007  0.00  0.00    -0.361 N 
ATOM      6  H   UNL     1       9.007   3.796  21.691  0.00  0.00    +0.165 HD
ATOM      7  C   UNL     1       7.061   3.357  22.406  0.00  0.00    +0.083 A 
ATOM      8  C   UNL     1       6.482   2.161  22.756  0.00  0.00    +0.027 A 
ATOM      9  C   UNL     1       7.449   1.141  22.557  0.00  0.00    +0.003 A 
ATOM     10  C   UNL     1       7.436  -0.256  22.732  0.00  0.00    +0.055 A 
ENDROOT
BRANCH   1  11
ATOM     11  O   UNL     1       8.661  -2.374  22.513  0.00  0.00    -0.490 OA
BRANCH  11  12
ATOM     12  C   UNL     1       7.426  -3.044  22.777  0.00  0.00    +0.250 C 
BRANCH  12  13
ATOM     13  C   UNL     1       7.696  -4.502  23.114  0.00  0.00    +0.162 C 
BRANCH  13  14
ATOM     14  N   UNL     1       7.994  -4.659  24.526  0.00  0.00    -0.350 N 
ATOM     15  C   UNL     1       7.066  -4.873  25.513  0.00  0.00    +0.086 A 
ATOM     16  C   UNL     1       7.734  -4.917  26.718  0.00  0.00    +0.019 A 
ATOM     17  C   UNL     1       9.109  -4.719  26.445  0.00  0.00    +0.019 A 
ATOM     18  C   UNL     1       9.241  -4.559  25.083  0.00  0.00    +0.086 A 
ENDBRANCH  13  14
ENDBRANCH  12  13
ENDBRANCH  11  12
ENDBRANCH   1  11
TORSDOF 4
ENDMDL
MODEL 9
REMARK VINA RESULT:      -5.5      1.948      2.217
REMARK  Name = 
REMARK  4 active torsions:
REMARK  status: ('A' for Active; 'I' for Inactive)
REMARK    1  A    between atoms: C_1  and  C_2
REMARK    2  A    between atoms: C_1  and  O_8
REMARK    3  A    between atoms: C_2  and  N_3
REMARK    4  A    between atoms: O_8  and  C_9
REMARK                            x       y       z     vdW  Elec       q    Type
REMARK                         _______ _______ _______ _____ _____    ______ ____
ROOT
ATOM      1  C   UNL     1       8.693  -0.708  22.580  0.00  0.00    +0.121 A 
ATOM      2  C   UNL     1       9.837  -0.029  22.156  0.00  0.00    +0.047 A 
ATOM      3  C   UNL     1       9.827   1.353  21.926  0.00  0.00    +0.030 A 
ATOM      4  C   UNL     1       8.616   2.029  22.117  0.00  0.00    +0.047 A 
ATOM      5  N   UNL     1       8.295   3.358  21.958  0.00  0.00    -0.361 N 
ATOM      6  H   UNL     1       8.945   4.074  21.664  0.00  0.00    +0.165 HD
ATOM      7  C   UNL     1       6.971   3.564  22.241  0.00  0.00    +0.083 A 
ATOM      8  C   UNL     1       6.425   2.354  22.600  0.00  0.00    +0.027 A 
ATOM      9  C   UNL     1       7.454   1.380  22.528  0.00  0.00    +0.003 A 
ATOM     10  C   UNL     1       7.497  -0.007  22.768  0.00  0.00    +0.055 A 
ENDROOT
BRANCH   1  11
ATOM     11  O   UNL     1       8.838  -2.064  22.748  0.00  0.00    -0.490 OA
BRANCH  11  12
ATOM     12  C   UNL     1       7.948  -2.659  23.697  0.00  0.00    +0.250 C 
BRANCH  12  13
ATOM     13  C   UNL     1       8.212  -4.154  23.779  0.00  0.00    +0.162 C 
BRANCH  13  14
ATOM     14  N   UNL     1       7.160  -4.901  23.113  0.00  0.00    -0.350 N 
ATOM     15  C   UNL     1       7.209  -5.360  21.822  0.00  0.00    +0.086 A 
ATOM     16  C   UNL     1       6.006  -5.974  21.545  0.00  0.00    +0.019 A 
ATOM     17  C   UNL     1       5.205  -5.875  22.709  0.00  0.00    +0.019 A 
ATOM     18  C   UNL     1       5.942  -5.205  23.661  0.00  0.00    +0.086 A 
ENDBRANCH  13  14
ENDBRANCH  12  13
ENDBRANCH  11  12
ENDBRANCH   1  11
TORSDOF 4
ENDMDL
