MODEL 1
REMARK VINA RESULT:      -7.9      0.000      0.000
REMARK  Name = 
REMARK  7 active torsions:
REMARK  status: ('A' for Active; 'I' for Inactive)
REMARK    1  A    between atoms: C_1  and  N_2
REMARK    2  A    between atoms: N_2  and  C_3
REMARK    3  A    between atoms: N_6  and  C_7
REMARK    4  A    between atoms: C_11  and  C_13
REMARK    5  A    between atoms: C_13  and  C_14
REMARK    6  A    between atoms: C_14  and  N_15
REMARK    7  A    between atoms: N_18  and  C_21
REMARK                            x       y       z     vdW  Elec       q    Type
REMARK                         _______ _______ _______ _____ _____    ______ ____
ROOT
ATOM      1  C   UNL     1       9.593  -1.504  22.959  0.00  0.00    +0.085 C 
ENDROOT
BRANCH   1   2
ATOM      2  N   UNL     1       8.662  -0.421  23.322  0.00  0.00    -0.299 NA
ATOM      3  C   UNL     1       8.620   0.597  22.241  0.00  0.00    +0.103 C 
ATOM      4  C   UNL     1       9.928   1.412  22.071  0.00  0.00    +0.120 C 
ATOM      5  N   UNL     1      10.362   2.009  23.351  0.00  0.00    -0.326 N 
ATOM      6  C   UNL     1      10.352   1.080  24.501  0.00  0.00    +0.120 C 
ATOM      7  C   UNL     1       9.029   0.287  24.566  0.00  0.00    +0.103 C 
BRANCH   5   8
ATOM      8  C   UNL     1      10.569   3.378  23.521  0.00  0.00    +0.050 A 
ATOM      9  C   UNL     1      11.864   3.906  23.335  0.00  0.00    +0.025 A 
ATOM     10  C   UNL     1      12.155   5.268  23.450  0.00  0.00    +0.003 A 
ATOM     11  C   UNL     1      11.140   6.171  23.716  0.00  0.00    +0.021 A 
ATOM     12  C   UNL     1       9.844   5.705  23.919  0.00  0.00    +0.061 A 
ATOM     13 CL   UNL     1       8.631   6.906  24.230  0.00  0.00    -0.082 Cl
ATOM     14  C   UNL     1       9.558   4.322  23.868  0.00  0.00    +0.080 A 
ATOM     15 CL   UNL     1       7.966   3.811  24.386  0.00  0.00    -0.080 Cl
ENDBRANCH   5   8
ENDBRANCH   1   2
BRANCH   1  16
ATOM     16  C   UNL     1       9.559  -2.705  23.907  0.00  0.00    +0.019 C 
BRANCH  16  20
ATOM     17  C   UNL     1       8.069  -4.878  26.541  0.00  0.00    +0.074 C 
ATOM     18  C   UNL     1       7.815  -3.366  26.449  0.00  0.00    +0.022 C 
ATOM     19  C   UNL     1       7.269  -2.964  25.077  0.00  0.00    +0.005 C 
ATOM     20  C   UNL     1       8.190  -3.421  23.935  0.00  0.00    -0.010 C 
ATOM     21  C   UNL     1       8.393  -4.944  24.011  0.00  0.00    +0.005 C 
ATOM     22  C   UNL     1       8.921  -5.395  25.377  0.00  0.00    +0.022 C 
BRANCH  17  26
ATOM     23  C   UNL     1       4.262  -6.928  28.817  0.00  0.00    +0.133 C 
ATOM     24  N   UNL     1       4.937  -6.521  27.600  0.00  0.00    -0.292 N 
ATOM     25  C   UNL     1       6.152  -5.867  27.753  0.00  0.00    +0.302 C 
ATOM     26  N   UNL     1       6.812  -5.612  26.573  0.00  0.00    -0.296 N 
ATOM     27  H   UNL     1       6.227  -5.536  25.758  0.00  0.00    +0.151 HD
ATOM     28  O   UNL     1       6.614  -5.567  28.850  0.00  0.00    -0.253 OA
ATOM     29  C   UNL     1       4.423  -7.012  26.331  0.00  0.00    +0.133 C 
ENDBRANCH  17  26
ENDBRANCH  16  20
ENDBRANCH   1  16
TORSDOF 5
ENDMDL
MODEL 2
REMARK VINA RESULT:      -7.7      2.454      2.981
REMARK  Name = 
REMARK  7 active torsions:
REMARK  status: ('A' for Active; 'I' for Inactive)
REMARK    1  A    between atoms: C_1  and  N_2
REMARK    2  A    between atoms: N_2  and  C_3
REMARK    3  A    between atoms: N_6  and  C_7
REMARK    4  A    between atoms: C_11  and  C_13
REMARK    5  A    between atoms: C_13  and  C_14
REMARK    6  A    between atoms: C_14  and  N_15
REMARK    7  A    between atoms: N_18  and  C_21
REMARK                            x       y       z     vdW  Elec       q    Type
REMARK                         _______ _______ _______ _____ _____    ______ ____
ROOT
ATOM      1  C   UNL     1       7.946  -1.519  22.693  0.00  0.00    +0.085 C 
ENDROOT
BRANCH   1   2
ATOM      2  N   UNL     1       9.327  -1.049  22.489  0.00  0.00    -0.299 NA
ATOM      3  C   UNL     1       9.885  -0.537  23.766  0.00  0.00    +0.103 C 
ATOM      4  C   UNL     1       9.229   0.771  24.278  0.00  0.00    +0.120 C 
ATOM      5  N   UNL     1       9.231   1.819  23.237  0.00  0.00    -0.326 N 
ATOM      6  C   UNL     1       8.767   1.368  21.906  0.00  0.00    +0.120 C 
ATOM      7  C   UNL     1       9.445   0.043  21.499  0.00  0.00    +0.103 C 
BRANCH   5   8
ATOM      8  C   UNL     1       9.809   3.074  23.420  0.00  0.00    +0.050 A 
ATOM      9  C   UNL     1      11.204   3.219  23.262  0.00  0.00    +0.025 A 
ATOM     10  C   UNL     1      11.863   4.445  23.391  0.00  0.00    +0.003 A 
ATOM     11  C   UNL     1      11.135   5.596  23.642  0.00  0.00    +0.021 A 
ATOM     12  C   UNL     1       9.756   5.512  23.817  0.00  0.00    +0.061 A 
ATOM     13 CL   UNL     1       8.923   7.004  24.110  0.00  0.00    -0.082 Cl
ATOM     14  C   UNL     1       9.096   4.264  23.751  0.00  0.00    +0.080 A 
ATOM     15 CL   UNL     1       7.414   4.219  24.235  0.00  0.00    -0.080 Cl
ENDBRANCH   5   8
ENDBRANCH   1   2
BRANCH   1  16
ATOM     16  C   UNL     1       7.728  -2.995  22.353  0.00  0.00    +0.019 C 
BRANCH  16  20
ATOM     17  C   UNL     1       5.677  -5.844  23.604  0.00  0.00    +0.074 C 
ATOM     18  C   UNL     1       5.721  -4.469  24.287  0.00  0.00    +0.022 C 
ATOM     19  C   UNL     1       5.356  -3.342  23.320  0.00  0.00    +0.005 C 
ATOM     20  C   UNL     1       6.249  -3.343  22.070  0.00  0.00    -0.010 C 
ATOM     21  C   UNL     1       6.154  -4.709  21.368  0.00  0.00    +0.005 C 
ATOM     22  C   UNL     1       6.493  -5.872  22.306  0.00  0.00    +0.022 C 
BRANCH  17  26
ATOM     23  C   UNL     1       1.564  -8.339  24.457  0.00  0.00    +0.133 C 
ATOM     24  N   UNL     1       2.298  -7.324  23.727  0.00  0.00    -0.292 N 
ATOM     25  C   UNL     1       3.615  -7.113  24.111  0.00  0.00    +0.302 C 
ATOM     26  N   UNL     1       4.305  -6.231  23.310  0.00  0.00    -0.296 N 
ATOM     27  H   UNL     1       3.741  -5.554  22.826  0.00  0.00    +0.151 HD
ATOM     28  O   UNL     1       4.131  -7.684  25.067  0.00  0.00    -0.253 OA
ATOM     29  C   UNL     1       1.694  -6.772  22.524  0.00  0.00    +0.133 C 
ENDBRANCH  17  26
ENDBRANCH  16  20
ENDBRANCH   1  16
TORSDOF 5
ENDMDL
MODEL 3
REMARK VINA RESULT:      -7.6      3.978      9.913
REMARK  Name = 
REMARK  7 active torsions:
REMARK  status: ('A' for Active; 'I' for Inactive)
REMARK    1  A    between atoms: C_1  and  N_2
REMARK    2  A    between atoms: N_2  and  C_3
REMARK    3  A    between atoms: N_6  and  C_7
REMARK    4  A    between atoms: C_11  and  C_13
REMARK    5  A    between atoms: C_13  and  C_14
REMARK    6  A    between atoms: C_14  and  N_15
REMARK    7  A    between atoms: N_18  and  C_21
REMARK                            x       y       z     vdW  Elec       q    Type
REMARK                         _______ _______ _______ _____ _____    ______ ____
ROOT
ATOM      1  C   UNL     1       9.659  -2.234  23.199  0.00  0.00    +0.085 C 
ENDROOT
BRANCH   1   2
ATOM      2  N   UNL     1       9.264  -2.526  24.589  0.00  0.00    -0.299 NA
ATOM      3  C   UNL     1       9.439  -3.972  24.875  0.00  0.00    +0.103 C 
ATOM      4  C   UNL     1       8.460  -4.903  24.116  0.00  0.00    +0.120 C 
ATOM      5  N   UNL     1       7.056  -4.487  24.313  0.00  0.00    -0.326 N 
ATOM      6  C   UNL     1       6.810  -3.040  24.128  0.00  0.00    +0.120 C 
ATOM      7  C   UNL     1       7.855  -2.195  24.889  0.00  0.00    +0.103 C 
BRANCH   5   8
ATOM      8  C   UNL     1       6.075  -5.332  24.829  0.00  0.00    +0.050 A 
ATOM      9  C   UNL     1       5.140  -5.919  23.949  0.00  0.00    +0.025 A 
ATOM     10  C   UNL     1       4.147  -6.806  24.374  0.00  0.00    +0.003 A 
ATOM     11  C   UNL     1       4.078  -7.179  25.706  0.00  0.00    +0.021 A 
ATOM     12  C   UNL     1       4.969  -6.624  26.621  0.00  0.00    +0.061 A 
ATOM     13 CL   UNL     1       4.822  -7.160  28.264  0.00  0.00    -0.082 Cl
ATOM     14  C   UNL     1       5.933  -5.677  26.206  0.00  0.00    +0.080 A 
ATOM     15 CL   UNL     1       6.833  -4.847  27.456  0.00  0.00    -0.080 Cl
ENDBRANCH   5   8
ENDBRANCH   1   2
BRANCH   1  16
ATOM     16  C   UNL     1       9.138  -0.898  22.665  0.00  0.00    +0.019 C 
BRANCH  16  20
ATOM     17  C   UNL     1       8.620   2.649  23.682  0.00  0.00    +0.074 C 
ATOM     18  C   UNL     1       9.025   1.538  24.663  0.00  0.00    +0.022 C 
ATOM     19  C   UNL     1      10.297   0.818  24.212  0.00  0.00    +0.005 C 
ATOM     20  C   UNL     1      10.165   0.250  22.791  0.00  0.00    -0.010 C 
ATOM     21  C   UNL     1       9.810   1.383  21.813  0.00  0.00    +0.005 C 
ATOM     22  C   UNL     1       8.551   2.147  22.235  0.00  0.00    +0.022 C 
BRANCH  17  26
ATOM     23  C   UNL     1       9.993   7.108  25.133  0.00  0.00    +0.133 C 
ATOM     24  N   UNL     1      10.289   5.840  24.493  0.00  0.00    -0.292 N 
ATOM     25  C   UNL     1       9.267   4.900  24.478  0.00  0.00    +0.302 C 
ATOM     26  N   UNL     1       9.552   3.765  23.754  0.00  0.00    -0.296 N 
ATOM     27  H   UNL     1      10.529   3.541  23.666  0.00  0.00    +0.151 HD
ATOM     28  O   UNL     1       8.189   5.077  25.038  0.00  0.00    -0.253 OA
ATOM     29  C   UNL     1      11.522   5.726  23.732  0.00  0.00    +0.133 C 
ENDBRANCH  17  26
ENDBRANCH  16  20
ENDBRANCH   1  16
TORSDOF 5
ENDMDL
MODEL 4
REMARK VINA RESULT:      -7.5      4.132     10.004
REMARK  Name = 
REMARK  7 active torsions:
REMARK  status: ('A' for Active; 'I' for Inactive)
REMARK    1  A    between atoms: C_1  and  N_2
REMARK    2  A    between atoms: N_2  and  C_3
REMARK    3  A    between atoms: N_6  and  C_7
REMARK    4  A    between atoms: C_11  and  C_13
REMARK    5  A    between atoms: C_13  and  C_14
REMARK    6  A    between atoms: C_14  and  N_15
REMARK    7  A    between atoms: N_18  and  C_21
REMARK                            x       y       z     vdW  Elec       q    Type
REMARK                         _______ _______ _______ _____ _____    ______ ____
ROOT
ATOM      1  C   UNL     1       9.664  -2.325  23.671  0.00  0.00    +0.085 C 
ENDROOT
BRANCH   1   2
ATOM      2  N   UNL     1       8.987  -2.480  24.971  0.00  0.00    -0.299 NA
ATOM      3  C   UNL     1       9.171  -3.864  25.478  0.00  0.00    +0.103 C 
ATOM      4  C   UNL     1       8.434  -4.954  24.659  0.00  0.00    +0.120 C 
ATOM      5  N   UNL     1       7.002  -4.631  24.497  0.00  0.00    -0.326 N 
ATOM      6  C   UNL     1       6.726  -3.241  24.073  0.00  0.00    +0.120 C 
ATOM      7  C   UNL     1       7.532  -2.231  24.918  0.00  0.00    +0.103 C 
BRANCH   5   8
ATOM      8  C   UNL     1       5.977  -5.486  24.901  0.00  0.00    +0.050 A 
ATOM      9  C   UNL     1       5.915  -5.895  26.251  0.00  0.00    +0.025 A 
ATOM     10  C   UNL     1       4.903  -6.720  26.751  0.00  0.00    +0.003 A 
ATOM     11  C   UNL     1       3.877  -7.136  25.919  0.00  0.00    +0.021 A 
ATOM     12  C   UNL     1       3.892  -6.771  24.576  0.00  0.00    +0.061 A 
ATOM     13 CL   UNL     1       2.561  -7.322  23.611  0.00  0.00    -0.082 Cl
ATOM     14  C   UNL     1       4.949  -5.991  24.052  0.00  0.00    +0.080 A 
ATOM     15 CL   UNL     1       5.019  -5.798  22.314  0.00  0.00    -0.080 Cl
ENDBRANCH   5   8
ENDBRANCH   1   2
BRANCH   1  16
ATOM     16  C   UNL     1       9.246  -1.076  22.891  0.00  0.00    +0.019 C 
BRANCH  16  20
ATOM     17  C   UNL     1       8.686   2.555  23.510  0.00  0.00    +0.074 C 
ATOM     18  C   UNL     1       8.995   1.545  24.625  0.00  0.00    +0.022 C 
ATOM     19  C   UNL     1      10.291   0.779  24.356  0.00  0.00    +0.005 C 
ATOM     20  C   UNL     1      10.272   0.076  22.991  0.00  0.00    -0.010 C 
ATOM     21  C   UNL     1      10.014   1.109  21.880  0.00  0.00    +0.005 C 
ATOM     22  C   UNL     1       8.732   1.915  22.118  0.00  0.00    +0.022 C 
BRANCH  17  26
ATOM     23  C   UNL     1      10.127   7.000  24.940  0.00  0.00    +0.133 C 
ATOM     24  N   UNL     1      10.392   5.738  24.277  0.00  0.00    -0.292 N 
ATOM     25  C   UNL     1       9.370   4.799  24.297  0.00  0.00    +0.302 C 
ATOM     26  N   UNL     1       9.622   3.670  23.551  0.00  0.00    -0.296 N 
ATOM     27  H   UNL     1      10.593   3.446  23.419  0.00  0.00    +0.151 HD
ATOM     28  O   UNL     1       8.318   4.971  24.905  0.00  0.00    -0.253 OA
ATOM     29  C   UNL     1      11.591   5.630  23.461  0.00  0.00    +0.133 C 
ENDBRANCH  17  26
ENDBRANCH  16  20
ENDBRANCH   1  16
TORSDOF 5
ENDMDL
MODEL 5
REMARK VINA RESULT:      -7.4      2.207      2.623
REMARK  Name = 
REMARK  7 active torsions:
REMARK  status: ('A' for Active; 'I' for Inactive)
REMARK    1  A    between atoms: C_1  and  N_2
REMARK    2  A    between atoms: N_2  and  C_3
REMARK    3  A    between atoms: N_6  and  C_7
REMARK    4  A    between atoms: C_11  and  C_13
REMARK    5  A    between atoms: C_13  and  C_14
REMARK    6  A    between atoms: C_14  and  N_15
REMARK    7  A    between atoms: N_18  and  C_21
REMARK                            x       y       z     vdW  Elec       q    Type
REMARK                         _______ _______ _______ _____ _____    ______ ____
ROOT
ATOM      1  C   UNL     1       9.182  -1.606  23.001  0.00  0.00    +0.085 C 
ENDROOT
BRANCH   1   2
ATOM      2  N   UNL     1       8.311  -0.499  23.435  0.00  0.00    -0.299 NA
ATOM      3  C   UNL     1       8.221   0.528  22.367  0.00  0.00    +0.103 C 
ATOM      4  C   UNL     1       9.537   1.307  22.109  0.00  0.00    +0.120 C 
ATOM      5  N   UNL     1      10.077   1.882  23.358  0.00  0.00    -0.326 N 
ATOM      6  C   UNL     1      10.122   0.943  24.501  0.00  0.00    +0.120 C 
ATOM      7  C   UNL     1       8.784   0.188  24.655  0.00  0.00    +0.103 C 
BRANCH   5   8
ATOM      8  C   UNL     1      10.334   3.242  23.521  0.00  0.00    +0.050 A 
ATOM      9  C   UNL     1      11.647   3.722  23.323  0.00  0.00    +0.025 A 
ATOM     10  C   UNL     1      11.988   5.074  23.430  0.00  0.00    +0.003 A 
ATOM     11  C   UNL     1      11.009   6.014  23.700  0.00  0.00    +0.021 A 
ATOM     12  C   UNL     1       9.697   5.596  23.915  0.00  0.00    +0.061 A 
ATOM     13 CL   UNL     1       8.532   6.842  24.229  0.00  0.00    -0.082 Cl
ATOM     14  C   UNL     1       9.361   4.224  23.871  0.00  0.00    +0.080 A 
ATOM     15 CL   UNL     1       7.756   3.773  24.403  0.00  0.00    -0.080 Cl
ENDBRANCH   5   8
ENDBRANCH   1   2
BRANCH   1  16
ATOM     16  C   UNL     1       8.495  -2.973  22.973  0.00  0.00    +0.019 C 
BRANCH  16  20
ATOM     17  C   UNL     1       5.968  -5.704  23.173  0.00  0.00    +0.074 C 
ATOM     18  C   UNL     1       6.593  -5.038  24.408  0.00  0.00    +0.022 C 
ATOM     19  C   UNL     1       6.405  -3.520  24.392  0.00  0.00    +0.005 C 
ATOM     20  C   UNL     1       6.957  -2.885  23.108  0.00  0.00    -0.010 C 
ATOM     21  C   UNL     1       6.284  -3.525  21.882  0.00  0.00    +0.005 C 
ATOM     22  C   UNL     1       6.430  -5.050  21.866  0.00  0.00    +0.022 C 
BRANCH  17  26
ATOM     23  C   UNL     1       1.597  -7.398  24.551  0.00  0.00    +0.133 C 
ATOM     24  N   UNL     1       2.420  -6.367  23.948  0.00  0.00    -0.292 N 
ATOM     25  C   UNL     1       3.789  -6.598  23.931  0.00  0.00    +0.302 C 
ATOM     26  N   UNL     1       4.514  -5.654  23.240  0.00  0.00    -0.296 N 
ATOM     27  H   UNL     1       4.093  -4.742  23.181  0.00  0.00    +0.151 HD
ATOM     28  O   UNL     1       4.308  -7.576  24.460  0.00  0.00    -0.253 OA
ATOM     29  C   UNL     1       1.757  -5.298  23.219  0.00  0.00    +0.133 C 
ENDBRANCH  17  26
ENDBRANCH  16  20
ENDBRANCH   1  16
TORSDOF 5
ENDMDL
MODEL 6
REMARK VINA RESULT:      -7.3      1.520      2.151
REMARK  Name = 
REMARK  7 active torsions:
REMARK  status: ('A' for Active; 'I' for Inactive)
REMARK    1  A    between atoms: C_1  and  N_2
REMARK    2  A    between atoms: N_2  and  C_3
REMARK    3  A    between atoms: N_6  and  C_7
REMARK    4  A    between atoms: C_11  and  C_13
REMARK    5  A    between atoms: C_13  and  C_14
REMARK    6  A    between atoms: C_14  and  N_15
REMARK    7  A    between atoms: N_18  and  C_21
REMARK                            x       y       z     vdW  Elec       q    Type
REMARK                         _______ _______ _______ _____ _____    ______ ____
ROOT
ATOM      1  C   UNL     1       8.118  -0.838  22.524  0.00  0.00    +0.085 C 
ENDROOT
BRANCH   1   2
ATOM      2  N   UNL     1       9.403  -0.169  22.795  0.00  0.00    -0.299 NA
ATOM      3  C   UNL     1       9.383   0.444  24.147  0.00  0.00    +0.103 C 
ATOM      4  C   UNL     1       8.417   1.647  24.296  0.00  0.00    +0.120 C 
ATOM      5  N   UNL     1       8.657   2.665  23.253  0.00  0.00    -0.326 N 
ATOM      6  C   UNL     1       8.774   2.126  21.880  0.00  0.00    +0.120 C 
ATOM      7  C   UNL     1       9.725   0.911  21.838  0.00  0.00    +0.103 C 
BRANCH   5   8
ATOM      8  C   UNL     1       8.956   3.996  23.541  0.00  0.00    +0.050 A 
ATOM      9  C   UNL     1       7.900   4.925  23.669  0.00  0.00    +0.025 A 
ATOM     10  C   UNL     1       8.105   6.270  23.992  0.00  0.00    +0.003 A 
ATOM     11  C   UNL     1       9.385   6.733  24.245  0.00  0.00    +0.021 A 
ATOM     12  C   UNL     1      10.465   5.862  24.124  0.00  0.00    +0.061 A 
ATOM     13 CL   UNL     1      12.031   6.521  24.475  0.00  0.00    -0.082 Cl
ATOM     14  C   UNL     1      10.268   4.518  23.734  0.00  0.00    +0.080 A 
ATOM     15 CL   UNL     1      11.694   3.573  23.360  0.00  0.00    -0.080 Cl
ENDBRANCH   5   8
ENDBRANCH   1   2
BRANCH   1  16
ATOM     16  C   UNL     1       8.237  -2.337  22.242  0.00  0.00    +0.019 C 
BRANCH  16  20
ATOM     17  C   UNL     1       7.756  -4.506  25.233  0.00  0.00    +0.074 C 
ATOM     18  C   UNL     1       7.372  -3.019  25.196  0.00  0.00    +0.022 C 
ATOM     19  C   UNL     1       6.419  -2.706  24.042  0.00  0.00    +0.005 C 
ATOM     20  C   UNL     1       6.994  -3.142  22.686  0.00  0.00    -0.010 C 
ATOM     21  C   UNL     1       7.325  -4.644  22.722  0.00  0.00    +0.005 C 
ATOM     22  C   UNL     1       8.264  -5.007  23.877  0.00  0.00    +0.022 C 
BRANCH  17  26
ATOM     23  C   UNL     1       5.037  -6.848  28.550  0.00  0.00    +0.133 C 
ATOM     24  N   UNL     1       5.247  -6.371  27.196  0.00  0.00    -0.292 N 
ATOM     25  C   UNL     1       6.407  -5.643  26.968  0.00  0.00    +0.302 C 
ATOM     26  N   UNL     1       6.622  -5.320  25.647  0.00  0.00    -0.296 N 
ATOM     27  H   UNL     1       5.797  -5.266  25.074  0.00  0.00    +0.151 HD
ATOM     28  O   UNL     1       7.189  -5.336  27.861  0.00  0.00    -0.253 OA
ATOM     29  C   UNL     1       4.369  -6.869  26.149  0.00  0.00    +0.133 C 
ENDBRANCH  17  26
ENDBRANCH  16  20
ENDBRANCH   1  16
TORSDOF 5
ENDMDL
MODEL 7
REMARK VINA RESULT:      -7.3      2.863      3.571
REMARK  Name = 
REMARK  7 active torsions:
REMARK  status: ('A' for Active; 'I' for Inactive)
REMARK    1  A    between atoms: C_1  and  N_2
REMARK    2  A    between atoms: N_2  and  C_3
REMARK    3  A    between atoms: N_6  and  C_7
REMARK    4  A    between atoms: C_11  and  C_13
REMARK    5  A    between atoms: C_13  and  C_14
REMARK    6  A    between atoms: C_14  and  N_15
REMARK    7  A    between atoms: N_18  and  C_21
REMARK                            x       y       z     vdW  Elec       q    Type
REMARK                         _______ _______ _______ _____ _____    ______ ____
ROOT
ATOM      1  C   UNL     1       8.351  -2.085  22.234  0.00  0.00    +0.085 C 
ENDROOT
BRANCH   1   2
ATOM      2  N   UNL     1       9.353  -1.198  22.852  0.00  0.00    -0.299 NA
ATOM      3  C   UNL     1       8.746  -0.455  23.985  0.00  0.00    +0.103 C 
ATOM      4  C   UNL     1       7.678   0.591  23.572  0.00  0.00    +0.120 C 
ATOM      5  N   UNL     1       8.199   1.516  22.544  0.00  0.00    -0.326 N 
ATOM      6  C   UNL     1       8.895   0.858  21.417  0.00  0.00    +0.120 C 
ATOM      7  C   UNL     1       9.908  -0.191  21.924  0.00  0.00    +0.103 C 
BRANCH   5   8
ATOM      8  C   UNL     1       8.222   2.901  22.707  0.00  0.00    +0.050 A 
ATOM      9  C   UNL     1       7.135   3.667  22.233  0.00  0.00    +0.025 A 
ATOM     10  C   UNL     1       7.058   5.055  22.385  0.00  0.00    +0.003 A 
ATOM     11  C   UNL     1       8.056   5.732  23.064  0.00  0.00    +0.021 A 
ATOM     12  C   UNL     1       9.157   5.028  23.546  0.00  0.00    +0.061 A 
ATOM     13 CL   UNL     1      10.352   5.951  24.399  0.00  0.00    -0.082 Cl
ATOM     14  C   UNL     1       9.270   3.634  23.337  0.00  0.00    +0.080 A 
ATOM     15 CL   UNL     1      10.796   2.882  23.745  0.00  0.00    -0.080 Cl
ENDBRANCH   5   8
ENDBRANCH   1   2
BRANCH   1  16
ATOM     16  C   UNL     1       7.729  -3.098  23.199  0.00  0.00    +0.019 C 
BRANCH  16  20
ATOM     17  C   UNL     1       5.441  -6.038  23.261  0.00  0.00    +0.074 C 
ATOM     18  C   UNL     1       5.827  -5.240  24.516  0.00  0.00    +0.022 C 
ATOM     19  C   UNL     1       5.515  -3.751  24.362  0.00  0.00    +0.005 C 
ATOM     20  C   UNL     1       6.186  -3.147  23.119  0.00  0.00    -0.010 C 
ATOM     21  C   UNL     1       5.749  -3.924  21.865  0.00  0.00    +0.005 C 
ATOM     22  C   UNL     1       6.026  -5.426  21.983  0.00  0.00    +0.022 C 
BRANCH  17  26
ATOM     23  C   UNL     1       1.063  -7.947  24.291  0.00  0.00    +0.133 C 
ATOM     24  N   UNL     1       1.881  -6.933  23.654  0.00  0.00    -0.292 N 
ATOM     25  C   UNL     1       3.252  -7.029  23.851  0.00  0.00    +0.302 C 
ATOM     26  N   UNL     1       3.994  -6.122  23.129  0.00  0.00    -0.296 N 
ATOM     27  H   UNL     1       3.515  -5.273  22.879  0.00  0.00    +0.151 HD
ATOM     28  O   UNL     1       3.764  -7.869  24.585  0.00  0.00    -0.253 OA
ATOM     29  C   UNL     1       1.250  -6.044  22.692  0.00  0.00    +0.133 C 
ENDBRANCH  17  26
ENDBRANCH  16  20
ENDBRANCH   1  16
TORSDOF 5
ENDMDL
MODEL 8
REMARK VINA RESULT:      -7.2      4.049      9.975
REMARK  Name = 
REMARK  7 active torsions:
REMARK  status: ('A' for Active; 'I' for Inactive)
REMARK    1  A    between atoms: C_1  and  N_2
REMARK    2  A    between atoms: N_2  and  C_3
REMARK    3  A    between atoms: N_6  and  C_7
REMARK    4  A    between atoms: C_11  and  C_13
REMARK    5  A    between atoms: C_13  and  C_14
REMARK    6  A    between atoms: C_14  and  N_15
REMARK    7  A    between atoms: N_18  and  C_21
REMARK                            x       y       z     vdW  Elec       q    Type
REMARK                         _______ _______ _______ _____ _____    ______ ____
ROOT
ATOM      1  C   UNL     1       9.640  -3.218  24.694  0.00  0.00    +0.085 C 
ENDROOT
BRANCH   1   2
ATOM      2  N   UNL     1       9.166  -4.493  24.128  0.00  0.00    -0.299 NA
ATOM      3  C   UNL     1       7.870  -4.292  23.432  0.00  0.00    +0.103 C 
ATOM      4  C   UNL     1       6.681  -3.955  24.369  0.00  0.00    +0.120 C 
ATOM      5  N   UNL     1       6.554  -4.946  25.457  0.00  0.00    -0.326 N 
ATOM      6  C   UNL     1       7.821  -5.268  26.150  0.00  0.00    +0.120 C 
ATOM      7  C   UNL     1       8.953  -5.551  25.138  0.00  0.00    +0.103 C 
BRANCH   5   8
ATOM      8  C   UNL     1       5.390  -5.677  25.691  0.00  0.00    +0.050 A 
ATOM      9  C   UNL     1       4.834  -6.439  24.640  0.00  0.00    +0.025 A 
ATOM     10  C   UNL     1       3.691  -7.229  24.795  0.00  0.00    +0.003 A 
ATOM     11  C   UNL     1       3.079  -7.324  26.033  0.00  0.00    +0.021 A 
ATOM     12  C   UNL     1       3.580  -6.587  27.104  0.00  0.00    +0.061 A 
ATOM     13 CL   UNL     1       2.763  -6.779  28.622  0.00  0.00    -0.082 Cl
ATOM     14  C   UNL     1       4.696  -5.736  26.935  0.00  0.00    +0.080 A 
ATOM     15 CL   UNL     1       5.094  -4.661  28.257  0.00  0.00    -0.080 Cl
ENDBRANCH   5   8
ENDBRANCH   1   2
BRANCH   1  16
ATOM     16  C   UNL     1       9.774  -2.088  23.671  0.00  0.00    +0.019 C 
BRANCH  16  20
ATOM     17  C   UNL     1      10.542   1.519  23.139  0.00  0.00    +0.074 C 
ATOM     18  C   UNL     1       9.733   0.672  22.146  0.00  0.00    +0.022 C 
ATOM     19  C   UNL     1       8.528   0.008  22.814  0.00  0.00    +0.005 C 
ATOM     20  C   UNL     1       8.937  -0.839  24.028  0.00  0.00    -0.010 C 
ATOM     21  C   UNL     1       9.700   0.036  25.037  0.00  0.00    +0.005 C 
ATOM     22  C   UNL     1      10.908   0.737  24.406  0.00  0.00    +0.022 C 
BRANCH  17  26
ATOM     23  C   UNL     1      10.157   6.297  24.087  0.00  0.00    +0.133 C 
ATOM     24  N   UNL     1       9.550   4.995  23.887  0.00  0.00    -0.292 N 
ATOM     25  C   UNL     1      10.410   3.951  23.573  0.00  0.00    +0.302 C 
ATOM     26  N   UNL     1       9.804   2.716  23.516  0.00  0.00    -0.296 N 
ATOM     27  H   UNL     1       8.822   2.725  23.301  0.00  0.00    +0.151 HD
ATOM     28  O   UNL     1      11.612   4.109  23.391  0.00  0.00    -0.253 OA
ATOM     29  C   UNL     1       8.150   4.828  24.243  0.00  0.00    +0.133 C 
ENDBRANCH  17  26
ENDBRANCH  16  20
ENDBRANCH   1  16
TORSDOF 5
ENDMDL
MODEL 9
REMARK VINA RESULT:      -7.0      2.561      3.423
REMARK  Name = 
REMARK  7 active torsions:
REMARK  status: ('A' for Active; 'I' for Inactive)
REMARK    1  A    between atoms: C_1  and  N_2
REMARK    2  A    between atoms: N_2  and  C_3
REMARK    3  A    between atoms: N_6  and  C_7
REMARK    4  A    between atoms: C_11  and  C_13
REMARK    5  A    between atoms: C_13  and  C_14
REMARK    6  A    between atoms: C_14  and  N_15
REMARK    7  A    between atoms: N_18  and  C_21
REMARK                            x       y       z     vdW  Elec       q    Type
REMARK                         _______ _______ _______ _____ _____    ______ ____
ROOT
ATOM      1  C   UNL     1       8.172  -1.226  22.950  0.00  0.00    +0.085 C 
ENDROOT
BRANCH   1   2
ATOM      2  N   UNL     1       9.454  -0.499  22.969  0.00  0.00    -0.299 NA
ATOM      3  C   UNL     1       9.606   0.231  24.253  0.00  0.00    +0.103 C 
ATOM      4  C   UNL     1       8.623   1.415  24.442  0.00  0.00    +0.120 C 
ATOM      5  N   UNL     1       8.666   2.341  23.293  0.00  0.00    -0.326 N 
ATOM      6  C   UNL     1       8.604   1.685  21.968  0.00  0.00    +0.120 C 
ATOM      7  C   UNL     1       9.588   0.499  21.887  0.00  0.00    +0.103 C 
BRANCH   5   8
ATOM      8  C   UNL     1       8.947   3.701  23.420  0.00  0.00    +0.050 A 
ATOM      9  C   UNL     1       7.889   4.632  23.344  0.00  0.00    +0.025 A 
ATOM     10  C   UNL     1       8.074   6.010  23.496  0.00  0.00    +0.003 A 
ATOM     11  C   UNL     1       9.334   6.510  23.777  0.00  0.00    +0.021 A 
ATOM     12  C   UNL     1      10.417   5.638  23.854  0.00  0.00    +0.061 A 
ATOM     13 CL   UNL     1      11.955   6.348  24.228  0.00  0.00    -0.082 Cl
ATOM     14  C   UNL     1      10.244   4.252  23.636  0.00  0.00    +0.080 A 
ATOM     15 CL   UNL     1      11.690   3.275  23.498  0.00  0.00    -0.080 Cl
ENDBRANCH   5   8
ENDBRANCH   1   2
BRANCH   1  16
ATOM     16  C   UNL     1       8.273  -2.663  22.434  0.00  0.00    +0.019 C 
BRANCH  16  20
ATOM     17  C   UNL     1       5.078  -4.570  22.638  0.00  0.00    +0.074 C 
ATOM     18  C   UNL     1       6.337  -5.102  21.939  0.00  0.00    +0.022 C 
ATOM     19  C   UNL     1       7.549  -5.105  22.873  0.00  0.00    +0.005 C 
ATOM     20  C   UNL     1       7.819  -3.716  23.470  0.00  0.00    -0.010 C 
ATOM     21  C   UNL     1       6.566  -3.219  24.212  0.00  0.00    +0.005 C 
ATOM     22  C   UNL     1       5.321  -3.217  23.319  0.00  0.00    +0.022 C 
BRANCH  17  26
ATOM     23  C   UNL     1       1.755  -7.619  24.518  0.00  0.00    +0.133 C 
ATOM     24  N   UNL     1       3.089  -7.050  24.514  0.00  0.00    -0.292 N 
ATOM     25  C   UNL     1       3.365  -6.122  23.519  0.00  0.00    +0.302 C 
ATOM     26  N   UNL     1       4.598  -5.521  23.631  0.00  0.00    -0.296 N 
ATOM     27  H   UNL     1       5.298  -6.055  24.117  0.00  0.00    +0.151 HD
ATOM     28  O   UNL     1       2.568  -5.840  22.630  0.00  0.00    -0.253 OA
ATOM     29  C   UNL     1       3.950  -7.310  25.657  0.00  0.00    +0.133 C 
ENDBRANCH  17  26
ENDBRANCH  16  20
ENDBRANCH   1  16
TORSDOF 5
ENDMDL
