MODEL 1
REMARK VINA RESULT:      -5.3      0.000      0.000
REMARK  Name = 
REMARK  7 active torsions:
REMARK  status: ('A' for Active; 'I' for Inactive)
REMARK    1  A    between atoms: O_1  and  C_2
REMARK    2  A    between atoms: C_2  and  N_3
REMARK    3  A    between atoms: N_3  and  O_4
REMARK    4  A    between atoms: N_3  and  C_5
REMARK    5  A    between atoms: C_5  and  C_6
REMARK    6  A    between atoms: C_6  and  C_7
REMARK    7  A    between atoms: C_7  and  C_8
REMARK                            x       y       z     vdW  Elec       q    Type
REMARK                         _______ _______ _______ _____ _____    ______ ____
ROOT
ATOM      1  C   UNL     1       8.590  -2.576  23.886  0.00  0.00    +0.022 C 
ENDROOT
BRANCH   1   2
ATOM      2  C   UNL     1       8.526  -4.095  24.085  0.00  0.00    +0.117 C 
BRANCH   2   3
ATOM      3  N   UNL     1       9.562  -4.553  25.018  0.00  0.00    -0.165 NA
BRANCH   3   4
ATOM      4  O   UNL     1       9.841  -5.942  24.667  0.00  0.00    -0.310 OA
ATOM      5  H   UNL     1       9.102  -6.112  24.045  0.00  0.00    +0.237 HD
ENDBRANCH   3   4
BRANCH   3   6
ATOM      6  C   UNL     1       9.066  -4.599  26.387  0.00  0.00    +0.270 C 
BRANCH   6   7
ATOM      7  O   UNL     1       8.384  -5.831  26.586  0.00  0.00    -0.378 OA
ATOM      8  H   UNL     1       8.672  -6.159  27.453  0.00  0.00    +0.211 HD
ENDBRANCH   6   7
ENDBRANCH   3   6
ENDBRANCH   2   3
ENDBRANCH   1   2
BRANCH   1   9
ATOM      9  C   UNL     1      10.010  -2.129  23.533  0.00  0.00    +0.036 C 
BRANCH   9  10
ATOM     10  C   UNL     1      10.088  -0.642  23.294  0.00  0.00    -0.047 A 
ATOM     11  C   UNL     1      10.531   0.219  24.306  0.00  0.00    +0.003 A 
ATOM     12  C   UNL     1      10.615   1.594  24.080  0.00  0.00    +0.000 A 
ATOM     13  C   UNL     1      10.262   2.119  22.838  0.00  0.00    +0.000 A 
ATOM     14  C   UNL     1       9.830   1.271  21.821  0.00  0.00    +0.000 A 
ATOM     15  C   UNL     1       9.747  -0.104  22.046  0.00  0.00    +0.003 A 
ENDBRANCH   9  10
ENDBRANCH   1   9
TORSDOF 7
ENDMDL
MODEL 2
REMARK VINA RESULT:      -5.3      0.691      1.506
REMARK  Name = 
REMARK  7 active torsions:
REMARK  status: ('A' for Active; 'I' for Inactive)
REMARK    1  A    between atoms: O_1  and  C_2
REMARK    2  A    between atoms: C_2  and  N_3
REMARK    3  A    between atoms: N_3  and  O_4
REMARK    4  A    between atoms: N_3  and  C_5
REMARK    5  A    between atoms: C_5  and  C_6
REMARK    6  A    between atoms: C_6  and  C_7
REMARK    7  A    between atoms: C_7  and  C_8
REMARK                            x       y       z     vdW  Elec       q    Type
REMARK                         _______ _______ _______ _____ _____    ______ ____
ROOT
ATOM      1  C   UNL     1       9.256  -2.481  24.510  0.00  0.00    +0.022 C 
ENDROOT
BRANCH   1   2
ATOM      2  C   UNL     1       8.951  -3.984  24.475  0.00  0.00    +0.117 C 
BRANCH   2   3
ATOM      3  N   UNL     1       9.056  -4.578  25.812  0.00  0.00    -0.165 NA
BRANCH   3   4
ATOM      4  O   UNL     1       9.940  -5.732  25.677  0.00  0.00    -0.310 OA
ATOM      5  H   UNL     1       9.525  -6.341  26.325  0.00  0.00    +0.237 HD
ENDBRANCH   3   4
BRANCH   3   6
ATOM      6  C   UNL     1       7.781  -5.126  26.256  0.00  0.00    +0.270 C 
BRANCH   6   7
ATOM      7  O   UNL     1       7.991  -5.855  27.459  0.00  0.00    -0.378 OA
ATOM      8  H   UNL     1       8.615  -5.329  27.986  0.00  0.00    +0.211 HD
ENDBRANCH   6   7
ENDBRANCH   3   6
ENDBRANCH   2   3
ENDBRANCH   1   2
BRANCH   1   9
ATOM      9  C   UNL     1      10.087  -2.062  23.296  0.00  0.00    +0.036 C 
BRANCH   9  10
ATOM     10  C   UNL     1      10.150  -0.563  23.147  0.00  0.00    -0.047 A 
ATOM     11  C   UNL     1       9.790   0.048  21.938  0.00  0.00    +0.003 A 
ATOM     12  C   UNL     1       9.838   1.436  21.806  0.00  0.00    +0.000 A 
ATOM     13  C   UNL     1      10.238   2.227  22.881  0.00  0.00    +0.000 A 
ATOM     14  C   UNL     1      10.588   1.631  24.091  0.00  0.00    +0.000 A 
ATOM     15  C   UNL     1      10.540   0.242  24.225  0.00  0.00    +0.003 A 
ENDBRANCH   9  10
ENDBRANCH   1   9
TORSDOF 7
ENDMDL
MODEL 3
REMARK VINA RESULT:      -4.9      6.244      7.864
REMARK  Name = 
REMARK  7 active torsions:
REMARK  status: ('A' for Active; 'I' for Inactive)
REMARK    1  A    between atoms: O_1  and  C_2
REMARK    2  A    between atoms: C_2  and  N_3
REMARK    3  A    between atoms: N_3  and  O_4
REMARK    4  A    between atoms: N_3  and  C_5
REMARK    5  A    between atoms: C_5  and  C_6
REMARK    6  A    between atoms: C_6  and  C_7
REMARK    7  A    between atoms: C_7  and  C_8
REMARK                            x       y       z     vdW  Elec       q    Type
REMARK                         _______ _______ _______ _____ _____    ______ ____
ROOT
ATOM      1  C   UNL     1       9.820   4.939  24.335  0.00  0.00    +0.022 C 
ENDROOT
BRANCH   1   2
ATOM      2  C   UNL     1      10.809   5.755  23.494  0.00  0.00    +0.117 C 
BRANCH   2   3
ATOM      3  N   UNL     1      12.166   5.205  23.588  0.00  0.00    -0.165 NA
BRANCH   3   4
ATOM      4  O   UNL     1      12.912   6.108  24.460  0.00  0.00    -0.310 OA
ATOM      5  H   UNL     1      13.395   6.635  23.787  0.00  0.00    +0.237 HD
ENDBRANCH   3   4
BRANCH   3   6
ATOM      6  C   UNL     1      12.856   5.260  22.306  0.00  0.00    +0.270 C 
BRANCH   6   7
ATOM      7  O   UNL     1      14.053   6.013  22.462  0.00  0.00    -0.378 OA
ATOM      8  H   UNL     1      14.201   6.457  21.610  0.00  0.00    +0.211 HD
ENDBRANCH   6   7
ENDBRANCH   3   6
ENDBRANCH   2   3
ENDBRANCH   1   2
BRANCH   1   9
ATOM      9  C   UNL     1       8.859   4.153  23.442  0.00  0.00    +0.036 C 
BRANCH   9  10
ATOM     10  C   UNL     1       9.346   2.748  23.190  0.00  0.00    -0.047 A 
ATOM     11  C   UNL     1      10.054   2.053  24.179  0.00  0.00    +0.003 A 
ATOM     12  C   UNL     1      10.494   0.749  23.949  0.00  0.00    +0.000 A 
ATOM     13  C   UNL     1      10.224   0.125  22.732  0.00  0.00    +0.000 A 
ATOM     14  C   UNL     1       9.511   0.803  21.745  0.00  0.00    +0.000 A 
ATOM     15  C   UNL     1       9.070   2.108  21.974  0.00  0.00    +0.003 A 
ENDBRANCH   9  10
ENDBRANCH   1   9
TORSDOF 7
ENDMDL
MODEL 4
REMARK VINA RESULT:      -4.7      2.914      3.147
REMARK  Name = 
REMARK  7 active torsions:
REMARK  status: ('A' for Active; 'I' for Inactive)
REMARK    1  A    between atoms: O_1  and  C_2
REMARK    2  A    between atoms: C_2  and  N_3
REMARK    3  A    between atoms: N_3  and  O_4
REMARK    4  A    between atoms: N_3  and  C_5
REMARK    5  A    between atoms: C_5  and  C_6
REMARK    6  A    between atoms: C_6  and  C_7
REMARK    7  A    between atoms: C_7  and  C_8
REMARK                            x       y       z     vdW  Elec       q    Type
REMARK                         _______ _______ _______ _____ _____    ______ ____
ROOT
ATOM      1  C   UNL     1       7.683  -2.142  22.481  0.00  0.00    +0.022 C 
ENDROOT
BRANCH   1   2
ATOM      2  C   UNL     1       7.548  -3.648  22.742  0.00  0.00    +0.117 C 
BRANCH   2   3
ATOM      3  N   UNL     1       6.586  -4.262  21.820  0.00  0.00    -0.165 NA
BRANCH   3   4
ATOM      4  O   UNL     1       5.522  -3.281  21.629  0.00  0.00    -0.310 OA
ATOM      5  H   UNL     1       6.054  -2.457  21.594  0.00  0.00    +0.237 HD
ENDBRANCH   3   4
BRANCH   3   6
ATOM      6  C   UNL     1       5.933  -5.418  22.421  0.00  0.00    +0.270 C 
BRANCH   6   7
ATOM      7  O   UNL     1       5.642  -6.362  21.397  0.00  0.00    -0.378 OA
ATOM      8  H   UNL     1       6.137  -6.069  20.615  0.00  0.00    +0.211 HD
ENDBRANCH   6   7
ENDBRANCH   3   6
ENDBRANCH   2   3
ENDBRANCH   1   2
BRANCH   1   9
ATOM      9  C   UNL     1       9.085  -1.798  21.974  0.00  0.00    +0.036 C 
BRANCH   9  10
ATOM     10  C   UNL     1       9.577  -0.485  22.530  0.00  0.00    -0.047 A 
ATOM     11  C   UNL     1      10.031  -0.398  23.852  0.00  0.00    +0.003 A 
ATOM     12  C   UNL     1      10.497   0.816  24.361  0.00  0.00    +0.000 A 
ATOM     13  C   UNL     1      10.519   1.950  23.552  0.00  0.00    +0.000 A 
ATOM     14  C   UNL     1      10.079   1.872  22.233  0.00  0.00    +0.000 A 
ATOM     15  C   UNL     1       9.613   0.659  21.722  0.00  0.00    +0.003 A 
ENDBRANCH   9  10
ENDBRANCH   1   9
TORSDOF 7
ENDMDL
MODEL 5
REMARK VINA RESULT:      -4.6      3.018      4.450
REMARK  Name = 
REMARK  7 active torsions:
REMARK  status: ('A' for Active; 'I' for Inactive)
REMARK    1  A    between atoms: O_1  and  C_2
REMARK    2  A    between atoms: C_2  and  N_3
REMARK    3  A    between atoms: N_3  and  O_4
REMARK    4  A    between atoms: N_3  and  C_5
REMARK    5  A    between atoms: C_5  and  C_6
REMARK    6  A    between atoms: C_6  and  C_7
REMARK    7  A    between atoms: C_7  and  C_8
REMARK                            x       y       z     vdW  Elec       q    Type
REMARK                         _______ _______ _______ _____ _____    ______ ____
ROOT
ATOM      1  C   UNL     1       9.927   1.095  23.788  0.00  0.00    +0.022 C 
ENDROOT
BRANCH   1   2
ATOM      2  C   UNL     1       9.938   0.341  22.453  0.00  0.00    +0.117 C 
BRANCH   2   3
ATOM      3  N   UNL     1      10.383  -1.046  22.630  0.00  0.00    -0.165 NA
BRANCH   3   4
ATOM      4  O   UNL     1       9.809  -1.803  21.521  0.00  0.00    -0.310 OA
ATOM      5  H   UNL     1       9.612  -1.070  20.898  0.00  0.00    +0.237 HD
ENDBRANCH   3   4
BRANCH   3   6
ATOM      6  C   UNL     1       9.815  -1.641  23.831  0.00  0.00    +0.270 C 
BRANCH   6   7
ATOM      7  O   UNL     1      10.188  -3.013  23.883  0.00  0.00    -0.378 OA
ATOM      8  H   UNL     1       9.441  -3.507  23.507  0.00  0.00    +0.211 HD
ENDBRANCH   6   7
ENDBRANCH   3   6
ENDBRANCH   2   3
ENDBRANCH   1   2
BRANCH   1   9
ATOM      9  C   UNL     1       9.112   2.385  23.683  0.00  0.00    +0.036 C 
BRANCH   9  10
ATOM     10  C   UNL     1       9.992   3.610  23.703  0.00  0.00    -0.047 A 
ATOM     11  C   UNL     1      11.332   3.530  23.303  0.00  0.00    +0.003 A 
ATOM     12  C   UNL     1      12.142   4.666  23.311  0.00  0.00    +0.000 A 
ATOM     13  C   UNL     1      11.619   5.894  23.713  0.00  0.00    +0.000 A 
ATOM     14  C   UNL     1      10.285   5.987  24.104  0.00  0.00    +0.000 A 
ATOM     15  C   UNL     1       9.473   4.851  24.095  0.00  0.00    +0.003 A 
ENDBRANCH   9  10
ENDBRANCH   1   9
TORSDOF 7
ENDMDL
MODEL 6
REMARK VINA RESULT:      -4.6      1.718      2.158
REMARK  Name = 
REMARK  7 active torsions:
REMARK  status: ('A' for Active; 'I' for Inactive)
REMARK    1  A    between atoms: O_1  and  C_2
REMARK    2  A    between atoms: C_2  and  N_3
REMARK    3  A    between atoms: N_3  and  O_4
REMARK    4  A    between atoms: N_3  and  C_5
REMARK    5  A    between atoms: C_5  and  C_6
REMARK    6  A    between atoms: C_6  and  C_7
REMARK    7  A    between atoms: C_7  and  C_8
REMARK                            x       y       z     vdW  Elec       q    Type
REMARK                         _______ _______ _______ _____ _____    ______ ____
ROOT
ATOM      1  C   UNL     1       7.586  -3.894  22.807  0.00  0.00    +0.022 C 
ENDROOT
BRANCH   1   2
ATOM      2  C   UNL     1       7.828  -5.028  23.810  0.00  0.00    +0.117 C 
BRANCH   2   3
ATOM      3  N   UNL     1       8.770  -4.618  24.858  0.00  0.00    -0.165 NA
BRANCH   3   4
ATOM      4  O   UNL     1       9.968  -5.430  24.669  0.00  0.00    -0.310 OA
ATOM      5  H   UNL     1      10.000  -5.463  23.689  0.00  0.00    +0.237 HD
ENDBRANCH   3   4
BRANCH   3   6
ATOM      6  C   UNL     1       8.279  -4.966  26.184  0.00  0.00    +0.270 C 
BRANCH   6   7
ATOM      7  O   UNL     1       9.355  -4.869  27.110  0.00  0.00    -0.378 OA
ATOM      8  H   UNL     1       9.559  -3.922  27.184  0.00  0.00    +0.211 HD
ENDBRANCH   6   7
ENDBRANCH   3   6
ENDBRANCH   2   3
ENDBRANCH   1   2
BRANCH   1   9
ATOM      9  C   UNL     1       7.242  -2.589  23.528  0.00  0.00    +0.036 C 
BRANCH   9  10
ATOM     10  C   UNL     1       7.878  -1.394  22.863  0.00  0.00    -0.047 A 
ATOM     11  C   UNL     1       9.044  -1.541  22.100  0.00  0.00    +0.003 A 
ATOM     12  C   UNL     1       9.625  -0.437  21.476  0.00  0.00    +0.000 A 
ATOM     13  C   UNL     1       9.042   0.823  21.602  0.00  0.00    +0.000 A 
ATOM     14  C   UNL     1       7.877   0.979  22.349  0.00  0.00    +0.000 A 
ATOM     15  C   UNL     1       7.294  -0.125  22.974  0.00  0.00    +0.003 A 
ENDBRANCH   9  10
ENDBRANCH   1   9
TORSDOF 7
ENDMDL
MODEL 7
REMARK VINA RESULT:      -4.6      1.695      1.989
REMARK  Name = 
REMARK  7 active torsions:
REMARK  status: ('A' for Active; 'I' for Inactive)
REMARK    1  A    between atoms: O_1  and  C_2
REMARK    2  A    between atoms: C_2  and  N_3
REMARK    3  A    between atoms: N_3  and  O_4
REMARK    4  A    between atoms: N_3  and  C_5
REMARK    5  A    between atoms: C_5  and  C_6
REMARK    6  A    between atoms: C_6  and  C_7
REMARK    7  A    between atoms: C_7  and  C_8
REMARK                            x       y       z     vdW  Elec       q    Type
REMARK                         _______ _______ _______ _____ _____    ______ ____
ROOT
ATOM      1  C   UNL     1       7.927  -2.017  22.455  0.00  0.00    +0.022 C 
ENDROOT
BRANCH   1   2
ATOM      2  C   UNL     1       8.028  -3.441  23.015  0.00  0.00    +0.117 C 
BRANCH   2   3
ATOM      3  N   UNL     1       7.692  -3.474  24.444  0.00  0.00    -0.165 NA
BRANCH   3   4
ATOM      4  O   UNL     1       7.475  -2.087  24.843  0.00  0.00    -0.310 OA
ATOM      5  H   UNL     1       6.680  -2.195  25.408  0.00  0.00    +0.237 HD
ENDBRANCH   3   4
BRANCH   3   6
ATOM      6  C   UNL     1       8.818  -3.930  25.248  0.00  0.00    +0.270 C 
BRANCH   6   7
ATOM      7  O   UNL     1       9.986  -3.941  24.435  0.00  0.00    -0.378 OA
ATOM      8  H   UNL     1      10.434  -4.782  24.623  0.00  0.00    +0.211 HD
ENDBRANCH   6   7
ENDBRANCH   3   6
ENDBRANCH   2   3
ENDBRANCH   1   2
BRANCH   1   9
ATOM      9  C   UNL     1       9.268  -1.558  21.881  0.00  0.00    +0.036 C 
BRANCH   9  10
ATOM     10  C   UNL     1       9.744  -0.277  22.519  0.00  0.00    -0.047 A 
ATOM     11  C   UNL     1      10.278  -0.283  23.815  0.00  0.00    +0.003 A 
ATOM     12  C   UNL     1      10.729   0.902  24.400  0.00  0.00    +0.000 A 
ATOM     13  C   UNL     1      10.655   2.101  23.694  0.00  0.00    +0.000 A 
ATOM     14  C   UNL     1      10.135   2.117  22.401  0.00  0.00    +0.000 A 
ATOM     15  C   UNL     1       9.685   0.933  21.815  0.00  0.00    +0.003 A 
ENDBRANCH   9  10
ENDBRANCH   1   9
TORSDOF 7
ENDMDL
MODEL 8
REMARK VINA RESULT:      -4.5      5.378      6.697
REMARK  Name = 
REMARK  7 active torsions:
REMARK  status: ('A' for Active; 'I' for Inactive)
REMARK    1  A    between atoms: O_1  and  C_2
REMARK    2  A    between atoms: C_2  and  N_3
REMARK    3  A    between atoms: N_3  and  O_4
REMARK    4  A    between atoms: N_3  and  C_5
REMARK    5  A    between atoms: C_5  and  C_6
REMARK    6  A    between atoms: C_6  and  C_7
REMARK    7  A    between atoms: C_7  and  C_8
REMARK                            x       y       z     vdW  Elec       q    Type
REMARK                         _______ _______ _______ _____ _____    ______ ____
ROOT
ATOM      1  C   UNL     1       9.026   3.208  24.356  0.00  0.00    +0.022 C 
ENDROOT
BRANCH   1   2
ATOM      2  C   UNL     1       8.309   4.366  23.651  0.00  0.00    +0.117 C 
BRANCH   2   3
ATOM      3  N   UNL     1       7.792   3.951  22.342  0.00  0.00    -0.165 NA
BRANCH   3   4
ATOM      4  O   UNL     1       7.333   5.169  21.680  0.00  0.00    -0.310 OA
ATOM      5  H   UNL     1       6.362   5.038  21.737  0.00  0.00    +0.237 HD
ENDBRANCH   3   4
BRANCH   3   6
ATOM      6  C   UNL     1       6.603   3.120  22.475  0.00  0.00    +0.270 C 
BRANCH   6   7
ATOM      7  O   UNL     1       5.492   3.821  21.929  0.00  0.00    -0.378 OA
ATOM      8  H   UNL     1       5.864   4.477  21.317  0.00  0.00    +0.211 HD
ENDBRANCH   6   7
ENDBRANCH   3   6
ENDBRANCH   2   3
ENDBRANCH   1   2
BRANCH   1   9
ATOM      9  C   UNL     1      10.230   2.731  23.542  0.00  0.00    +0.036 C 
BRANCH   9  10
ATOM     10  C   UNL     1      10.095   1.287  23.131  0.00  0.00    -0.047 A 
ATOM     11  C   UNL     1      10.299   0.260  24.063  0.00  0.00    +0.003 A 
ATOM     12  C   UNL     1      10.162  -1.076  23.684  0.00  0.00    +0.000 A 
ATOM     13  C   UNL     1       9.814  -1.399  22.374  0.00  0.00    +0.000 A 
ATOM     14  C   UNL     1       9.599  -0.386  21.442  0.00  0.00    +0.000 A 
ATOM     15  C   UNL     1       9.735   0.952  21.819  0.00  0.00    +0.003 A 
ENDBRANCH   9  10
ENDBRANCH   1   9
TORSDOF 7
ENDMDL
MODEL 9
REMARK VINA RESULT:      -4.5      4.020      5.799
REMARK  Name = 
REMARK  7 active torsions:
REMARK  status: ('A' for Active; 'I' for Inactive)
REMARK    1  A    between atoms: O_1  and  C_2
REMARK    2  A    between atoms: C_2  and  N_3
REMARK    3  A    between atoms: N_3  and  O_4
REMARK    4  A    between atoms: N_3  and  C_5
REMARK    5  A    between atoms: C_5  and  C_6
REMARK    6  A    between atoms: C_6  and  C_7
REMARK    7  A    between atoms: C_7  and  C_8
REMARK                            x       y       z     vdW  Elec       q    Type
REMARK                         _______ _______ _______ _____ _____    ______ ____
ROOT
ATOM      1  C   UNL     1       9.444   0.067  21.574  0.00  0.00    +0.022 C 
ENDROOT
BRANCH   1   2
ATOM      2  C   UNL     1       9.859   1.513  21.873  0.00  0.00    +0.117 C 
BRANCH   2   3
ATOM      3  N   UNL     1       8.981   2.119  22.880  0.00  0.00    -0.165 NA
BRANCH   3   4
ATOM      4  O   UNL     1       8.547   3.398  22.326  0.00  0.00    -0.310 OA
ATOM      5  H   UNL     1       8.232   3.104  21.444  0.00  0.00    +0.237 HD
ENDBRANCH   3   4
BRANCH   3   6
ATOM      6  C   UNL     1       9.713   2.459  24.093  0.00  0.00    +0.270 C 
BRANCH   6   7
ATOM      7  O   UNL     1       9.487   1.444  25.064  0.00  0.00    -0.378 OA
ATOM      8  H   UNL     1       9.287   0.636  24.563  0.00  0.00    +0.211 HD
ENDBRANCH   6   7
ENDBRANCH   3   6
ENDBRANCH   2   3
ENDBRANCH   1   2
BRANCH   1   9
ATOM      9  C   UNL     1      10.266  -0.921  22.404  0.00  0.00    +0.036 C 
BRANCH   9  10
ATOM     10  C   UNL     1       9.424  -2.063  22.916  0.00  0.00    -0.047 A 
ATOM     11  C   UNL     1       9.826  -2.794  24.042  0.00  0.00    +0.003 A 
ATOM     12  C   UNL     1       9.040  -3.842  24.522  0.00  0.00    +0.000 A 
ATOM     13  C   UNL     1       7.843  -4.165  23.887  0.00  0.00    +0.000 A 
ATOM     14  C   UNL     1       7.428  -3.438  22.773  0.00  0.00    +0.000 A 
ATOM     15  C   UNL     1       8.213  -2.388  22.291  0.00  0.00    +0.003 A 
ENDBRANCH   9  10
ENDBRANCH   1   9
TORSDOF 7
ENDMDL
