MODEL 1
REMARK VINA RESULT:      -5.8      0.000      0.000
REMARK  Name = 
REMARK  8 active torsions:
REMARK  status: ('A' for Active; 'I' for Inactive)
REMARK    1  A    between atoms: C_1  and  C_2
REMARK    2  A    between atoms: C_2  and  S_3
REMARK    3  A    between atoms: S_3  and  C_4
REMARK    4  A    between atoms: C_4  and  C_5
REMARK    5  A    between atoms: C_5  and  C_6
REMARK    6  A    between atoms: N_12  and  O_13
REMARK    7  A    between atoms: O_13  and  S_14
REMARK    8  A    between atoms: S_14  and  O_15
REMARK                            x       y       z     vdW  Elec       q    Type
REMARK                         _______ _______ _______ _____ _____    ______ ____
ROOT
ATOM      1  C   UNL     1       9.039  -2.586  23.315  0.00  0.00    +0.120 C 
ATOM      2  N   UNL     1       9.352  -3.616  24.052  0.00  0.00    -0.048 NA
ENDROOT
BRANCH   1   3
ATOM      3  S   UNL     1       7.368  -2.085  23.031  0.00  0.00    -0.107 S 
BRANCH   3   5
ATOM      4  C   UNL     1       6.633   0.420  23.872  0.00  0.00    +0.015 C 
ATOM      5  C   UNL     1       6.955  -0.974  24.398  0.00  0.00    +0.072 C 
ENDBRANCH   3   5
ENDBRANCH   1   3
BRANCH   2   6
ATOM      6  O   UNL     1       8.205  -4.258  24.596  0.00  0.00    -0.207 OA
BRANCH   6   7
ATOM      7  S   UNL     1       8.479  -5.048  26.015  0.00  0.00    +0.271 S 
ATOM      8  O   UNL     1       7.340  -5.886  26.313  0.00  0.00    -0.106 OA
ATOM      9  O   UNL     1       8.994  -4.095  26.973  0.00  0.00    -0.106 OA
BRANCH   7  10
ATOM     10  O   UNL     1       9.721  -6.016  25.643  0.00  0.00    -0.221 OA
ATOM     11  H   UNL     1      10.023  -5.745  24.751  0.00  0.00    +0.248 HD
ENDBRANCH   7  10
ENDBRANCH   6   7
ENDBRANCH   2   6
BRANCH   1  12
ATOM     12  C   UNL     1      10.188  -1.813  22.690  0.00  0.00    +0.101 C 
BRANCH  12  13
ATOM     13  C   UNL     1      10.150  -0.309  22.848  0.00  0.00    -0.041 A 
ATOM     14  C   UNL     1       9.815   0.560  21.800  0.00  0.00    +0.004 A 
ATOM     15  C   UNL     1       9.788   1.943  22.009  0.00  0.00    +0.000 A 
ATOM     16  C   UNL     1      10.123   2.474  23.253  0.00  0.00    +0.000 A 
ATOM     17  C   UNL     1      10.514   1.626  24.283  0.00  0.00    +0.000 A 
ATOM     18  C   UNL     1      10.536   0.245  24.079  0.00  0.00    +0.004 A 
ENDBRANCH  12  13
ENDBRANCH   1  12
TORSDOF 7
ENDMDL
MODEL 2
REMARK VINA RESULT:      -5.7      1.267      1.844
REMARK  Name = 
REMARK  8 active torsions:
REMARK  status: ('A' for Active; 'I' for Inactive)
REMARK    1  A    between atoms: C_1  and  C_2
REMARK    2  A    between atoms: C_2  and  S_3
REMARK    3  A    between atoms: S_3  and  C_4
REMARK    4  A    between atoms: C_4  and  C_5
REMARK    5  A    between atoms: C_5  and  C_6
REMARK    6  A    between atoms: N_12  and  O_13
REMARK    7  A    between atoms: O_13  and  S_14
REMARK    8  A    between atoms: S_14  and  O_15
REMARK                            x       y       z     vdW  Elec       q    Type
REMARK                         _______ _______ _______ _____ _____    ______ ____
ROOT
ATOM      1  C   UNL     1       8.529  -2.680  23.283  0.00  0.00    +0.120 C 
ATOM      2  N   UNL     1       8.958  -3.766  23.866  0.00  0.00    -0.048 NA
ENDROOT
BRANCH   1   3
ATOM      3  S   UNL     1       6.886  -2.063  23.497  0.00  0.00    -0.107 S 
BRANCH   3   5
ATOM      4  C   UNL     1       4.928  -3.896  22.926  0.00  0.00    +0.015 C 
ATOM      5  C   UNL     1       5.882  -2.915  22.256  0.00  0.00    +0.072 C 
ENDBRANCH   3   5
ENDBRANCH   1   3
BRANCH   2   6
ATOM      6  O   UNL     1       7.962  -4.365  24.687  0.00  0.00    -0.207 OA
BRANCH   6   7
ATOM      7  S   UNL     1       8.528  -4.958  26.116  0.00  0.00    +0.271 S 
ATOM      8  O   UNL     1       7.603  -5.950  26.612  0.00  0.00    -0.106 OA
ATOM      9  O   UNL     1       8.957  -3.842  26.931  0.00  0.00    -0.106 OA
BRANCH   7  10
ATOM     10  O   UNL     1       9.881  -5.724  25.666  0.00  0.00    -0.221 OA
ATOM     11  H   UNL     1       9.965  -5.589  24.700  0.00  0.00    +0.248 HD
ENDBRANCH   7  10
ENDBRANCH   6   7
ENDBRANCH   2   6
BRANCH   1  12
ATOM     12  C   UNL     1       9.513  -1.946  22.388  0.00  0.00    +0.101 C 
BRANCH  12  13
ATOM     13  C   UNL     1       9.858  -0.528  22.790  0.00  0.00    -0.041 A 
ATOM     14  C   UNL     1      10.233  -0.175  24.093  0.00  0.00    +0.004 A 
ATOM     15  C   UNL     1      10.549   1.152  24.404  0.00  0.00    +0.000 A 
ATOM     16  C   UNL     1      10.467   2.142  23.427  0.00  0.00    +0.000 A 
ATOM     17  C   UNL     1      10.040   1.814  22.145  0.00  0.00    +0.000 A 
ATOM     18  C   UNL     1       9.729   0.490  21.831  0.00  0.00    +0.004 A 
ENDBRANCH  12  13
ENDBRANCH   1  12
TORSDOF 7
ENDMDL
MODEL 3
REMARK VINA RESULT:      -5.6      2.152      3.060
REMARK  Name = 
REMARK  8 active torsions:
REMARK  status: ('A' for Active; 'I' for Inactive)
REMARK    1  A    between atoms: C_1  and  C_2
REMARK    2  A    between atoms: C_2  and  S_3
REMARK    3  A    between atoms: S_3  and  C_4
REMARK    4  A    between atoms: C_4  and  C_5
REMARK    5  A    between atoms: C_5  and  C_6
REMARK    6  A    between atoms: N_12  and  O_13
REMARK    7  A    between atoms: O_13  and  S_14
REMARK    8  A    between atoms: S_14  and  O_15
REMARK                            x       y       z     vdW  Elec       q    Type
REMARK                         _______ _______ _______ _____ _____    ______ ____
ROOT
ATOM      1  C   UNL     1       8.470  -3.355  24.101  0.00  0.00    +0.120 C 
ATOM      2  N   UNL     1       8.285  -4.489  23.483  0.00  0.00    -0.048 NA
ENDROOT
BRANCH   1   3
ATOM      3  S   UNL     1       7.210  -2.574  25.065  0.00  0.00    -0.107 S 
BRANCH   3   5
ATOM      4  C   UNL     1       6.475  -0.112  24.107  0.00  0.00    +0.015 C 
ATOM      5  C   UNL     1       6.235  -1.601  23.892  0.00  0.00    +0.072 C 
ENDBRANCH   3   5
ENDBRANCH   1   3
BRANCH   2   6
ATOM      6  O   UNL     1       6.978  -5.010  23.692  0.00  0.00    -0.207 OA
BRANCH   6   7
ATOM      7  S   UNL     1       6.186  -5.428  22.309  0.00  0.00    +0.271 S 
ATOM      8  O   UNL     1       7.156  -5.832  21.318  0.00  0.00    -0.106 OA
ATOM      9  O   UNL     1       5.191  -4.416  22.032  0.00  0.00    -0.106 OA
BRANCH   7  10
ATOM     10  O   UNL     1       5.363  -6.746  22.762  0.00  0.00    -0.221 OA
ATOM     11  H   UNL     1       4.414  -6.525  22.663  0.00  0.00    +0.248 HD
ENDBRANCH   7  10
ENDBRANCH   6   7
ENDBRANCH   2   6
BRANCH   1  12
ATOM     12  C   UNL     1       9.838  -2.709  23.958  0.00  0.00    +0.101 C 
BRANCH  12  13
ATOM     13  C   UNL     1       9.869  -1.339  23.317  0.00  0.00    -0.041 A 
ATOM     14  C   UNL     1      10.255  -0.182  24.008  0.00  0.00    +0.004 A 
ATOM     15  C   UNL     1      10.273   1.057  23.359  0.00  0.00    +0.000 A 
ATOM     16  C   UNL     1       9.881   1.160  22.026  0.00  0.00    +0.000 A 
ATOM     17  C   UNL     1       9.440   0.029  21.346  0.00  0.00    +0.000 A 
ATOM     18  C   UNL     1       9.426  -1.210  21.990  0.00  0.00    +0.004 A 
ENDBRANCH  12  13
ENDBRANCH   1  12
TORSDOF 7
ENDMDL
MODEL 4
REMARK VINA RESULT:      -5.4      2.509      3.433
REMARK  Name = 
REMARK  8 active torsions:
REMARK  status: ('A' for Active; 'I' for Inactive)
REMARK    1  A    between atoms: C_1  and  C_2
REMARK    2  A    between atoms: C_2  and  S_3
REMARK    3  A    between atoms: S_3  and  C_4
REMARK    4  A    between atoms: C_4  and  C_5
REMARK    5  A    between atoms: C_5  and  C_6
REMARK    6  A    between atoms: N_12  and  O_13
REMARK    7  A    between atoms: O_13  and  S_14
REMARK    8  A    between atoms: S_14  and  O_15
REMARK                            x       y       z     vdW  Elec       q    Type
REMARK                         _______ _______ _______ _____ _____    ______ ____
ROOT
ATOM      1  C   UNL     1       8.555  -2.804  23.771  0.00  0.00    +0.120 C 
ATOM      2  N   UNL     1       7.982  -3.382  22.752  0.00  0.00    -0.048 NA
ENDROOT
BRANCH   1   3
ATOM      3  S   UNL     1       7.777  -2.665  25.354  0.00  0.00    -0.107 S 
BRANCH   3   5
ATOM      4  C   UNL     1       8.396  -5.282  25.888  0.00  0.00    +0.015 C 
ATOM      5  C   UNL     1       8.614  -3.869  26.414  0.00  0.00    +0.072 C 
ENDBRANCH   3   5
ENDBRANCH   1   3
BRANCH   2   6
ATOM      6  O   UNL     1       6.690  -3.886  23.073  0.00  0.00    -0.207 OA
BRANCH   6   7
ATOM      7  S   UNL     1       6.031  -4.850  21.911  0.00  0.00    +0.271 S 
ATOM      8  O   UNL     1       4.788  -5.396  22.406  0.00  0.00    -0.106 OA
ATOM      9  O   UNL     1       7.076  -5.697  21.378  0.00  0.00    -0.106 OA
BRANCH   7  10
ATOM     10  O   UNL     1       5.676  -3.794  20.738  0.00  0.00    -0.221 OA
ATOM     11  H   UNL     1       5.017  -3.175  21.116  0.00  0.00    +0.248 HD
ENDBRANCH   7  10
ENDBRANCH   6   7
ENDBRANCH   2   6
BRANCH   1  12
ATOM     12  C   UNL     1       9.946  -2.237  23.549  0.00  0.00    +0.101 C 
BRANCH  12  13
ATOM     13  C   UNL     1      10.033  -0.745  23.310  0.00  0.00    -0.041 A 
ATOM     14  C   UNL     1       9.808  -0.158  22.057  0.00  0.00    +0.004 A 
ATOM     15  C   UNL     1       9.894   1.229  21.900  0.00  0.00    +0.000 A 
ATOM     16  C   UNL     1      10.232   2.041  22.981  0.00  0.00    +0.000 A 
ATOM     17  C   UNL     1      10.515   1.466  24.215  0.00  0.00    +0.000 A 
ATOM     18  C   UNL     1      10.424   0.082  24.376  0.00  0.00    +0.004 A 
ENDBRANCH  12  13
ENDBRANCH   1  12
TORSDOF 7
ENDMDL
MODEL 5
REMARK VINA RESULT:      -5.3      1.697      2.102
REMARK  Name = 
REMARK  8 active torsions:
REMARK  status: ('A' for Active; 'I' for Inactive)
REMARK    1  A    between atoms: C_1  and  C_2
REMARK    2  A    between atoms: C_2  and  S_3
REMARK    3  A    between atoms: S_3  and  C_4
REMARK    4  A    between atoms: C_4  and  C_5
REMARK    5  A    between atoms: C_5  and  C_6
REMARK    6  A    between atoms: N_12  and  O_13
REMARK    7  A    between atoms: O_13  and  S_14
REMARK    8  A    between atoms: S_14  and  O_15
REMARK                            x       y       z     vdW  Elec       q    Type
REMARK                         _______ _______ _______ _____ _____    ______ ____
ROOT
ATOM      1  C   UNL     1       8.457  -3.689  24.511  0.00  0.00    +0.120 C 
ATOM      2  N   UNL     1       8.039  -3.512  25.734  0.00  0.00    -0.048 NA
ENDROOT
BRANCH   1   3
ATOM      3  S   UNL     1       7.512  -4.555  23.293  0.00  0.00    -0.107 S 
BRANCH   3   5
ATOM      4  C   UNL     1       6.207  -2.163  22.989  0.00  0.00    +0.015 C 
ATOM      5  C   UNL     1       6.861  -3.280  22.186  0.00  0.00    +0.072 C 
ENDBRANCH   3   5
ENDBRANCH   1   3
BRANCH   2   6
ATOM      6  O   UNL     1       6.751  -4.078  25.951  0.00  0.00    -0.207 OA
BRANCH   6   7
ATOM      7  S   UNL     1       6.741  -5.361  26.985  0.00  0.00    +0.271 S 
ATOM      8  O   UNL     1       5.969  -6.431  26.395  0.00  0.00    -0.106 OA
ATOM      9  O   UNL     1       6.465  -4.868  28.316  0.00  0.00    -0.106 OA
BRANCH   7  10
ATOM     10  O   UNL     1       8.293  -5.817  26.994  0.00  0.00    -0.221 OA
ATOM     11  H   UNL     1       8.293  -6.795  26.946  0.00  0.00    +0.248 HD
ENDBRANCH   7  10
ENDBRANCH   6   7
ENDBRANCH   2   6
BRANCH   1  12
ATOM     12  C   UNL     1       9.819  -3.116  24.160  0.00  0.00    +0.101 C 
BRANCH  12  13
ATOM     13  C   UNL     1       9.831  -1.711  23.596  0.00  0.00    -0.041 A 
ATOM     14  C   UNL     1       9.862  -1.441  22.221  0.00  0.00    +0.004 A 
ATOM     15  C   UNL     1       9.863  -0.121  21.759  0.00  0.00    +0.000 A 
ATOM     16  C   UNL     1       9.862   0.941  22.662  0.00  0.00    +0.000 A 
ATOM     17  C   UNL     1       9.890   0.686  24.028  0.00  0.00    +0.000 A 
ATOM     18  C   UNL     1       9.883  -0.631  24.492  0.00  0.00    +0.004 A 
ENDBRANCH  12  13
ENDBRANCH   1  12
TORSDOF 7
ENDMDL
MODEL 6
REMARK VINA RESULT:      -5.0      1.474      2.592
REMARK  Name = 
REMARK  8 active torsions:
REMARK  status: ('A' for Active; 'I' for Inactive)
REMARK    1  A    between atoms: C_1  and  C_2
REMARK    2  A    between atoms: C_2  and  S_3
REMARK    3  A    between atoms: S_3  and  C_4
REMARK    4  A    between atoms: C_4  and  C_5
REMARK    5  A    between atoms: C_5  and  C_6
REMARK    6  A    between atoms: N_12  and  O_13
REMARK    7  A    between atoms: O_13  and  S_14
REMARK    8  A    between atoms: S_14  and  O_15
REMARK                            x       y       z     vdW  Elec       q    Type
REMARK                         _______ _______ _______ _____ _____    ______ ____
ROOT
ATOM      1  C   UNL     1       7.942  -1.418  24.998  0.00  0.00    +0.120 C 
ATOM      2  N   UNL     1       8.018  -2.545  25.650  0.00  0.00    -0.048 NA
ENDROOT
BRANCH   1   3
ATOM      3  S   UNL     1       7.407  -1.319  23.315  0.00  0.00    -0.107 S 
BRANCH   3   5
ATOM      4  C   UNL     1       9.262  -0.482  21.479  0.00  0.00    +0.015 C 
ATOM      5  C   UNL     1       8.869  -1.691  22.317  0.00  0.00    +0.072 C 
ENDBRANCH   3   5
ENDBRANCH   1   3
BRANCH   2   6
ATOM      6  O   UNL     1       7.611  -3.654  24.857  0.00  0.00    -0.207 OA
BRANCH   6   7
ATOM      7  S   UNL     1       8.781  -4.792  24.631  0.00  0.00    +0.271 S 
ATOM      8  O   UNL     1      10.070  -4.138  24.600  0.00  0.00    -0.106 OA
ATOM      9  O   UNL     1       8.353  -5.680  23.573  0.00  0.00    -0.106 OA
BRANCH   7  10
ATOM     10  O   UNL     1       8.698  -5.657  25.996  0.00  0.00    -0.221 OA
ATOM     11  H   UNL     1       7.917  -5.324  26.485  0.00  0.00    +0.248 HD
ENDBRANCH   7  10
ENDBRANCH   6   7
ENDBRANCH   2   6
BRANCH   1  12
ATOM     12  C   UNL     1       8.343  -0.160  25.750  0.00  0.00    +0.101 C 
BRANCH  12  13
ATOM     13  C   UNL     1       9.167   0.849  24.980  0.00  0.00    -0.041 A 
ATOM     14  C   UNL     1      10.520   0.653  24.671  0.00  0.00    +0.004 A 
ATOM     15  C   UNL     1      11.228   1.618  23.948  0.00  0.00    +0.000 A 
ATOM     16  C   UNL     1      10.604   2.799  23.552  0.00  0.00    +0.000 A 
ATOM     17  C   UNL     1       9.279   3.032  23.902  0.00  0.00    +0.000 A 
ATOM     18  C   UNL     1       8.568   2.067  24.619  0.00  0.00    +0.004 A 
ENDBRANCH  12  13
ENDBRANCH   1  12
TORSDOF 7
ENDMDL
MODEL 7
REMARK VINA RESULT:      -4.9      1.765      2.514
REMARK  Name = 
REMARK  8 active torsions:
REMARK  status: ('A' for Active; 'I' for Inactive)
REMARK    1  A    between atoms: C_1  and  C_2
REMARK    2  A    between atoms: C_2  and  S_3
REMARK    3  A    between atoms: S_3  and  C_4
REMARK    4  A    between atoms: C_4  and  C_5
REMARK    5  A    between atoms: C_5  and  C_6
REMARK    6  A    between atoms: N_12  and  O_13
REMARK    7  A    between atoms: O_13  and  S_14
REMARK    8  A    between atoms: S_14  and  O_15
REMARK                            x       y       z     vdW  Elec       q    Type
REMARK                         _______ _______ _______ _____ _____    ______ ____
ROOT
ATOM      1  C   UNL     1       7.950  -3.374  23.287  0.00  0.00    +0.120 C 
ATOM      2  N   UNL     1       8.643  -4.235  23.980  0.00  0.00    -0.048 NA
ENDROOT
BRANCH   1   3
ATOM      3  S   UNL     1       6.201  -3.185  23.467  0.00  0.00    -0.107 S 
BRANCH   3   5
ATOM      4  C   UNL     1       6.255  -4.940  21.362  0.00  0.00    +0.015 C 
ATOM      5  C   UNL     1       5.469  -4.608  22.624  0.00  0.00    +0.072 C 
ENDBRANCH   3   5
ENDBRANCH   1   3
BRANCH   2   6
ATOM      6  O   UNL     1       7.832  -4.974  24.886  0.00  0.00    -0.207 OA
BRANCH   6   7
ATOM      7  S   UNL     1       8.149  -4.678  26.475  0.00  0.00    +0.271 S 
ATOM      8  O   UNL     1       7.229  -3.674  26.958  0.00  0.00    -0.106 OA
ATOM      9  O   UNL     1       9.580  -4.538  26.633  0.00  0.00    -0.106 OA
BRANCH   7  10
ATOM     10  O   UNL     1       7.762  -6.084  27.178  0.00  0.00    -0.221 OA
ATOM     11  H   UNL     1       7.703  -5.903  28.139  0.00  0.00    +0.248 HD
ENDBRANCH   7  10
ENDBRANCH   6   7
ENDBRANCH   2   6
BRANCH   1  12
ATOM     12  C   UNL     1       8.715  -2.517  22.292  0.00  0.00    +0.101 C 
BRANCH  12  13
ATOM     13  C   UNL     1       9.323  -1.241  22.832  0.00  0.00    -0.041 A 
ATOM     14  C   UNL     1       9.647  -1.064  24.184  0.00  0.00    +0.004 A 
ATOM     15  C   UNL     1      10.216   0.136  24.624  0.00  0.00    +0.000 A 
ATOM     16  C   UNL     1      10.441   1.179  23.728  0.00  0.00    +0.000 A 
ATOM     17  C   UNL     1      10.070   1.036  22.395  0.00  0.00    +0.000 A 
ATOM     18  C   UNL     1       9.507  -0.162  21.953  0.00  0.00    +0.004 A 
ENDBRANCH  12  13
ENDBRANCH   1  12
TORSDOF 7
ENDMDL
MODEL 8
REMARK VINA RESULT:      -4.9      2.585      3.874
REMARK  Name = 
REMARK  8 active torsions:
REMARK  status: ('A' for Active; 'I' for Inactive)
REMARK    1  A    between atoms: C_1  and  C_2
REMARK    2  A    between atoms: C_2  and  S_3
REMARK    3  A    between atoms: S_3  and  C_4
REMARK    4  A    between atoms: C_4  and  C_5
REMARK    5  A    between atoms: C_5  and  C_6
REMARK    6  A    between atoms: N_12  and  O_13
REMARK    7  A    between atoms: O_13  and  S_14
REMARK    8  A    between atoms: S_14  and  O_15
REMARK                            x       y       z     vdW  Elec       q    Type
REMARK                         _______ _______ _______ _____ _____    ______ ____
ROOT
ATOM      1  C   UNL     1       8.178  -4.134  26.154  0.00  0.00    +0.120 C 
ATOM      2  N   UNL     1       7.646  -4.524  27.280  0.00  0.00    -0.048 NA
ENDROOT
BRANCH   1   3
ATOM      3  S   UNL     1       8.447  -5.231  24.793  0.00  0.00    -0.107 S 
BRANCH   3   5
ATOM      4  C   UNL     1       7.243  -4.914  22.350  0.00  0.00    +0.015 C 
ATOM      5  C   UNL     1       6.925  -5.177  23.817  0.00  0.00    +0.072 C 
ENDBRANCH   3   5
ENDBRANCH   1   3
BRANCH   2   6
ATOM      6  O   UNL     1       7.306  -5.905  27.266  0.00  0.00    -0.207 OA
BRANCH   6   7
ATOM      7  S   UNL     1       6.121  -6.322  28.332  0.00  0.00    +0.271 S 
ATOM      8  O   UNL     1       5.416  -5.129  28.740  0.00  0.00    -0.106 OA
ATOM      9  O   UNL     1       6.682  -7.242  29.297  0.00  0.00    -0.106 OA
BRANCH   7  10
ATOM     10  O   UNL     1       5.118  -7.201  27.414  0.00  0.00    -0.221 OA
ATOM     11  H   UNL     1       4.256  -6.735  27.427  0.00  0.00    +0.248 HD
ENDBRANCH   7  10
ENDBRANCH   6   7
ENDBRANCH   2   6
BRANCH   1  12
ATOM     12  C   UNL     1       8.571  -2.671  26.049  0.00  0.00    +0.101 C 
BRANCH  12  13
ATOM     13  C   UNL     1       8.663  -2.099  24.650  0.00  0.00    -0.041 A 
ATOM     14  C   UNL     1       7.571  -1.519  23.990  0.00  0.00    +0.004 A 
ATOM     15  C   UNL     1       7.719  -0.999  22.700  0.00  0.00    +0.000 A 
ATOM     16  C   UNL     1       8.946  -1.077  22.046  0.00  0.00    +0.000 A 
ATOM     17  C   UNL     1      10.022  -1.702  22.667  0.00  0.00    +0.000 A 
ATOM     18  C   UNL     1       9.878  -2.218  23.957  0.00  0.00    +0.004 A 
ENDBRANCH  12  13
ENDBRANCH   1  12
TORSDOF 7
ENDMDL
MODEL 9
REMARK VINA RESULT:      -4.7      1.830      2.833
REMARK  Name = 
REMARK  8 active torsions:
REMARK  status: ('A' for Active; 'I' for Inactive)
REMARK    1  A    between atoms: C_1  and  C_2
REMARK    2  A    between atoms: C_2  and  S_3
REMARK    3  A    between atoms: S_3  and  C_4
REMARK    4  A    between atoms: C_4  and  C_5
REMARK    5  A    between atoms: C_5  and  C_6
REMARK    6  A    between atoms: N_12  and  O_13
REMARK    7  A    between atoms: O_13  and  S_14
REMARK    8  A    between atoms: S_14  and  O_15
REMARK                            x       y       z     vdW  Elec       q    Type
REMARK                         _______ _______ _______ _____ _____    ______ ____
ROOT
ATOM      1  C   UNL     1       7.472  -1.365  25.326  0.00  0.00    +0.120 C 
ATOM      2  N   UNL     1       8.623  -1.909  25.610  0.00  0.00    -0.048 NA
ENDROOT
BRANCH   1   3
ATOM      3  S   UNL     1       5.979  -2.303  25.181  0.00  0.00    -0.107 S 
BRANCH   3   5
ATOM      4  C   UNL     1       4.922  -3.880  23.202  0.00  0.00    +0.015 C 
ATOM      5  C   UNL     1       5.792  -2.648  23.414  0.00  0.00    +0.072 C 
ENDBRANCH   3   5
ENDBRANCH   1   3
BRANCH   2   6
ATOM      6  O   UNL     1       8.522  -3.316  25.798  0.00  0.00    -0.207 OA
BRANCH   6   7
ATOM      7  S   UNL     1       9.361  -4.208  24.696  0.00  0.00    +0.271 S 
ATOM      8  O   UNL     1      10.344  -3.362  24.058  0.00  0.00    -0.106 OA
ATOM      9  O   UNL     1       8.415  -4.988  23.928  0.00  0.00    -0.106 OA
BRANCH   7  10
ATOM     10  O   UNL     1      10.151  -5.267  25.630  0.00  0.00    -0.221 OA
ATOM     11  H   UNL     1       9.914  -6.157  25.298  0.00  0.00    +0.248 HD
ENDBRANCH   7  10
ENDBRANCH   6   7
ENDBRANCH   2   6
BRANCH   1  12
ATOM     12  C   UNL     1       7.455   0.139  25.115  0.00  0.00    +0.101 C 
BRANCH  12  13
ATOM     13  C   UNL     1       8.400   0.680  24.064  0.00  0.00    -0.041 A 
ATOM     14  C   UNL     1       9.463   1.543  24.366  0.00  0.00    +0.004 A 
ATOM     15  C   UNL     1      10.309   2.004  23.353  0.00  0.00    +0.000 A 
ATOM     16  C   UNL     1      10.089   1.634  22.028  0.00  0.00    +0.000 A 
ATOM     17  C   UNL     1       9.003   0.825  21.708  0.00  0.00    +0.000 A 
ATOM     18  C   UNL     1       8.160   0.359  22.719  0.00  0.00    +0.004 A 
ENDBRANCH  12  13
ENDBRANCH   1  12
TORSDOF 7
ENDMDL
