MODEL 1
REMARK VINA RESULT:      -7.7      0.000      0.000
REMARK  Name = 
REMARK  17 active torsions:
REMARK  status: ('A' for Active; 'I' for Inactive)
REMARK    1  A    between atoms: C_1  and  C_2
REMARK    2  A    between atoms: C_5  and  O_7
REMARK    3  A    between atoms: O_7  and  C_8
REMARK    4  A    between atoms: C_10  and  C_12
REMARK    5  A    between atoms: C_12  and  O_13
REMARK    6  A    between atoms: C_15  and  O_17
REMARK    7  A    between atoms: C_18  and  O_20
REMARK    8  A    between atoms: C_21  and  O_23
REMARK    9  A    between atoms: C_24  and  O_26
REMARK   10  A    between atoms: C_27  and  O_29
REMARK   11  A    between atoms: C_30  and  N_32
REMARK   12  A    between atoms: N_32  and  C_33
REMARK   13  A    between atoms: C_36  and  C_37
REMARK   14  A    between atoms: C_37  and  O_38
REMARK   15  A    between atoms: C_39  and  O_41
REMARK   16  A    between atoms: C_42  and  O_44
REMARK   17  A    between atoms: C_45  and  O_47
REMARK                            x       y       z     vdW  Elec       q    Type
REMARK                         _______ _______ _______ _____ _____    ______ ____
ROOT
ATOM      1  C   UNL     1       7.185  -4.530  22.185  0.00  0.00    +0.039 C 
ATOM      2  C   UNL     1       7.417  -4.805  23.664  0.00  0.00    +0.138 C 
ATOM      3  C   UNL     1       6.372  -4.266  24.717  0.00  0.00    +0.114 C 
ATOM      4  C   UNL     1       6.920  -3.264  25.776  0.00  0.00    +0.167 C 
ATOM      5  C   UNL     1       8.432  -3.331  25.955  0.00  0.00    +0.200 C 
ATOM      6  C   UNL     1       9.115  -3.338  24.573  0.00  0.00    +0.282 C 
ATOM      7  O   UNL     1       8.798  -4.531  23.893  0.00  0.00    -0.344 OA
ENDROOT
BRANCH   4   8
ATOM      8  O   UNL     1       6.506  -1.915  25.495  0.00  0.00    -0.387 OA
ATOM      9  H   UNL     1       7.264  -1.330  25.693  0.00  0.00    +0.210 HD
ENDBRANCH   4   8
BRANCH   5  10
ATOM     10  O   UNL     1       8.766  -4.487  26.731  0.00  0.00    -0.384 OA
ATOM     11  H   UNL     1       8.142  -5.197  26.500  0.00  0.00    +0.210 HD
ENDBRANCH   5  10
BRANCH   3  12
ATOM     12  N   UNL     1       5.078  -3.828  24.123  0.00  0.00    -0.300 NA
ATOM     13  H   UNL     1       5.074  -2.795  24.191  0.00  0.00    +0.123 HD
BRANCH  12  14
ATOM     14  C   UNL     1       3.876  -4.240  24.904  0.00  0.00    +0.109 C 
ATOM     15  C   UNL     1       3.075  -5.378  24.215  0.00  0.00    +0.166 C 
ATOM     16  C   UNL     1       3.598  -6.803  24.469  0.00  0.00    +0.177 C 
ATOM     17  C   UNL     1       4.048  -7.070  25.919  0.00  0.00    +0.173 C 
ATOM     18  C   UNL     1       4.403  -5.875  26.759  0.00  0.00    -0.016 C 
ATOM     19  C   UNL     1       4.286  -4.615  26.292  0.00  0.00    -0.002 C 
BRANCH  17  20
ATOM     20  O   UNL     1       3.013  -7.788  26.599  0.00  0.00    -0.385 OA
ATOM     21  H   UNL     1       2.182  -7.621  26.119  0.00  0.00    +0.210 HD
ENDBRANCH  17  20
BRANCH  16  22
ATOM     22  O   UNL     1       4.660  -7.086  23.530  0.00  0.00    -0.386 OA
ATOM     23  H   UNL     1       5.489  -6.833  23.976  0.00  0.00    +0.210 HD
ENDBRANCH  16  22
BRANCH  15  24
ATOM     24  O   UNL     1       3.031  -5.155  22.790  0.00  0.00    -0.387 OA
ATOM     25  H   UNL     1       2.105  -5.385  22.559  0.00  0.00    +0.210 HD
ENDBRANCH  15  24
BRANCH  18  26
ATOM     26  C   UNL     1       4.966  -6.199  28.121  0.00  0.00    +0.189 C 
BRANCH  26  27
ATOM     27  O   UNL     1       5.389  -7.552  28.222  0.00  0.00    -0.391 OA
ATOM     28  H   UNL     1       6.205  -7.627  27.699  0.00  0.00    +0.210 HD
ENDBRANCH  26  27
ENDBRANCH  18  26
ENDBRANCH  12  14
ENDBRANCH   3  12
BRANCH   6  29
ATOM     29  O   UNL     1       8.781  -2.127  23.884  0.00  0.00    -0.340 OA
BRANCH  29  30
ATOM     30  C   UNL     1       9.830  -1.165  23.627  0.00  0.00    +0.183 C 
ATOM     31  C   UNL     1       9.384  -0.361  22.368  0.00  0.00    +0.179 C 
ATOM     32  C   UNL     1      10.080   0.992  22.167  0.00  0.00    +0.201 C 
ATOM     33  C   UNL     1      10.155   1.744  23.493  0.00  0.00    +0.279 C 
ATOM     34  O   UNL     1      10.872   0.949  24.425  0.00  0.00    -0.341 OA
ATOM     35  C   UNL     1      10.161  -0.239  24.826  0.00  0.00    +0.178 C 
BRANCH  33  36
ATOM     36  O   UNL     1      10.832   2.982  23.319  0.00  0.00    -0.365 OA
ATOM     37  H   UNL     1      10.588   3.292  22.426  0.00  0.00    +0.213 HD
ENDBRANCH  33  36
BRANCH  32  38
ATOM     38  O   UNL     1       9.348   1.795  21.220  0.00  0.00    -0.384 OA
ATOM     39  H   UNL     1       9.740   1.650  20.342  0.00  0.00    +0.210 HD
ENDBRANCH  32  38
BRANCH  31  40
ATOM     40  O   UNL     1       9.614  -1.161  21.190  0.00  0.00    -0.386 OA
ATOM     41  H   UNL     1       9.080  -1.971  21.271  0.00  0.00    +0.210 HD
ENDBRANCH  31  40
BRANCH  35  42
ATOM     42  C   UNL     1       8.984   0.168  25.728  0.00  0.00    +0.190 C 
BRANCH  42  43
ATOM     43  O   UNL     1       9.236  -0.269  27.063  0.00  0.00    -0.392 OA
ATOM     44  H   UNL     1       8.545   0.132  27.629  0.00  0.00    +0.210 HD
ENDBRANCH  42  43
ENDBRANCH  35  42
ENDBRANCH  29  30
ENDBRANCH   6  29
TORSDOF 16
ENDMDL
MODEL 2
REMARK VINA RESULT:      -7.7      2.047      8.131
REMARK  Name = 
REMARK  17 active torsions:
REMARK  status: ('A' for Active; 'I' for Inactive)
REMARK    1  A    between atoms: C_1  and  C_2
REMARK    2  A    between atoms: C_5  and  O_7
REMARK    3  A    between atoms: O_7  and  C_8
REMARK    4  A    between atoms: C_10  and  C_12
REMARK    5  A    between atoms: C_12  and  O_13
REMARK    6  A    between atoms: C_15  and  O_17
REMARK    7  A    between atoms: C_18  and  O_20
REMARK    8  A    between atoms: C_21  and  O_23
REMARK    9  A    between atoms: C_24  and  O_26
REMARK   10  A    between atoms: C_27  and  O_29
REMARK   11  A    between atoms: C_30  and  N_32
REMARK   12  A    between atoms: N_32  and  C_33
REMARK   13  A    between atoms: C_36  and  C_37
REMARK   14  A    between atoms: C_37  and  O_38
REMARK   15  A    between atoms: C_39  and  O_41
REMARK   16  A    between atoms: C_42  and  O_44
REMARK   17  A    between atoms: C_45  and  O_47
REMARK                            x       y       z     vdW  Elec       q    Type
REMARK                         _______ _______ _______ _____ _____    ______ ____
ROOT
ATOM      1  C   UNL     1       6.177  -1.550  26.107  0.00  0.00    +0.039 C 
ATOM      2  C   UNL     1       7.431  -2.313  26.511  0.00  0.00    +0.138 C 
ATOM      3  C   UNL     1       8.659  -2.348  25.520  0.00  0.00    +0.114 C 
ATOM      4  C   UNL     1       9.095  -3.756  25.017  0.00  0.00    +0.167 C 
ATOM      5  C   UNL     1       8.620  -4.897  25.909  0.00  0.00    +0.200 C 
ATOM      6  C   UNL     1       7.129  -4.700  26.247  0.00  0.00    +0.282 C 
ATOM      7  O   UNL     1       6.970  -3.551  27.047  0.00  0.00    -0.344 OA
ENDROOT
BRANCH   4   8
ATOM      8  O   UNL     1       8.692  -3.982  23.655  0.00  0.00    -0.387 OA
ATOM      9  H   UNL     1       9.245  -3.409  23.087  0.00  0.00    +0.210 HD
ENDBRANCH   4   8
BRANCH   5  10
ATOM     10  O   UNL     1       9.439  -4.953  27.082  0.00  0.00    -0.384 OA
ATOM     11  H   UNL     1       9.194  -5.750  27.584  0.00  0.00    +0.210 HD
ENDBRANCH   5  10
BRANCH   3  12
ATOM     12  N   UNL     1       8.588  -1.341  24.424  0.00  0.00    -0.300 NA
ATOM     13  H   UNL     1       8.602  -1.883  23.543  0.00  0.00    +0.123 HD
BRANCH  12  14
ATOM     14  C   UNL     1       9.791  -0.465  24.320  0.00  0.00    +0.109 C 
ATOM     15  C   UNL     1      10.525  -0.614  22.960  0.00  0.00    +0.166 C 
ATOM     16  C   UNL     1       9.948   0.220  21.802  0.00  0.00    +0.177 C 
ATOM     17  C   UNL     1       9.524   1.649  22.193  0.00  0.00    +0.173 C 
ATOM     18  C   UNL     1       9.242   1.909  23.647  0.00  0.00    -0.016 C 
ATOM     19  C   UNL     1       9.401   0.953  24.585  0.00  0.00    -0.002 C 
BRANCH  17  20
ATOM     20  O   UNL     1      10.545   2.564  21.778  0.00  0.00    -0.385 OA
ATOM     21  H   UNL     1      10.112   3.417  21.596  0.00  0.00    +0.210 HD
ENDBRANCH  17  20
BRANCH  16  22
ATOM     22  O   UNL     1       8.852  -0.507  21.203  0.00  0.00    -0.386 OA
ATOM     23  H   UNL     1       8.429  -1.002  21.927  0.00  0.00    +0.210 HD
ENDBRANCH  16  22
BRANCH  15  24
ATOM     24  O   UNL     1      10.542  -2.000  22.560  0.00  0.00    -0.387 OA
ATOM     25  H   UNL     1       9.783  -2.382  23.053  0.00  0.00    +0.210 HD
ENDBRANCH  15  24
BRANCH  18  26
ATOM     26  C   UNL     1       8.700   3.284  23.954  0.00  0.00    +0.189 C 
BRANCH  26  27
ATOM     27  O   UNL     1       8.491   4.056  22.780  0.00  0.00    -0.391 OA
ATOM     28  H   UNL     1       8.168   3.442  22.098  0.00  0.00    +0.210 HD
ENDBRANCH  26  27
ENDBRANCH  18  26
ENDBRANCH  12  14
ENDBRANCH   3  12
BRANCH   6  29
ATOM     29  O   UNL     1       6.371  -4.714  25.030  0.00  0.00    -0.340 OA
BRANCH  29  30
ATOM     30  C   UNL     1       5.143  -5.478  24.988  0.00  0.00    +0.183 C 
ATOM     31  C   UNL     1       3.989  -4.459  25.233  0.00  0.00    +0.179 C 
ATOM     32  C   UNL     1       2.594  -4.920  24.789  0.00  0.00    +0.201 C 
ATOM     33  C   UNL     1       2.674  -5.576  23.412  0.00  0.00    +0.279 C 
ATOM     34  O   UNL     1       3.564  -6.680  23.487  0.00  0.00    -0.341 OA
ATOM     35  C   UNL     1       4.937  -6.292  23.684  0.00  0.00    +0.178 C 
BRANCH  33  36
ATOM     36  O   UNL     1       1.391  -6.038  23.012  0.00  0.00    -0.365 OA
ATOM     37  H   UNL     1       1.003  -5.313  22.487  0.00  0.00    +0.213 HD
ENDBRANCH  33  36
BRANCH  32  38
ATOM     38  O   UNL     1       1.696  -3.797  24.714  0.00  0.00    -0.384 OA
ATOM     39  H   UNL     1       1.911  -3.195  25.448  0.00  0.00    +0.210 HD
ENDBRANCH  32  38
BRANCH  31  40
ATOM     40  O   UNL     1       3.928  -4.145  26.640  0.00  0.00    -0.386 OA
ATOM     41  H   UNL     1       3.388  -3.341  26.744  0.00  0.00    +0.210 HD
ENDBRANCH  31  40
BRANCH  35  42
ATOM     42  C   UNL     1       5.465  -5.658  22.386  0.00  0.00    +0.190 C 
BRANCH  42  43
ATOM     43  O   UNL     1       6.885  -5.797  22.334  0.00  0.00    -0.392 OA
ATOM     44  H   UNL     1       7.262  -4.898  22.429  0.00  0.00    +0.210 HD
ENDBRANCH  42  43
ENDBRANCH  35  42
ENDBRANCH  29  30
ENDBRANCH   6  29
TORSDOF 16
ENDMDL
MODEL 3
REMARK VINA RESULT:      -7.7      2.131      3.722
REMARK  Name = 
REMARK  17 active torsions:
REMARK  status: ('A' for Active; 'I' for Inactive)
REMARK    1  A    between atoms: C_1  and  C_2
REMARK    2  A    between atoms: C_5  and  O_7
REMARK    3  A    between atoms: O_7  and  C_8
REMARK    4  A    between atoms: C_10  and  C_12
REMARK    5  A    between atoms: C_12  and  O_13
REMARK    6  A    between atoms: C_15  and  O_17
REMARK    7  A    between atoms: C_18  and  O_20
REMARK    8  A    between atoms: C_21  and  O_23
REMARK    9  A    between atoms: C_24  and  O_26
REMARK   10  A    between atoms: C_27  and  O_29
REMARK   11  A    between atoms: C_30  and  N_32
REMARK   12  A    between atoms: N_32  and  C_33
REMARK   13  A    between atoms: C_36  and  C_37
REMARK   14  A    between atoms: C_37  and  O_38
REMARK   15  A    between atoms: C_39  and  O_41
REMARK   16  A    between atoms: C_42  and  O_44
REMARK   17  A    between atoms: C_45  and  O_47
REMARK                            x       y       z     vdW  Elec       q    Type
REMARK                         _______ _______ _______ _____ _____    ______ ____
ROOT
ATOM      1  C   UNL     1       6.218  -2.405  22.599  0.00  0.00    +0.039 C 
ATOM      2  C   UNL     1       7.717  -2.626  22.441  0.00  0.00    +0.138 C 
ATOM      3  C   UNL     1       8.564  -3.061  23.700  0.00  0.00    +0.114 C 
ATOM      4  C   UNL     1       9.700  -2.087  24.131  0.00  0.00    +0.167 C 
ATOM      5  C   UNL     1      10.147  -1.140  23.024  0.00  0.00    +0.200 C 
ATOM      6  C   UNL     1       8.909  -0.522  22.344  0.00  0.00    +0.282 C 
ATOM      7  O   UNL     1       8.188  -1.525  21.667  0.00  0.00    -0.344 OA
ENDROOT
BRANCH   4   8
ATOM      8  O   UNL     1       9.345  -1.346  25.312  0.00  0.00    -0.387 OA
ATOM      9  H   UNL     1       8.437  -1.007  25.183  0.00  0.00    +0.210 HD
ENDBRANCH   4   8
BRANCH   5  10
ATOM     10  O   UNL     1      10.974  -1.853  22.097  0.00  0.00    -0.384 OA
ATOM     11  H   UNL     1      10.578  -1.771  21.212  0.00  0.00    +0.210 HD
ENDBRANCH   5  10
BRANCH   3  12
ATOM     12  N   UNL     1       7.747  -3.540  24.850  0.00  0.00    -0.300 NA
ATOM     13  H   UNL     1       8.247  -3.226  25.699  0.00  0.00    +0.123 HD
BRANCH  12  14
ATOM     14  C   UNL     1       7.703  -5.024  24.992  0.00  0.00    +0.109 C 
ATOM     15  C   UNL     1       7.920  -5.492  26.456  0.00  0.00    +0.166 C 
ATOM     16  C   UNL     1       6.667  -5.475  27.350  0.00  0.00    +0.177 C 
ATOM     17  C   UNL     1       5.383  -5.976  26.659  0.00  0.00    +0.173 C 
ATOM     18  C   UNL     1       5.353  -5.942  25.156  0.00  0.00    -0.016 C 
ATOM     19  C   UNL     1       6.418  -5.542  24.431  0.00  0.00    -0.002 C 
BRANCH  17  20
ATOM     20  O   UNL     1       5.134  -7.325  27.069  0.00  0.00    -0.385 OA
ATOM     21  H   UNL     1       4.462  -7.691  26.466  0.00  0.00    +0.210 HD
ENDBRANCH  17  20
BRANCH  16  22
ATOM     22  O   UNL     1       6.490  -4.143  27.883  0.00  0.00    -0.386 OA
ATOM     23  H   UNL     1       7.361  -3.873  28.226  0.00  0.00    +0.210 HD
ENDBRANCH  16  22
BRANCH  15  24
ATOM     24  O   UNL     1       8.939  -4.686  27.084  0.00  0.00    -0.387 OA
ATOM     25  H   UNL     1       9.476  -5.349  27.570  0.00  0.00    +0.210 HD
ENDBRANCH  15  24
BRANCH  18  26
ATOM     26  C   UNL     1       4.027  -6.312  24.537  0.00  0.00    +0.189 C 
BRANCH  26  27
ATOM     27  O   UNL     1       3.948  -7.694  24.218  0.00  0.00    -0.391 OA
ATOM     28  H   UNL     1       3.536  -8.132  24.983  0.00  0.00    +0.210 HD
ENDBRANCH  26  27
ENDBRANCH  18  26
ENDBRANCH  12  14
ENDBRANCH   3  12
BRANCH   6  29
ATOM     29  O   UNL     1       8.167   0.221  23.320  0.00  0.00    -0.340 OA
BRANCH  29  30
ATOM     30  C   UNL     1       8.667   1.515  23.731  0.00  0.00    +0.183 C 
ATOM     31  C   UNL     1       8.255   2.517  22.610  0.00  0.00    +0.179 C 
ATOM     32  C   UNL     1       8.258   3.998  23.012  0.00  0.00    +0.201 C 
ATOM     33  C   UNL     1       7.608   4.169  24.383  0.00  0.00    +0.279 C 
ATOM     34  O   UNL     1       8.331   3.394  25.328  0.00  0.00    -0.341 OA
ATOM     35  C   UNL     1       8.184   1.974  25.132  0.00  0.00    +0.178 C 
BRANCH  33  36
ATOM     36  O   UNL     1       7.641   5.534  24.777  0.00  0.00    -0.365 OA
ATOM     37  H   UNL     1       7.851   6.036  23.966  0.00  0.00    +0.213 HD
ENDBRANCH  33  36
BRANCH  32  38
ATOM     38  O   UNL     1       7.523   4.779  22.051  0.00  0.00    -0.384 OA
ATOM     39  H   UNL     1       6.666   4.342  21.906  0.00  0.00    +0.210 HD
ENDBRANCH  32  38
BRANCH  31  40
ATOM     40  O   UNL     1       9.144   2.358  21.485  0.00  0.00    -0.386 OA
ATOM     41  H   UNL     1       9.226   3.222  21.045  0.00  0.00    +0.210 HD
ENDBRANCH  31  40
BRANCH  35  42
ATOM     42  C   UNL     1       6.759   1.562  25.539  0.00  0.00    +0.190 C 
BRANCH  42  43
ATOM     43  O   UNL     1       6.698   0.143  25.678  0.00  0.00    -0.392 OA
ATOM     44  H   UNL     1       6.067  -0.182  25.002  0.00  0.00    +0.210 HD
ENDBRANCH  42  43
ENDBRANCH  35  42
ENDBRANCH  29  30
ENDBRANCH   6  29
TORSDOF 16
ENDMDL
MODEL 4
REMARK VINA RESULT:      -7.7      1.519      2.188
REMARK  Name = 
REMARK  17 active torsions:
REMARK  status: ('A' for Active; 'I' for Inactive)
REMARK    1  A    between atoms: C_1  and  C_2
REMARK    2  A    between atoms: C_5  and  O_7
REMARK    3  A    between atoms: O_7  and  C_8
REMARK    4  A    between atoms: C_10  and  C_12
REMARK    5  A    between atoms: C_12  and  O_13
REMARK    6  A    between atoms: C_15  and  O_17
REMARK    7  A    between atoms: C_18  and  O_20
REMARK    8  A    between atoms: C_21  and  O_23
REMARK    9  A    between atoms: C_24  and  O_26
REMARK   10  A    between atoms: C_27  and  O_29
REMARK   11  A    between atoms: C_30  and  N_32
REMARK   12  A    between atoms: N_32  and  C_33
REMARK   13  A    between atoms: C_36  and  C_37
REMARK   14  A    between atoms: C_37  and  O_38
REMARK   15  A    between atoms: C_39  and  O_41
REMARK   16  A    between atoms: C_42  and  O_44
REMARK   17  A    between atoms: C_45  and  O_47
REMARK                            x       y       z     vdW  Elec       q    Type
REMARK                         _______ _______ _______ _____ _____    ______ ____
ROOT
ATOM      1  C   UNL     1       6.512  -3.383  22.785  0.00  0.00    +0.039 C 
ATOM      2  C   UNL     1       7.315  -4.403  23.582  0.00  0.00    +0.138 C 
ATOM      3  C   UNL     1       6.984  -4.611  25.111  0.00  0.00    +0.114 C 
ATOM      4  C   UNL     1       8.141  -4.311  26.109  0.00  0.00    +0.167 C 
ATOM      5  C   UNL     1       9.524  -4.345  25.470  0.00  0.00    +0.200 C 
ATOM      6  C   UNL     1       9.504  -3.543  24.154  0.00  0.00    +0.282 C 
ATOM      7  O   UNL     1       8.676  -4.191  23.215  0.00  0.00    -0.344 OA
ENDROOT
BRANCH   4   8
ATOM      8  O   UNL     1       7.938  -3.065  26.800  0.00  0.00    -0.387 OA
ATOM      9  H   UNL     1       7.209  -3.200  27.437  0.00  0.00    +0.210 HD
ENDBRANCH   4   8
BRANCH   5  10
ATOM     10  O   UNL     1       9.918  -5.707  25.268  0.00  0.00    -0.384 OA
ATOM     11  H   UNL     1      10.393  -6.006  26.063  0.00  0.00    +0.210 HD
ENDBRANCH   5  10
BRANCH   3  12
ATOM     12  N   UNL     1       5.685  -4.023  25.541  0.00  0.00    -0.300 NA
ATOM     13  H   UNL     1       5.927  -3.201  26.121  0.00  0.00    +0.123 HD
BRANCH  12  14
ATOM     14  C   UNL     1       4.897  -4.889  26.465  0.00  0.00    +0.109 C 
ATOM     15  C   UNL     1       3.656  -4.166  27.053  0.00  0.00    +0.166 C 
ATOM     16  C   UNL     1       2.404  -4.165  26.156  0.00  0.00    +0.177 C 
ATOM     17  C   UNL     1       2.135  -5.500  25.434  0.00  0.00    +0.173 C 
ATOM     18  C   UNL     1       3.299  -6.437  25.264  0.00  0.00    -0.016 C 
ATOM     19  C   UNL     1       4.520  -6.154  25.764  0.00  0.00    -0.002 C 
BRANCH  17  20
ATOM     20  O   UNL     1       1.108  -6.207  26.138  0.00  0.00    -0.385 OA
ATOM     21  H   UNL     1       1.419  -6.335  27.053  0.00  0.00    +0.210 HD
ENDBRANCH  17  20
BRANCH  16  22
ATOM     22  O   UNL     1       2.501  -3.072  25.217  0.00  0.00    -0.386 OA
ATOM     23  H   UNL     1       2.659  -2.271  25.750  0.00  0.00    +0.210 HD
ENDBRANCH  16  22
BRANCH  15  24
ATOM     24  O   UNL     1       3.989  -2.799  27.372  0.00  0.00    -0.387 OA
ATOM     25  H   UNL     1       4.905  -2.870  27.718  0.00  0.00    +0.210 HD
ENDBRANCH  15  24
BRANCH  18  26
ATOM     26  C   UNL     1       3.013  -7.663  24.433  0.00  0.00    +0.189 C 
BRANCH  26  27
ATOM     27  O   UNL     1       2.694  -8.794  25.232  0.00  0.00    -0.391 OA
ATOM     28  H   UNL     1       3.522  -9.289  25.355  0.00  0.00    +0.210 HD
ENDBRANCH  26  27
ENDBRANCH  18  26
ENDBRANCH  12  14
ENDBRANCH   3  12
BRANCH   6  29
ATOM     29  O   UNL     1       9.160  -2.183  24.445  0.00  0.00    -0.340 OA
BRANCH  29  30
ATOM     30  C   UNL     1      10.008  -1.129  23.933  0.00  0.00    +0.183 C 
ATOM     31  C   UNL     1       9.419  -0.733  22.545  0.00  0.00    +0.179 C 
ATOM     32  C   UNL     1       9.847   0.642  22.013  0.00  0.00    +0.201 C 
ATOM     33  C   UNL     1       9.775   1.680  23.131  0.00  0.00    +0.279 C 
ATOM     34  O   UNL     1      10.629   1.267  24.188  0.00  0.00    -0.341 OA
ATOM     35  C   UNL     1      10.156   0.093  24.876  0.00  0.00    +0.178 C 
BRANCH  33  36
ATOM     36  O   UNL     1      10.205   2.948  22.652  0.00  0.00    -0.365 OA
ATOM     37  H   UNL     1       9.704   3.102  21.830  0.00  0.00    +0.213 HD
ENDBRANCH  33  36
BRANCH  32  38
ATOM     38  O   UNL     1       8.978   1.056  20.941  0.00  0.00    -0.384 OA
ATOM     39  H   UNL     1       9.401   0.807  20.102  0.00  0.00    +0.210 HD
ENDBRANCH  32  38
BRANCH  31  40
ATOM     40  O   UNL     1       9.800  -1.726  21.570  0.00  0.00    -0.386 OA
ATOM     41  H   UNL     1      10.037  -1.262  20.747  0.00  0.00    +0.210 HD
ENDBRANCH  31  40
BRANCH  35  42
ATOM     42  C   UNL     1       8.921   0.472  25.711  0.00  0.00    +0.190 C 
BRANCH  42  43
ATOM     43  O   UNL     1       8.878  -0.337  26.887  0.00  0.00    -0.392 OA
ATOM     44  H   UNL     1       8.085  -0.062  27.392  0.00  0.00    +0.210 HD
ENDBRANCH  42  43
ENDBRANCH  35  42
ENDBRANCH  29  30
ENDBRANCH   6  29
TORSDOF 16
ENDMDL
MODEL 5
REMARK VINA RESULT:      -7.5      2.576      8.473
REMARK  Name = 
REMARK  17 active torsions:
REMARK  status: ('A' for Active; 'I' for Inactive)
REMARK    1  A    between atoms: C_1  and  C_2
REMARK    2  A    between atoms: C_5  and  O_7
REMARK    3  A    between atoms: O_7  and  C_8
REMARK    4  A    between atoms: C_10  and  C_12
REMARK    5  A    between atoms: C_12  and  O_13
REMARK    6  A    between atoms: C_15  and  O_17
REMARK    7  A    between atoms: C_18  and  O_20
REMARK    8  A    between atoms: C_21  and  O_23
REMARK    9  A    between atoms: C_24  and  O_26
REMARK   10  A    between atoms: C_27  and  O_29
REMARK   11  A    between atoms: C_30  and  N_32
REMARK   12  A    between atoms: N_32  and  C_33
REMARK   13  A    between atoms: C_36  and  C_37
REMARK   14  A    between atoms: C_37  and  O_38
REMARK   15  A    between atoms: C_39  and  O_41
REMARK   16  A    between atoms: C_42  and  O_44
REMARK   17  A    between atoms: C_45  and  O_47
REMARK                            x       y       z     vdW  Elec       q    Type
REMARK                         _______ _______ _______ _____ _____    ______ ____
ROOT
ATOM      1  C   UNL     1       9.087  -0.798  26.243  0.00  0.00    +0.039 C 
ATOM      2  C   UNL     1       9.445  -0.685  24.767  0.00  0.00    +0.138 C 
ATOM      3  C   UNL     1       8.493   0.132  23.808  0.00  0.00    +0.114 C 
ATOM      4  C   UNL     1       7.857  -0.665  22.632  0.00  0.00    +0.167 C 
ATOM      5  C   UNL     1       8.607  -1.946  22.285  0.00  0.00    +0.200 C 
ATOM      6  C   UNL     1       8.919  -2.726  23.577  0.00  0.00    +0.282 C 
ATOM      7  O   UNL     1       9.832  -1.997  24.364  0.00  0.00    -0.344 OA
ENDROOT
BRANCH   4   8
ATOM      8  O   UNL     1       6.466  -0.947  22.871  0.00  0.00    -0.387 OA
ATOM      9  H   UNL     1       6.304  -1.871  22.598  0.00  0.00    +0.210 HD
ENDBRANCH   4   8
BRANCH   5  10
ATOM     10  O   UNL     1       9.791  -1.616  21.552  0.00  0.00    -0.384 OA
ATOM     11  H   UNL     1       9.913  -0.652  21.590  0.00  0.00    +0.210 HD
ENDBRANCH   5  10
BRANCH   3  12
ATOM     12  N   UNL     1       7.510   0.998  24.517  0.00  0.00    -0.300 NA
ATOM     13  H   UNL     1       6.597   0.520  24.425  0.00  0.00    +0.123 HD
BRANCH  12  14
ATOM     14  C   UNL     1       7.284   2.323  23.870  0.00  0.00    +0.109 C 
ATOM     15  C   UNL     1       6.521   3.316  24.789  0.00  0.00    +0.166 C 
ATOM     16  C   UNL     1       7.391   4.078  25.805  0.00  0.00    +0.177 C 
ATOM     17  C   UNL     1       8.743   4.567  25.248  0.00  0.00    +0.173 C 
ATOM     18  C   UNL     1       9.279   3.866  24.031  0.00  0.00    -0.016 C 
ATOM     19  C   UNL     1       8.591   2.885  23.413  0.00  0.00    -0.002 C 
BRANCH  17  20
ATOM     20  O   UNL     1       8.637   5.961  24.937  0.00  0.00    -0.385 OA
ATOM     21  H   UNL     1       8.159   6.386  25.671  0.00  0.00    +0.210 HD
ENDBRANCH  17  20
BRANCH  16  22
ATOM     22  O   UNL     1       7.574   3.254  26.977  0.00  0.00    -0.386 OA
ATOM     23  H   UNL     1       7.585   2.332  26.659  0.00  0.00    +0.210 HD
ENDBRANCH  16  22
BRANCH  15  24
ATOM     24  O   UNL     1       5.482   2.621  25.509  0.00  0.00    -0.387 OA
ATOM     25  H   UNL     1       4.780   2.511  24.831  0.00  0.00    +0.210 HD
ENDBRANCH  15  24
BRANCH  18  26
ATOM     26  C   UNL     1      10.665   4.291  23.612  0.00  0.00    +0.189 C 
BRANCH  26  27
ATOM     27  O   UNL     1      10.668   5.550  22.953  0.00  0.00    -0.391 OA
ATOM     28  H   UNL     1      10.301   6.193  23.583  0.00  0.00    +0.210 HD
ENDBRANCH  26  27
ENDBRANCH  18  26
ENDBRANCH  12  14
ENDBRANCH   3  12
BRANCH   6  29
ATOM     29  O   UNL     1       7.685  -3.069  24.221  0.00  0.00    -0.340 OA
BRANCH  29  30
ATOM     30  C   UNL     1       7.496  -4.430  24.674  0.00  0.00    +0.183 C 
ATOM     31  C   UNL     1       7.608  -4.391  26.229  0.00  0.00    +0.179 C 
ATOM     32  C   UNL     1       7.002  -5.592  26.967  0.00  0.00    +0.201 C 
ATOM     33  C   UNL     1       5.641  -5.940  26.367  0.00  0.00    +0.279 C 
ATOM     34  O   UNL     1       5.815  -6.237  24.990  0.00  0.00    -0.341 OA
ATOM     35  C   UNL     1       6.174  -5.087  24.200  0.00  0.00    +0.178 C 
BRANCH  33  36
ATOM     36  O   UNL     1       5.091  -7.076  27.023  0.00  0.00    -0.365 OA
ATOM     37  H   UNL     1       4.744  -7.647  26.313  0.00  0.00    +0.213 HD
ENDBRANCH  33  36
BRANCH  32  38
ATOM     38  O   UNL     1       6.827  -5.285  28.363  0.00  0.00    -0.384 OA
ATOM     39  H   UNL     1       7.671  -4.936  28.699  0.00  0.00    +0.210 HD
ENDBRANCH  32  38
BRANCH  31  40
ATOM     40  O   UNL     1       9.000  -4.296  26.599  0.00  0.00    -0.386 OA
ATOM     41  H   UNL     1       9.157  -4.919  27.331  0.00  0.00    +0.210 HD
ENDBRANCH  31  40
BRANCH  35  42
ATOM     42  C   UNL     1       4.949  -4.164  24.084  0.00  0.00    +0.190 C 
BRANCH  42  43
ATOM     43  O   UNL     1       5.019  -3.435  22.859  0.00  0.00    -0.392 OA
ATOM     44  H   UNL     1       4.783  -2.507  23.066  0.00  0.00    +0.210 HD
ENDBRANCH  42  43
ENDBRANCH  35  42
ENDBRANCH  29  30
ENDBRANCH   6  29
TORSDOF 16
ENDMDL
MODEL 6
REMARK VINA RESULT:      -7.4      2.126      8.169
REMARK  Name = 
REMARK  17 active torsions:
REMARK  status: ('A' for Active; 'I' for Inactive)
REMARK    1  A    between atoms: C_1  and  C_2
REMARK    2  A    between atoms: C_5  and  O_7
REMARK    3  A    between atoms: O_7  and  C_8
REMARK    4  A    between atoms: C_10  and  C_12
REMARK    5  A    between atoms: C_12  and  O_13
REMARK    6  A    between atoms: C_15  and  O_17
REMARK    7  A    between atoms: C_18  and  O_20
REMARK    8  A    between atoms: C_21  and  O_23
REMARK    9  A    between atoms: C_24  and  O_26
REMARK   10  A    between atoms: C_27  and  O_29
REMARK   11  A    between atoms: C_30  and  N_32
REMARK   12  A    between atoms: N_32  and  C_33
REMARK   13  A    between atoms: C_36  and  C_37
REMARK   14  A    between atoms: C_37  and  O_38
REMARK   15  A    between atoms: C_39  and  O_41
REMARK   16  A    between atoms: C_42  and  O_44
REMARK   17  A    between atoms: C_45  and  O_47
REMARK                            x       y       z     vdW  Elec       q    Type
REMARK                         _______ _______ _______ _____ _____    ______ ____
ROOT
ATOM      1  C   UNL     1       9.288  -3.297  24.485  0.00  0.00    +0.039 C 
ATOM      2  C   UNL     1       8.319  -3.336  23.311  0.00  0.00    +0.138 C 
ATOM      3  C   UNL     1       7.244  -2.190  23.166  0.00  0.00    +0.114 C 
ATOM      4  C   UNL     1       5.753  -2.640  23.204  0.00  0.00    +0.167 C 
ATOM      5  C   UNL     1       5.551  -4.115  22.878  0.00  0.00    +0.200 C 
ATOM      6  C   UNL     1       6.563  -4.961  23.677  0.00  0.00    +0.282 C 
ATOM      7  O   UNL     1       7.870  -4.688  23.229  0.00  0.00    -0.344 OA
ENDROOT
BRANCH   4   8
ATOM      8  O   UNL     1       5.130  -2.312  24.458  0.00  0.00    -0.387 OA
ATOM      9  H   UNL     1       4.713  -3.128  24.799  0.00  0.00    +0.210 HD
ENDBRANCH   4   8
BRANCH   5  10
ATOM     10  O   UNL     1       5.678  -4.309  21.466  0.00  0.00    -0.384 OA
ATOM     11  H   UNL     1       5.849  -3.444  21.055  0.00  0.00    +0.210 HD
ENDBRANCH   5  10
BRANCH   3  12
ATOM     12  N   UNL     1       7.507  -0.995  24.016  0.00  0.00    -0.300 NA
ATOM     13  H   UNL     1       6.720  -0.948  24.686  0.00  0.00    +0.123 HD
BRANCH  12  14
ATOM     14  C   UNL     1       7.430   0.303  23.286  0.00  0.00    +0.109 C 
ATOM     15  C   UNL     1       6.490   1.326  23.980  0.00  0.00    +0.166 C 
ATOM     16  C   UNL     1       7.122   2.131  25.130  0.00  0.00    +0.177 C 
ATOM     17  C   UNL     1       8.564   2.606  24.860  0.00  0.00    +0.173 C 
ATOM     18  C   UNL     1       9.348   1.862  23.815  0.00  0.00    -0.016 C 
ATOM     19  C   UNL     1       8.806   0.855  23.100  0.00  0.00    -0.002 C 
BRANCH  17  20
ATOM     20  O   UNL     1       8.532   3.986  24.481  0.00  0.00    -0.385 OA
ATOM     21  H   UNL     1       7.848   4.419  25.022  0.00  0.00    +0.210 HD
ENDBRANCH  17  20
BRANCH  16  22
ATOM     22  O   UNL     1       7.045   1.352  26.344  0.00  0.00    -0.386 OA
ATOM     23  H   UNL     1       7.565   0.544  26.180  0.00  0.00    +0.210 HD
ENDBRANCH  16  22
BRANCH  15  24
ATOM     24  O   UNL     1       5.318   0.653  24.485  0.00  0.00    -0.387 OA
ATOM     25  H   UNL     1       4.748   1.396  24.783  0.00  0.00    +0.210 HD
ENDBRANCH  15  24
BRANCH  18  26
ATOM     26  C   UNL     1      10.793   2.278  23.689  0.00  0.00    +0.189 C 
BRANCH  26  27
ATOM     27  O   UNL     1      10.943   3.503  22.984  0.00  0.00    -0.391 OA
ATOM     28  H   UNL     1      10.806   3.299  22.043  0.00  0.00    +0.210 HD
ENDBRANCH  26  27
ENDBRANCH  18  26
ENDBRANCH  12  14
ENDBRANCH   3  12
BRANCH   6  29
ATOM     29  O   UNL     1       6.334  -4.758  25.077  0.00  0.00    -0.340 OA
BRANCH  29  30
ATOM     30  C   UNL     1       6.087  -5.912  25.913  0.00  0.00    +0.183 C 
ATOM     31  C   UNL     1       6.608  -5.540  27.334  0.00  0.00    +0.179 C 
ATOM     32  C   UNL     1       6.058  -6.394  28.485  0.00  0.00    +0.201 C 
ATOM     33  C   UNL     1       4.554  -6.593  28.316  0.00  0.00    +0.279 C 
ATOM     34  O   UNL     1       4.318  -7.227  27.068  0.00  0.00    -0.341 OA
ATOM     35  C   UNL     1       4.609  -6.384  25.937  0.00  0.00    +0.178 C 
BRANCH  33  36
ATOM     36  O   UNL     1       4.046  -7.414  29.360  0.00  0.00    -0.365 OA
ATOM     37  H   UNL     1       3.584  -8.149  28.915  0.00  0.00    +0.213 HD
ENDBRANCH  33  36
BRANCH  32  38
ATOM     38  O   UNL     1       6.300  -5.746  29.749  0.00  0.00    -0.384 OA
ATOM     39  H   UNL     1       5.484  -5.284  30.007  0.00  0.00    +0.210 HD
ENDBRANCH  32  38
BRANCH  31  40
ATOM     40  O   UNL     1       8.047  -5.642  27.351  0.00  0.00    -0.386 OA
ATOM     41  H   UNL     1       8.334  -5.667  28.281  0.00  0.00    +0.210 HD
ENDBRANCH  31  40
BRANCH  35  42
ATOM     42  C   UNL     1       3.535  -5.287  25.845  0.00  0.00    +0.190 C 
BRANCH  42  43
ATOM     43  O   UNL     1       4.061  -4.064  26.359  0.00  0.00    -0.392 OA
ATOM     44  H   UNL     1       4.813  -3.814  25.784  0.00  0.00    +0.210 HD
ENDBRANCH  42  43
ENDBRANCH  35  42
ENDBRANCH  29  30
ENDBRANCH   6  29
TORSDOF 16
ENDMDL
MODEL 7
REMARK VINA RESULT:      -7.3      1.823      8.188
REMARK  Name = 
REMARK  17 active torsions:
REMARK  status: ('A' for Active; 'I' for Inactive)
REMARK    1  A    between atoms: C_1  and  C_2
REMARK    2  A    between atoms: C_5  and  O_7
REMARK    3  A    between atoms: O_7  and  C_8
REMARK    4  A    between atoms: C_10  and  C_12
REMARK    5  A    between atoms: C_12  and  O_13
REMARK    6  A    between atoms: C_15  and  O_17
REMARK    7  A    between atoms: C_18  and  O_20
REMARK    8  A    between atoms: C_21  and  O_23
REMARK    9  A    between atoms: C_24  and  O_26
REMARK   10  A    between atoms: C_27  and  O_29
REMARK   11  A    between atoms: C_30  and  N_32
REMARK   12  A    between atoms: N_32  and  C_33
REMARK   13  A    between atoms: C_36  and  C_37
REMARK   14  A    between atoms: C_37  and  O_38
REMARK   15  A    between atoms: C_39  and  O_41
REMARK   16  A    between atoms: C_42  and  O_44
REMARK   17  A    between atoms: C_45  and  O_47
REMARK                            x       y       z     vdW  Elec       q    Type
REMARK                         _______ _______ _______ _____ _____    ______ ____
ROOT
ATOM      1  C   UNL     1       6.039  -1.557  25.886  0.00  0.00    +0.039 C 
ATOM      2  C   UNL     1       7.275  -2.303  26.373  0.00  0.00    +0.138 C 
ATOM      3  C   UNL     1       8.532  -2.404  25.424  0.00  0.00    +0.114 C 
ATOM      4  C   UNL     1       8.972  -3.841  25.019  0.00  0.00    +0.167 C 
ATOM      5  C   UNL     1       8.461  -4.925  25.962  0.00  0.00    +0.200 C 
ATOM      6  C   UNL     1       6.962  -4.700  26.242  0.00  0.00    +0.282 C 
ATOM      7  O   UNL     1       6.788  -3.504  26.967  0.00  0.00    -0.344 OA
ENDROOT
BRANCH   4   8
ATOM      8  O   UNL     1       8.609  -4.146  23.661  0.00  0.00    -0.387 OA
ATOM      9  H   UNL     1       8.210  -3.341  23.277  0.00  0.00    +0.210 HD
ENDBRANCH   4   8
BRANCH   5  10
ATOM     10  O   UNL     1       9.243  -4.916  27.161  0.00  0.00    -0.384 OA
ATOM     11  H   UNL     1       9.660  -5.789  27.258  0.00  0.00    +0.210 HD
ENDBRANCH   5  10
BRANCH   3  12
ATOM     12  N   UNL     1       8.502  -1.463  24.269  0.00  0.00    -0.300 NA
ATOM     13  H   UNL     1       8.666  -2.045  23.429  0.00  0.00    +0.123 HD
BRANCH  12  14
ATOM     14  C   UNL     1       9.627  -0.485  24.248  0.00  0.00    +0.109 C 
ATOM     15  C   UNL     1      10.537  -0.643  23.000  0.00  0.00    +0.166 C 
ATOM     16  C   UNL     1      10.039   0.062  21.725  0.00  0.00    +0.177 C 
ATOM     17  C   UNL     1       9.447   1.465  21.961  0.00  0.00    +0.173 C 
ATOM     18  C   UNL     1       8.964   1.783  23.349  0.00  0.00    -0.016 C 
ATOM     19  C   UNL     1       9.086   0.903  24.364  0.00  0.00    -0.002 C 
BRANCH  17  20
ATOM     20  O   UNL     1      10.429   2.446  21.608  0.00  0.00    -0.385 OA
ATOM     21  H   UNL     1      10.590   2.992  22.398  0.00  0.00    +0.210 HD
ENDBRANCH  17  20
BRANCH  16  22
ATOM     22  O   UNL     1       9.095  -0.799  21.052  0.00  0.00    -0.386 OA
ATOM     23  H   UNL     1       8.766  -0.292  20.286  0.00  0.00    +0.210 HD
ENDBRANCH  16  22
BRANCH  15  24
ATOM     24  O   UNL     1      10.724  -2.043  22.703  0.00  0.00    -0.387 OA
ATOM     25  H   UNL     1      11.697  -2.116  22.590  0.00  0.00    +0.210 HD
ENDBRANCH  15  24
BRANCH  18  26
ATOM     26  C   UNL     1       8.270   3.115  23.492  0.00  0.00    +0.189 C 
BRANCH  26  27
ATOM     27  O   UNL     1       8.060   3.751  22.239  0.00  0.00    -0.391 OA
ATOM     28  H   UNL     1       7.184   3.466  21.927  0.00  0.00    +0.210 HD
ENDBRANCH  26  27
ENDBRANCH  18  26
ENDBRANCH  12  14
ENDBRANCH   3  12
BRANCH   6  29
ATOM     29  O   UNL     1       6.242  -4.781  25.005  0.00  0.00    -0.340 OA
BRANCH  29  30
ATOM     30  C   UNL     1       4.796  -4.769  25.044  0.00  0.00    +0.183 C 
ATOM     31  C   UNL     1       4.319  -5.265  23.645  0.00  0.00    +0.179 C 
ATOM     32  C   UNL     1       2.872  -5.773  23.581  0.00  0.00    +0.201 C 
ATOM     33  C   UNL     1       2.579  -6.668  24.783  0.00  0.00    +0.279 C 
ATOM     34  O   UNL     1       2.791  -5.917  25.969  0.00  0.00    -0.341 OA
ATOM     35  C   UNL     1       4.177  -5.597  26.200  0.00  0.00    +0.178 C 
BRANCH  33  36
ATOM     36  O   UNL     1       1.228  -7.111  24.748  0.00  0.00    -0.365 OA
ATOM     37  H   UNL     1       1.029  -7.270  23.806  0.00  0.00    +0.213 HD
ENDBRANCH  33  36
BRANCH  32  38
ATOM     38  O   UNL     1       2.662  -6.534  22.376  0.00  0.00    -0.384 OA
ATOM     39  H   UNL     1       1.939  -7.163  22.544  0.00  0.00    +0.210 HD
ENDBRANCH  32  38
BRANCH  31  40
ATOM     40  O   UNL     1       4.458  -4.192  22.691  0.00  0.00    -0.386 OA
ATOM     41  H   UNL     1       4.990  -4.522  21.945  0.00  0.00    +0.210 HD
ENDBRANCH  31  40
BRANCH  35  42
ATOM     42  C   UNL     1       4.922  -6.881  26.603  0.00  0.00    +0.190 C 
BRANCH  42  43
ATOM     43  O   UNL     1       4.504  -7.282  27.908  0.00  0.00    -0.392 OA
ATOM     44  H   UNL     1       4.628  -8.252  27.961  0.00  0.00    +0.210 HD
ENDBRANCH  42  43
ENDBRANCH  35  42
ENDBRANCH  29  30
ENDBRANCH   6  29
TORSDOF 16
ENDMDL
MODEL 8
REMARK VINA RESULT:      -7.2      3.134      7.915
REMARK  Name = 
REMARK  17 active torsions:
REMARK  status: ('A' for Active; 'I' for Inactive)
REMARK    1  A    between atoms: C_1  and  C_2
REMARK    2  A    between atoms: C_5  and  O_7
REMARK    3  A    between atoms: O_7  and  C_8
REMARK    4  A    between atoms: C_10  and  C_12
REMARK    5  A    between atoms: C_12  and  O_13
REMARK    6  A    between atoms: C_15  and  O_17
REMARK    7  A    between atoms: C_18  and  O_20
REMARK    8  A    between atoms: C_21  and  O_23
REMARK    9  A    between atoms: C_24  and  O_26
REMARK   10  A    between atoms: C_27  and  O_29
REMARK   11  A    between atoms: C_30  and  N_32
REMARK   12  A    between atoms: N_32  and  C_33
REMARK   13  A    between atoms: C_36  and  C_37
REMARK   14  A    between atoms: C_37  and  O_38
REMARK   15  A    between atoms: C_39  and  O_41
REMARK   16  A    between atoms: C_42  and  O_44
REMARK   17  A    between atoms: C_45  and  O_47
REMARK                            x       y       z     vdW  Elec       q    Type
REMARK                         _______ _______ _______ _____ _____    ______ ____
ROOT
ATOM      1  C   UNL     1       8.830  -0.934  26.293  0.00  0.00    +0.039 C 
ATOM      2  C   UNL     1       9.281  -0.831  24.842  0.00  0.00    +0.138 C 
ATOM      3  C   UNL     1       8.384  -0.034  23.817  0.00  0.00    +0.114 C 
ATOM      4  C   UNL     1       7.832  -0.850  22.611  0.00  0.00    +0.167 C 
ATOM      5  C   UNL     1       8.616  -2.125  22.325  0.00  0.00    +0.200 C 
ATOM      6  C   UNL     1       8.854  -2.890  23.643  0.00  0.00    +0.282 C 
ATOM      7  O   UNL     1       9.707  -2.143  24.479  0.00  0.00    -0.344 OA
ENDROOT
BRANCH   4   8
ATOM      8  O   UNL     1       6.432  -1.144  22.763  0.00  0.00    -0.387 OA
ATOM      9  H   UNL     1       5.934  -0.366  22.446  0.00  0.00    +0.210 HD
ENDBRANCH   4   8
BRANCH   5  10
ATOM     10  O   UNL     1       9.842  -1.789  21.666  0.00  0.00    -0.384 OA
ATOM     11  H   UNL     1      10.102  -2.543  21.107  0.00  0.00    +0.210 HD
ENDBRANCH   5  10
BRANCH   3  12
ATOM     12  N   UNL     1       7.348   0.827  24.452  0.00  0.00    -0.300 NA
ATOM     13  H   UNL     1       6.450   0.556  24.015  0.00  0.00    +0.123 HD
BRANCH  12  14
ATOM     14  C   UNL     1       7.477   2.278  24.129  0.00  0.00    +0.109 C 
ATOM     15  C   UNL     1       6.270   2.820  23.317  0.00  0.00    +0.166 C 
ATOM     16  C   UNL     1       5.039   3.223  24.150  0.00  0.00    +0.177 C 
ATOM     17  C   UNL     1       5.370   3.969  25.458  0.00  0.00    +0.173 C 
ATOM     18  C   UNL     1       6.752   3.790  26.020  0.00  0.00    -0.016 C 
ATOM     19  C   UNL     1       7.689   3.053  25.389  0.00  0.00    -0.002 C 
BRANCH  17  20
ATOM     20  O   UNL     1       5.160   5.371  25.255  0.00  0.00    -0.385 OA
ATOM     21  H   UNL     1       5.041   5.775  26.134  0.00  0.00    +0.210 HD
ENDBRANCH  17  20
BRANCH  16  22
ATOM     22  O   UNL     1       4.241   2.046  24.405  0.00  0.00    -0.386 OA
ATOM     23  H   UNL     1       3.327   2.362  24.530  0.00  0.00    +0.210 HD
ENDBRANCH  16  22
BRANCH  15  24
ATOM     24  O   UNL     1       5.858   1.844  22.338  0.00  0.00    -0.387 OA
ATOM     25  H   UNL     1       5.415   2.392  21.653  0.00  0.00    +0.210 HD
ENDBRANCH  15  24
BRANCH  18  26
ATOM     26  C   UNL     1       6.978   4.430  27.369  0.00  0.00    +0.189 C 
BRANCH  26  27
ATOM     27  O   UNL     1       7.929   5.483  27.314  0.00  0.00    -0.391 OA
ATOM     28  H   UNL     1       8.442   5.351  26.499  0.00  0.00    +0.210 HD
ENDBRANCH  26  27
ENDBRANCH  18  26
ENDBRANCH  12  14
ENDBRANCH   3  12
BRANCH   6  29
ATOM     29  O   UNL     1       7.585  -3.240  24.210  0.00  0.00    -0.340 OA
BRANCH  29  30
ATOM     30  C   UNL     1       7.398  -4.586  24.709  0.00  0.00    +0.183 C 
ATOM     31  C   UNL     1       7.539  -4.498  26.259  0.00  0.00    +0.179 C 
ATOM     32  C   UNL     1       6.940  -5.673  27.045  0.00  0.00    +0.201 C 
ATOM     33  C   UNL     1       5.567  -6.033  26.482  0.00  0.00    +0.279 C 
ATOM     34  O   UNL     1       5.715  -6.373  25.111  0.00  0.00    -0.341 OA
ATOM     35  C   UNL     1       6.064  -5.250  24.280  0.00  0.00    +0.178 C 
BRANCH  33  36
ATOM     36  O   UNL     1       5.024  -7.144  27.183  0.00  0.00    -0.365 OA
ATOM     37  H   UNL     1       4.139  -7.289  26.799  0.00  0.00    +0.213 HD
ENDBRANCH  33  36
BRANCH  32  38
ATOM     38  O   UNL     1       6.793  -5.322  28.434  0.00  0.00    -0.384 OA
ATOM     39  H   UNL     1       5.874  -5.509  28.692  0.00  0.00    +0.210 HD
ENDBRANCH  32  38
BRANCH  31  40
ATOM     40  O   UNL     1       8.937  -4.399  26.600  0.00  0.00    -0.386 OA
ATOM     41  H   UNL     1       9.444  -4.346  25.771  0.00  0.00    +0.210 HD
ENDBRANCH  31  40
BRANCH  35  42
ATOM     42  C   UNL     1       4.842  -4.325  24.157  0.00  0.00    +0.190 C 
BRANCH  42  43
ATOM     43  O   UNL     1       4.923  -3.591  22.935  0.00  0.00    -0.392 OA
ATOM     44  H   UNL     1       5.875  -3.504  22.719  0.00  0.00    +0.210 HD
ENDBRANCH  42  43
ENDBRANCH  35  42
ENDBRANCH  29  30
ENDBRANCH   6  29
TORSDOF 16
ENDMDL
MODEL 9
REMARK VINA RESULT:      -7.1      1.962      3.499
REMARK  Name = 
REMARK  17 active torsions:
REMARK  status: ('A' for Active; 'I' for Inactive)
REMARK    1  A    between atoms: C_1  and  C_2
REMARK    2  A    between atoms: C_5  and  O_7
REMARK    3  A    between atoms: O_7  and  C_8
REMARK    4  A    between atoms: C_10  and  C_12
REMARK    5  A    between atoms: C_12  and  O_13
REMARK    6  A    between atoms: C_15  and  O_17
REMARK    7  A    between atoms: C_18  and  O_20
REMARK    8  A    between atoms: C_21  and  O_23
REMARK    9  A    between atoms: C_24  and  O_26
REMARK   10  A    between atoms: C_27  and  O_29
REMARK   11  A    between atoms: C_30  and  N_32
REMARK   12  A    between atoms: N_32  and  C_33
REMARK   13  A    between atoms: C_36  and  C_37
REMARK   14  A    between atoms: C_37  and  O_38
REMARK   15  A    between atoms: C_39  and  O_41
REMARK   16  A    between atoms: C_42  and  O_44
REMARK   17  A    between atoms: C_45  and  O_47
REMARK                            x       y       z     vdW  Elec       q    Type
REMARK                         _______ _______ _______ _____ _____    ______ ____
ROOT
ATOM      1  C   UNL     1       4.596  -2.553  24.956  0.00  0.00    +0.039 C 
ATOM      2  C   UNL     1       5.041  -3.635  23.980  0.00  0.00    +0.138 C 
ATOM      3  C   UNL     1       6.065  -4.732  24.468  0.00  0.00    +0.114 C 
ATOM      4  C   UNL     1       7.418  -4.795  23.701  0.00  0.00    +0.167 C 
ATOM      5  C   UNL     1       7.368  -4.157  22.318  0.00  0.00    +0.200 C 
ATOM      6  C   UNL     1       6.674  -2.784  22.410  0.00  0.00    +0.282 C 
ATOM      7  O   UNL     1       5.319  -2.957  22.757  0.00  0.00    -0.344 OA
ENDROOT
BRANCH   4   8
ATOM      8  O   UNL     1       8.494  -4.235  24.474  0.00  0.00    -0.387 OA
ATOM      9  H   UNL     1       8.724  -4.882  25.170  0.00  0.00    +0.210 HD
ENDBRANCH   4   8
BRANCH   5  10
ATOM     10  O   UNL     1       6.699  -5.042  21.413  0.00  0.00    -0.384 OA
ATOM     11  H   UNL     1       7.039  -4.872  20.517  0.00  0.00    +0.210 HD
ENDBRANCH   5  10
BRANCH   3  12
ATOM     12  N   UNL     1       6.236  -4.793  25.947  0.00  0.00    -0.300 NA
ATOM     13  H   UNL     1       7.249  -4.665  26.118  0.00  0.00    +0.123 HD
BRANCH  12  14
ATOM     14  C   UNL     1       5.941  -6.128  26.542  0.00  0.00    +0.109 C 
ATOM     15  C   UNL     1       5.455  -6.034  28.014  0.00  0.00    +0.166 C 
ATOM     16  C   UNL     1       3.955  -5.738  28.197  0.00  0.00    +0.177 C 
ATOM     17  C   UNL     1       3.031  -6.495  27.223  0.00  0.00    +0.173 C 
ATOM     18  C   UNL     1       3.645  -7.002  25.947  0.00  0.00    -0.016 C 
ATOM     19  C   UNL     1       4.959  -6.854  25.681  0.00  0.00    -0.002 C 
BRANCH  17  20
ATOM     20  O   UNL     1       2.457  -7.615  27.905  0.00  0.00    -0.385 OA
ATOM     21  H   UNL     1       1.696  -7.284  28.415  0.00  0.00    +0.210 HD
ENDBRANCH  17  20
BRANCH  16  22
ATOM     22  O   UNL     1       3.746  -4.311  28.118  0.00  0.00    -0.386 OA
ATOM     23  H   UNL     1       3.504  -4.023  29.017  0.00  0.00    +0.210 HD
ENDBRANCH  16  22
BRANCH  15  24
ATOM     24  O   UNL     1       6.208  -5.024  28.717  0.00  0.00    -0.387 OA
ATOM     25  H   UNL     1       6.002  -5.211  29.659  0.00  0.00    +0.210 HD
ENDBRANCH  15  24
BRANCH  18  26
ATOM     26  C   UNL     1       2.670  -7.612  24.971  0.00  0.00    +0.189 C 
BRANCH  26  27
ATOM     27  O   UNL     1       2.541  -9.017  25.142  0.00  0.00    -0.391 OA
ATOM     28  H   UNL     1       2.221  -9.371  24.295  0.00  0.00    +0.210 HD
ENDBRANCH  26  27
ENDBRANCH  18  26
ENDBRANCH  12  14
ENDBRANCH   3  12
BRANCH   6  29
ATOM     29  O   UNL     1       7.432  -1.939  23.285  0.00  0.00    -0.340 OA
BRANCH  29  30
ATOM     30  C   UNL     1       7.795  -0.615  22.827  0.00  0.00    +0.183 C 
ATOM     31  C   UNL     1       7.275   0.378  23.910  0.00  0.00    +0.179 C 
ATOM     32  C   UNL     1       7.920   1.770  23.896  0.00  0.00    +0.201 C 
ATOM     33  C   UNL     1       9.432   1.644  23.723  0.00  0.00    +0.279 C 
ATOM     34  O   UNL     1       9.694   0.960  22.507  0.00  0.00    -0.341 OA
ATOM     35  C   UNL     1       9.307  -0.427  22.539  0.00  0.00    +0.178 C 
BRANCH  33  36
ATOM     36  O   UNL     1      10.030   2.933  23.672  0.00  0.00    -0.365 OA
ATOM     37  H   UNL     1      10.853   2.861  24.190  0.00  0.00    +0.213 HD
ENDBRANCH  33  36
BRANCH  32  38
ATOM     38  O   UNL     1       7.651   2.460  25.132  0.00  0.00    -0.384 OA
ATOM     39  H   UNL     1       8.377   3.090  25.284  0.00  0.00    +0.210 HD
ENDBRANCH  32  38
BRANCH  31  40
ATOM     40  O   UNL     1       5.850   0.544  23.753  0.00  0.00    -0.386 OA
ATOM     41  H   UNL     1       5.531   1.095  24.490  0.00  0.00    +0.210 HD
ENDBRANCH  31  40
BRANCH  35  42
ATOM     42  C   UNL     1      10.282  -1.193  23.448  0.00  0.00    +0.190 C 
BRANCH  42  43
ATOM     43  O   UNL     1      10.379  -2.547  23.005  0.00  0.00    -0.392 OA
ATOM     44  H   UNL     1       9.839  -3.086  23.618  0.00  0.00    +0.210 HD
ENDBRANCH  42  43
ENDBRANCH  35  42
ENDBRANCH  29  30
ENDBRANCH   6  29
TORSDOF 16
ENDMDL
