MODEL 1
REMARK VINA RESULT:      -6.7      0.000      0.000
REMARK  Name = 
REMARK  29 active torsions:
REMARK  status: ('A' for Active; 'I' for Inactive)
REMARK    1  A    between atoms: C_2  and  C_4
REMARK    2  A    between atoms: C_4  and  C_6
REMARK    3  A    between atoms: C_4  and  N_8
REMARK    4  A    between atoms: C_6  and  S_7
REMARK    5  A    between atoms: C_9  and  C_11
REMARK    6  A    between atoms: C_11  and  C_12
REMARK    7  A    between atoms: C_12  and  C_13
REMARK    8  A    between atoms: C_13  and  C_14
REMARK    9  A    between atoms: C_14  and  C_15
REMARK   10  A    between atoms: C_15  and  N_16
REMARK   11  A    between atoms: C_17  and  C_19
REMARK   12  A    between atoms: C_19  and  C_21
REMARK   13  A    between atoms: C_19  and  N_35
REMARK   14  A    between atoms: C_21  and  C_22
REMARK   15  A    between atoms: C_25  and  C_28
REMARK   16  A    between atoms: C_28  and  P_31
REMARK   17  A    between atoms: P_31  and  O_32
REMARK   18  A    between atoms: P_31  and  O_33
REMARK   19  A    between atoms: C_36  and  C_38
REMARK   20  A    between atoms: C_38  and  C_40
REMARK   21  A    between atoms: C_38  and  N_44
REMARK   22  A    between atoms: C_40  and  C_41
REMARK   23  A    between atoms: C_41  and  O_42
REMARK   24  A    between atoms: C_45  and  C_47
REMARK   25  A    between atoms: C_47  and  C_48
REMARK   26  A    between atoms: C_51  and  C_54
REMARK   27  A    between atoms: C_54  and  P_57
REMARK   28  A    between atoms: P_57  and  O_58
REMARK   29  A    between atoms: P_57  and  O_59
REMARK                            x       y       z     vdW  Elec       q    Type
REMARK                         _______ _______ _______ _____ _____    ______ ____
ROOT
ATOM      1  C   UNL     1       8.296   0.994  24.026  0.00  0.00    +0.163 C 
ENDROOT
BRANCH   1   4
ATOM      2  N   UNL     1       8.930  -1.364  23.411  0.00  0.00    -0.314 N 
ATOM      3  H   UNL     1       8.365  -1.231  22.586  0.00  0.00    +0.149 HD
ATOM      4  C   UNL     1       9.174  -0.287  24.239  0.00  0.00    +0.234 C 
ATOM      5  O   UNL     1      10.040  -0.308  25.116  0.00  0.00    -0.274 OA
BRANCH   2   6
ATOM      6  C   UNL     1       9.656  -2.632  23.521  0.00  0.00    +0.104 C 
BRANCH   6   7
ATOM      7  C   UNL     1       8.714  -3.806  23.829  0.00  0.00    +0.019 C 
BRANCH   7   8
ATOM      8  C   UNL     1       7.681  -4.072  22.714  0.00  0.00    +0.002 C 
BRANCH   8   9
ATOM      9  C   UNL     1       7.328  -5.552  22.627  0.00  0.00    +0.009 C 
BRANCH   9  10
ATOM     10  C   UNL     1       6.087  -5.836  21.788  0.00  0.00    +0.096 C 
BRANCH  10  13
ATOM     11  N   UNL     1       4.256  -6.640  23.176  0.00  0.00    -0.303 N 
ATOM     12  H   UNL     1       4.696  -7.546  23.086  0.00  0.00    +0.149 HD
ATOM     13  C   UNL     1       4.805  -5.548  22.550  0.00  0.00    +0.214 C 
ATOM     14  O   UNL     1       4.309  -4.425  22.609  0.00  0.00    -0.276 OA
BRANCH  11  15
ATOM     15  C   UNL     1       3.007  -6.569  23.944  0.00  0.00    +0.168 C 
BRANCH  15  19
ATOM     16  N   UNL     1       1.173  -5.371  22.790  0.00  0.00    -0.328 N 
ATOM     17  H   UNL     1       1.477  -4.463  23.181  0.00  0.00    +0.145 HD
ATOM     18  H   UNL     1       0.464  -5.323  22.088  0.00  0.00    +0.145 HD
ATOM     19  C   UNL     1       1.839  -6.554  22.941  0.00  0.00    +0.232 C 
ATOM     20  O   UNL     1       1.508  -7.537  22.278  0.00  0.00    -0.274 OA
ENDBRANCH  15  19
BRANCH  15  21
ATOM     21  C   UNL     1       2.902  -7.733  24.939  0.00  0.00    +0.097 C 
BRANCH  21  22
ATOM     22  S   UNL     1       1.868  -7.401  26.402  0.00  0.00    -0.176 S 
ATOM     23  H   UNL     1       2.861  -7.436  27.309  0.00  0.00    +0.102 HD
ENDBRANCH  21  22
ENDBRANCH  15  21
ENDBRANCH  11  15
ENDBRANCH  10  13
ENDBRANCH   9  10
ENDBRANCH   8   9
ENDBRANCH   7   8
ENDBRANCH   6   7
ENDBRANCH   2   6
ENDBRANCH   1   4
BRANCH   1  24
ATOM     24  N   UNL     1       9.140   2.181  24.263  0.00  0.00    -0.302 N 
ATOM     25  H   UNL     1       8.960   2.667  25.137  0.00  0.00    +0.150 HD
ATOM     26  C   UNL     1       9.946   2.758  23.303  0.00  0.00    +0.234 C 
ATOM     27  O   UNL     1      10.150   2.248  22.205  0.00  0.00    -0.274 OA
BRANCH  26  28
ATOM     28  C   UNL     1      10.561   4.115  23.695  0.00  0.00    +0.169 C 
BRANCH  28  29
ATOM     29  N   UNL     1       9.593   5.171  23.403  0.00  0.00    -0.303 N 
ATOM     30  H   UNL     1       9.143   5.165  22.493  0.00  0.00    +0.149 HD
ATOM     31  C   UNL     1       9.046   5.944  24.406  0.00  0.00    +0.218 C 
ATOM     32  O   UNL     1       9.338   5.784  25.589  0.00  0.00    -0.275 OA
BRANCH  31  33
ATOM     33  C   UNL     1       8.115   7.058  23.931  0.00  0.00    +0.130 C 
BRANCH  33  34
ATOM     34  C   UNL     1       6.684   6.584  23.818  0.00  0.00    -0.039 A 
ATOM     35  C   UNL     1       6.109   6.339  22.567  0.00  0.00    +0.004 A 
ATOM     36  C   UNL     1       4.839   5.767  22.460  0.00  0.00    +0.010 A 
ATOM     37  C   UNL     1       4.112   5.414  23.609  0.00  0.00    +0.033 A 
ATOM     38  C   UNL     1       4.663   5.709  24.864  0.00  0.00    +0.010 A 
ATOM     39  C   UNL     1       5.936   6.287  24.969  0.00  0.00    +0.004 A 
BRANCH  37  40
ATOM     40  C   UNL     1       2.862   4.567  23.493  0.00  0.00    +0.371 C 
ATOM     41  F   UNL     1       2.712   3.912  22.302  0.00  0.00    -0.187 F 
ATOM     42  F   UNL     1       1.692   5.237  23.699  0.00  0.00    -0.187 F 
BRANCH  40  43
ATOM     43  P   UNL     1       2.750   3.254  24.763  0.00  0.00    +0.401 P 
ATOM     44  O   UNL     1       2.655   2.144  25.838  0.00  0.00    -0.252 OA
BRANCH  43  45
ATOM     45  O   UNL     1       1.396   2.663  23.979  0.00  0.00    -0.320 OA
ATOM     46  H   UNL     1       1.580   2.027  23.257  0.00  0.00    +0.220 HD
ENDBRANCH  43  45
BRANCH  43  47
ATOM     47  O   UNL     1       3.836   2.387  23.840  0.00  0.00    -0.320 OA
ATOM     48  H   UNL     1       3.844   2.720  22.920  0.00  0.00    +0.220 HD
ENDBRANCH  43  47
ENDBRANCH  40  43
ENDBRANCH  37  40
ENDBRANCH  33  34
ENDBRANCH  31  33
ENDBRANCH  28  29
BRANCH  28  49
ATOM     49  C   UNL     1      11.851   4.295  22.902  0.00  0.00    +0.152 C 
BRANCH  49  50
ATOM     50  C   UNL     1      12.804   5.257  23.554  0.00  0.00    +0.307 C 
ATOM     51  O   UNL     1      12.441   6.139  24.321  0.00  0.00    -0.251 OA
BRANCH  50  52
ATOM     52  O   UNL     1      14.098   5.099  23.211  0.00  0.00    -0.481 OA
ATOM     53  H   UNL     1      14.572   4.347  23.608  0.00  0.00    +0.295 HD
ENDBRANCH  50  52
ENDBRANCH  49  50
ENDBRANCH  28  49
ENDBRANCH  26  28
ENDBRANCH   1  24
BRANCH   1  54
ATOM     54  C   UNL     1       7.019   0.983  24.895  0.00  0.00    +0.067 C 
BRANCH  54  55
ATOM     55  C   UNL     1       6.587  -0.322  25.528  0.00  0.00    -0.045 A 
ATOM     56  C   UNL     1       5.724  -1.150  24.797  0.00  0.00    +0.004 A 
ATOM     57  C   UNL     1       5.522  -2.469  25.186  0.00  0.00    +0.010 A 
ATOM     58  C   UNL     1       6.181  -2.967  26.316  0.00  0.00    +0.033 A 
ATOM     59  C   UNL     1       6.889  -2.101  27.141  0.00  0.00    +0.010 A 
ATOM     60  C   UNL     1       7.073  -0.783  26.756  0.00  0.00    +0.004 A 
BRANCH  58  61
ATOM     61  C   UNL     1       6.251  -4.430  26.569  0.00  0.00    +0.371 C 
ATOM     62  F   UNL     1       7.436  -4.826  27.136  0.00  0.00    -0.187 F 
ATOM     63  F   UNL     1       6.096  -5.229  25.470  0.00  0.00    -0.187 F 
BRANCH  61  64
ATOM     64  P   UNL     1       5.080  -5.111  27.799  0.00  0.00    +0.401 P 
ATOM     65  O   UNL     1       4.089  -5.688  28.839  0.00  0.00    -0.252 OA
BRANCH  64  66
ATOM     66  O   UNL     1       6.317  -5.146  28.920  0.00  0.00    -0.320 OA
ATOM     67  H   UNL     1       7.068  -4.557  28.693  0.00  0.00    +0.220 HD
ENDBRANCH  64  66
BRANCH  64  68
ATOM     68  O   UNL     1       5.404  -6.621  27.176  0.00  0.00    -0.320 OA
ATOM     69  H   UNL     1       6.163  -7.033  27.643  0.00  0.00    +0.220 HD
ENDBRANCH  64  68
ENDBRANCH  61  64
ENDBRANCH  58  61
ENDBRANCH  54  55
ENDBRANCH   1  54
TORSDOF 29
ENDMDL
MODEL 2
REMARK VINA RESULT:      -6.6      2.330      5.691
REMARK  Name = 
REMARK  29 active torsions:
REMARK  status: ('A' for Active; 'I' for Inactive)
REMARK    1  A    between atoms: C_2  and  C_4
REMARK    2  A    between atoms: C_4  and  C_6
REMARK    3  A    between atoms: C_4  and  N_8
REMARK    4  A    between atoms: C_6  and  S_7
REMARK    5  A    between atoms: C_9  and  C_11
REMARK    6  A    between atoms: C_11  and  C_12
REMARK    7  A    between atoms: C_12  and  C_13
REMARK    8  A    between atoms: C_13  and  C_14
REMARK    9  A    between atoms: C_14  and  C_15
REMARK   10  A    between atoms: C_15  and  N_16
REMARK   11  A    between atoms: C_17  and  C_19
REMARK   12  A    between atoms: C_19  and  C_21
REMARK   13  A    between atoms: C_19  and  N_35
REMARK   14  A    between atoms: C_21  and  C_22
REMARK   15  A    between atoms: C_25  and  C_28
REMARK   16  A    between atoms: C_28  and  P_31
REMARK   17  A    between atoms: P_31  and  O_32
REMARK   18  A    between atoms: P_31  and  O_33
REMARK   19  A    between atoms: C_36  and  C_38
REMARK   20  A    between atoms: C_38  and  C_40
REMARK   21  A    between atoms: C_38  and  N_44
REMARK   22  A    between atoms: C_40  and  C_41
REMARK   23  A    between atoms: C_41  and  O_42
REMARK   24  A    between atoms: C_45  and  C_47
REMARK   25  A    between atoms: C_47  and  C_48
REMARK   26  A    between atoms: C_51  and  C_54
REMARK   27  A    between atoms: C_54  and  P_57
REMARK   28  A    between atoms: P_57  and  O_58
REMARK   29  A    between atoms: P_57  and  O_59
REMARK                            x       y       z     vdW  Elec       q    Type
REMARK                         _______ _______ _______ _____ _____    ______ ____
ROOT
ATOM      1  C   UNL     1      10.272   1.648  23.141  0.00  0.00    +0.163 C 
ENDROOT
BRANCH   1   4
ATOM      2  N   UNL     1      10.067  -0.850  23.386  0.00  0.00    -0.314 N 
ATOM      3  H   UNL     1       9.955  -0.873  22.383  0.00  0.00    +0.149 HD
ATOM      4  C   UNL     1      10.403   0.341  23.998  0.00  0.00    +0.234 C 
ATOM      5  O   UNL     1      10.792   0.400  25.166  0.00  0.00    -0.274 OA
BRANCH   2   6
ATOM      6  C   UNL     1      10.113  -2.140  24.079  0.00  0.00    +0.104 C 
BRANCH   6   7
ATOM      7  C   UNL     1       8.732  -2.556  24.609  0.00  0.00    +0.019 C 
BRANCH   7   8
ATOM      8  C   UNL     1       8.097  -3.719  23.818  0.00  0.00    +0.002 C 
BRANCH   8   9
ATOM      9  C   UNL     1       7.554  -3.244  22.475  0.00  0.00    +0.009 C 
BRANCH   9  10
ATOM     10  C   UNL     1       6.044  -3.037  22.465  0.00  0.00    +0.096 C 
BRANCH  10  13
ATOM     11  N   UNL     1       4.310  -4.568  23.225  0.00  0.00    -0.303 N 
ATOM     12  H   UNL     1       4.159  -3.896  23.966  0.00  0.00    +0.149 HD
ATOM     13  C   UNL     1       5.290  -4.344  22.289  0.00  0.00    +0.214 C 
ATOM     14  O   UNL     1       5.531  -5.129  21.375  0.00  0.00    -0.276 OA
BRANCH  11  15
ATOM     15  C   UNL     1       3.487  -5.783  23.237  0.00  0.00    +0.168 C 
BRANCH  15  19
ATOM     16  N   UNL     1       4.834  -6.125  25.286  0.00  0.00    -0.328 N 
ATOM     17  H   UNL     1       5.003  -5.109  25.382  0.00  0.00    +0.145 HD
ATOM     18  H   UNL     1       5.125  -6.686  26.060  0.00  0.00    +0.145 HD
ATOM     19  C   UNL     1       4.019  -6.700  24.353  0.00  0.00    +0.232 C 
ATOM     20  O   UNL     1       3.727  -7.893  24.441  0.00  0.00    -0.274 OA
ENDBRANCH  15  19
BRANCH  15  21
ATOM     21  C   UNL     1       2.002  -5.444  23.423  0.00  0.00    +0.097 C 
BRANCH  21  22
ATOM     22  S   UNL     1       0.847  -6.549  22.547  0.00  0.00    -0.176 S 
ATOM     23  H   UNL     1       1.771  -7.413  22.089  0.00  0.00    +0.102 HD
ENDBRANCH  21  22
ENDBRANCH  15  21
ENDBRANCH  11  15
ENDBRANCH  10  13
ENDBRANCH   9  10
ENDBRANCH   8   9
ENDBRANCH   7   8
ENDBRANCH   6   7
ENDBRANCH   2   6
ENDBRANCH   1   4
BRANCH   1  24
ATOM     24  N   UNL     1       9.827   2.741  24.027  0.00  0.00    -0.302 N 
ATOM     25  H   UNL     1       9.046   2.509  24.635  0.00  0.00    +0.150 HD
ATOM     26  C   UNL     1      10.243   4.051  23.904  0.00  0.00    +0.234 C 
ATOM     27  O   UNL     1      11.138   4.401  23.139  0.00  0.00    -0.274 OA
BRANCH  26  28
ATOM     28  C   UNL     1       9.483   5.065  24.781  0.00  0.00    +0.169 C 
BRANCH  28  29
ATOM     29  N   UNL     1       8.135   4.555  25.027  0.00  0.00    -0.303 N 
ATOM     30  H   UNL     1       7.738   3.915  24.347  0.00  0.00    +0.149 HD
ATOM     31  C   UNL     1       7.546   4.648  26.271  0.00  0.00    +0.218 C 
ATOM     32  O   UNL     1       8.121   5.156  27.232  0.00  0.00    -0.275 OA
BRANCH  31  33
ATOM     33  C   UNL     1       6.106   4.145  26.345  0.00  0.00    +0.130 C 
BRANCH  33  34
ATOM     34  C   UNL     1       6.037   2.702  26.791  0.00  0.00    -0.039 A 
ATOM     35  C   UNL     1       4.899   2.207  27.436  0.00  0.00    +0.004 A 
ATOM     36  C   UNL     1       4.771   0.845  27.722  0.00  0.00    +0.010 A 
ATOM     37  C   UNL     1       5.780  -0.062  27.359  0.00  0.00    +0.033 A 
ATOM     38  C   UNL     1       6.945   0.439  26.763  0.00  0.00    +0.010 A 
ATOM     39  C   UNL     1       7.074   1.807  26.480  0.00  0.00    +0.004 A 
BRANCH  37  40
ATOM     40  C   UNL     1       5.530  -1.554  27.435  0.00  0.00    +0.371 C 
ATOM     41  F   UNL     1       5.089  -2.008  28.647  0.00  0.00    -0.187 F 
ATOM     42  F   UNL     1       6.601  -2.334  27.112  0.00  0.00    -0.187 F 
BRANCH  40  43
ATOM     43  P   UNL     1       4.282  -2.146  26.235  0.00  0.00    +0.401 P 
ATOM     44  O   UNL     1       3.225  -2.647  25.221  0.00  0.00    -0.252 OA
BRANCH  43  45
ATOM     45  O   UNL     1       4.977  -1.156  25.081  0.00  0.00    -0.320 OA
ATOM     46  H   UNL     1       5.522  -1.620  24.411  0.00  0.00    +0.220 HD
ENDBRANCH  43  45
BRANCH  43  47
ATOM     47  O   UNL     1       5.298  -3.437  25.944  0.00  0.00    -0.320 OA
ATOM     48  H   UNL     1       5.542  -3.875  26.785  0.00  0.00    +0.220 HD
ENDBRANCH  43  47
ENDBRANCH  40  43
ENDBRANCH  37  40
ENDBRANCH  33  34
ENDBRANCH  31  33
ENDBRANCH  28  29
BRANCH  28  49
ATOM     49  C   UNL     1       9.458   6.400  24.046  0.00  0.00    +0.152 C 
BRANCH  49  50
ATOM     50  C   UNL     1       8.198   6.602  23.252  0.00  0.00    +0.307 C 
ATOM     51  O   UNL     1       7.134   6.928  23.761  0.00  0.00    -0.251 OA
BRANCH  50  52
ATOM     52  O   UNL     1       8.316   6.372  21.929  0.00  0.00    -0.481 OA
ATOM     53  H   UNL     1       7.782   5.648  21.557  0.00  0.00    +0.295 HD
ENDBRANCH  50  52
ENDBRANCH  49  50
ENDBRANCH  28  49
ENDBRANCH  26  28
ENDBRANCH   1  24
BRANCH   1  54
ATOM     54  C   UNL     1       9.354   1.458  21.915  0.00  0.00    +0.067 C 
BRANCH  54  55
ATOM     55  C   UNL     1       7.910   1.897  22.017  0.00  0.00    -0.045 A 
ATOM     56  C   UNL     1       7.018   1.059  22.702  0.00  0.00    +0.004 A 
ATOM     57  C   UNL     1       5.765   1.528  23.079  0.00  0.00    +0.010 A 
ATOM     58  C   UNL     1       5.394   2.841  22.767  0.00  0.00    +0.033 A 
ATOM     59  C   UNL     1       6.200   3.608  21.934  0.00  0.00    +0.010 A 
ATOM     60  C   UNL     1       7.442   3.128  21.548  0.00  0.00    +0.004 A 
BRANCH  58  61
ATOM     61  C   UNL     1       4.222   3.474  23.426  0.00  0.00    +0.371 C 
ATOM     62  F   UNL     1       4.513   4.684  24.004  0.00  0.00    -0.187 F 
ATOM     63  F   UNL     1       3.630   2.739  24.415  0.00  0.00    -0.187 F 
BRANCH  61  64
ATOM     64  P   UNL     1       2.838   3.980  22.340  0.00  0.00    +0.401 P 
ATOM     65  O   UNL     1       1.668   4.407  21.422  0.00  0.00    -0.252 OA
BRANCH  64  66
ATOM     66  O   UNL     1       2.194   4.851  23.610  0.00  0.00    -0.320 OA
ATOM     67  H   UNL     1       2.871   5.277  24.177  0.00  0.00    +0.220 HD
ENDBRANCH  64  66
BRANCH  64  68
ATOM     68  O   UNL     1       2.084   2.552  22.744  0.00  0.00    -0.320 OA
ATOM     69  H   UNL     1       1.109   2.662  22.740  0.00  0.00    +0.220 HD
ENDBRANCH  64  68
ENDBRANCH  61  64
ENDBRANCH  58  61
ENDBRANCH  54  55
ENDBRANCH   1  54
TORSDOF 29
ENDMDL
MODEL 3
REMARK VINA RESULT:      -6.6      2.109      3.651
REMARK  Name = 
REMARK  29 active torsions:
REMARK  status: ('A' for Active; 'I' for Inactive)
REMARK    1  A    between atoms: C_2  and  C_4
REMARK    2  A    between atoms: C_4  and  C_6
REMARK    3  A    between atoms: C_4  and  N_8
REMARK    4  A    between atoms: C_6  and  S_7
REMARK    5  A    between atoms: C_9  and  C_11
REMARK    6  A    between atoms: C_11  and  C_12
REMARK    7  A    between atoms: C_12  and  C_13
REMARK    8  A    between atoms: C_13  and  C_14
REMARK    9  A    between atoms: C_14  and  C_15
REMARK   10  A    between atoms: C_15  and  N_16
REMARK   11  A    between atoms: C_17  and  C_19
REMARK   12  A    between atoms: C_19  and  C_21
REMARK   13  A    between atoms: C_19  and  N_35
REMARK   14  A    between atoms: C_21  and  C_22
REMARK   15  A    between atoms: C_25  and  C_28
REMARK   16  A    between atoms: C_28  and  P_31
REMARK   17  A    between atoms: P_31  and  O_32
REMARK   18  A    between atoms: P_31  and  O_33
REMARK   19  A    between atoms: C_36  and  C_38
REMARK   20  A    between atoms: C_38  and  C_40
REMARK   21  A    between atoms: C_38  and  N_44
REMARK   22  A    between atoms: C_40  and  C_41
REMARK   23  A    between atoms: C_41  and  O_42
REMARK   24  A    between atoms: C_45  and  C_47
REMARK   25  A    between atoms: C_47  and  C_48
REMARK   26  A    between atoms: C_51  and  C_54
REMARK   27  A    between atoms: C_54  and  P_57
REMARK   28  A    between atoms: P_57  and  O_58
REMARK   29  A    between atoms: P_57  and  O_59
REMARK                            x       y       z     vdW  Elec       q    Type
REMARK                         _______ _______ _______ _____ _____    ______ ____
ROOT
ATOM      1  C   UNL     1       9.441  -0.958  24.928  0.00  0.00    +0.163 C 
ENDROOT
BRANCH   1   4
ATOM      2  N   UNL     1       7.195  -0.127  25.708  0.00  0.00    -0.314 N 
ATOM      3  H   UNL     1       6.938  -0.104  24.732  0.00  0.00    +0.149 HD
ATOM      4  C   UNL     1       8.403  -0.687  26.072  0.00  0.00    +0.234 C 
ATOM      5  O   UNL     1       8.678  -0.970  27.240  0.00  0.00    -0.274 OA
BRANCH   2   6
ATOM      6  C   UNL     1       6.149   0.207  26.678  0.00  0.00    +0.104 C 
BRANCH   6   7
ATOM      7  C   UNL     1       4.866  -0.603  26.440  0.00  0.00    +0.019 C 
BRANCH   7   8
ATOM      8  C   UNL     1       4.583  -1.641  27.546  0.00  0.00    +0.002 C 
BRANCH   8   9
ATOM      9  C   UNL     1       3.086  -1.883  27.709  0.00  0.00    +0.009 C 
BRANCH   9  10
ATOM     10  C   UNL     1       2.658  -3.308  27.377  0.00  0.00    +0.096 C 
BRANCH  10  13
ATOM     11  N   UNL     1       2.531  -4.658  25.355  0.00  0.00    -0.303 N 
ATOM     12  H   UNL     1       3.034  -5.355  25.889  0.00  0.00    +0.149 HD
ATOM     13  C   UNL     1       2.219  -3.450  25.930  0.00  0.00    +0.214 C 
ATOM     14  O   UNL     1       1.623  -2.560  25.329  0.00  0.00    -0.276 OA
BRANCH  11  15
ATOM     15  C   UNL     1       2.209  -4.979  23.960  0.00  0.00    +0.168 C 
BRANCH  15  19
ATOM     16  N   UNL     1       3.677  -6.970  23.835  0.00  0.00    -0.328 N 
ATOM     17  H   UNL     1       3.050  -7.510  24.455  0.00  0.00    +0.145 HD
ATOM     18  H   UNL     1       4.410  -7.492  23.401  0.00  0.00    +0.145 HD
ATOM     19  C   UNL     1       3.419  -5.717  23.357  0.00  0.00    +0.232 C 
ATOM     20  O   UNL     1       4.129  -5.237  22.472  0.00  0.00    -0.274 OA
ENDBRANCH  15  19
BRANCH  15  21
ATOM     21  C   UNL     1       0.920  -5.805  23.864  0.00  0.00    +0.097 C 
BRANCH  21  22
ATOM     22  S   UNL     1       0.452  -6.304  22.175  0.00  0.00    -0.176 S 
ATOM     23  H   UNL     1      -0.873  -6.123  22.318  0.00  0.00    +0.102 HD
ENDBRANCH  21  22
ENDBRANCH  15  21
ENDBRANCH  11  15
ENDBRANCH  10  13
ENDBRANCH   9  10
ENDBRANCH   8   9
ENDBRANCH   7   8
ENDBRANCH   6   7
ENDBRANCH   2   6
ENDBRANCH   1   4
BRANCH   1  24
ATOM     24  N   UNL     1       9.482   0.225  24.047  0.00  0.00    -0.302 N 
ATOM     25  H   UNL     1       8.715   0.291  23.383  0.00  0.00    +0.150 HD
ATOM     26  C   UNL     1      10.571   1.064  23.934  0.00  0.00    +0.234 C 
ATOM     27  O   UNL     1      11.554   0.990  24.667  0.00  0.00    -0.274 OA
BRANCH  26  28
ATOM     28  C   UNL     1      10.485   2.098  22.794  0.00  0.00    +0.169 C 
BRANCH  28  29
ATOM     29  N   UNL     1      10.181   3.407  23.370  0.00  0.00    -0.303 N 
ATOM     30  H   UNL     1       9.350   3.491  23.946  0.00  0.00    +0.149 HD
ATOM     31  C   UNL     1      11.131   4.406  23.429  0.00  0.00    +0.218 C 
ATOM     32  O   UNL     1      12.275   4.248  23.008  0.00  0.00    -0.275 OA
BRANCH  31  33
ATOM     33  C   UNL     1      10.634   5.740  23.982  0.00  0.00    +0.130 C 
BRANCH  33  34
ATOM     34  C   UNL     1       9.125   5.822  23.978  0.00  0.00    -0.039 A 
ATOM     35  C   UNL     1       8.445   6.417  22.910  0.00  0.00    +0.004 A 
ATOM     36  C   UNL     1       7.051   6.370  22.831  0.00  0.00    +0.010 A 
ATOM     37  C   UNL     1       6.298   5.715  23.819  0.00  0.00    +0.033 A 
ATOM     38  C   UNL     1       6.973   5.167  24.919  0.00  0.00    +0.010 A 
ATOM     39  C   UNL     1       8.372   5.218  24.998  0.00  0.00    +0.004 A 
BRANCH  37  40
ATOM     40  C   UNL     1       4.824   5.443  23.603  0.00  0.00    +0.371 C 
ATOM     41  F   UNL     1       4.376   5.649  22.327  0.00  0.00    -0.187 F 
ATOM     42  F   UNL     1       3.983   6.150  24.411  0.00  0.00    -0.187 F 
BRANCH  40  43
ATOM     43  P   UNL     1       4.334   3.724  23.996  0.00  0.00    +0.401 P 
ATOM     44  O   UNL     1       3.919   2.270  24.329  0.00  0.00    -0.252 OA
BRANCH  43  45
ATOM     45  O   UNL     1       2.770   4.106  23.541  0.00  0.00    -0.320 OA
ATOM     46  H   UNL     1       2.435   4.960  23.886  0.00  0.00    +0.220 HD
ENDBRANCH  43  45
BRANCH  43  47
ATOM     47  O   UNL     1       4.832   3.320  22.456  0.00  0.00    -0.320 OA
ATOM     48  H   UNL     1       4.087   3.396  21.826  0.00  0.00    +0.220 HD
ENDBRANCH  43  47
ENDBRANCH  40  43
ENDBRANCH  37  40
ENDBRANCH  33  34
ENDBRANCH  31  33
ENDBRANCH  28  29
BRANCH  28  49
ATOM     49  C   UNL     1       9.403   1.642  21.823  0.00  0.00    +0.152 C 
BRANCH  49  50
ATOM     50  C   UNL     1       8.044   2.185  22.169  0.00  0.00    +0.307 C 
ATOM     51  O   UNL     1       7.286   1.632  22.955  0.00  0.00    -0.251 OA
BRANCH  50  52
ATOM     52  O   UNL     1       7.705   3.320  21.528  0.00  0.00    -0.481 OA
ATOM     53  H   UNL     1       7.175   3.228  20.717  0.00  0.00    +0.295 HD
ENDBRANCH  50  52
ENDBRANCH  49  50
ENDBRANCH  28  49
ENDBRANCH  26  28
ENDBRANCH   1  24
BRANCH   1  54
ATOM     54  C   UNL     1       9.143  -2.266  24.163  0.00  0.00    +0.067 C 
BRANCH  54  55
ATOM     55  C   UNL     1       8.293  -3.321  24.837  0.00  0.00    -0.045 A 
ATOM     56  C   UNL     1       8.894  -4.109  25.829  0.00  0.00    +0.004 A 
ATOM     57  C   UNL     1       8.112  -4.885  26.677  0.00  0.00    +0.010 A 
ATOM     58  C   UNL     1       6.720  -4.880  26.533  0.00  0.00    +0.033 A 
ATOM     59  C   UNL     1       6.140  -4.246  25.440  0.00  0.00    +0.010 A 
ATOM     60  C   UNL     1       6.927  -3.487  24.589  0.00  0.00    +0.004 A 
BRANCH  58  61
ATOM     61  C   UNL     1       5.845  -5.422  27.605  0.00  0.00    +0.371 C 
ATOM     62  F   UNL     1       4.739  -6.077  27.124  0.00  0.00    -0.187 F 
ATOM     63  F   UNL     1       5.358  -4.504  28.493  0.00  0.00    -0.187 F 
BRANCH  61  64
ATOM     64  P   UNL     1       6.551  -6.745  28.655  0.00  0.00    +0.401 P 
ATOM     65  O   UNL     1       7.148  -7.864  29.543  0.00  0.00    -0.252 OA
BRANCH  64  66
ATOM     66  O   UNL     1       5.064  -7.506  28.652  0.00  0.00    -0.320 OA
ATOM     67  H   UNL     1       4.888  -8.017  27.833  0.00  0.00    +0.220 HD
ENDBRANCH  64  66
BRANCH  64  68
ATOM     68  O   UNL     1       6.221  -5.785  29.974  0.00  0.00    -0.320 OA
ATOM     69  H   UNL     1       5.596  -6.235  30.583  0.00  0.00    +0.220 HD
ENDBRANCH  64  68
ENDBRANCH  61  64
ENDBRANCH  58  61
ENDBRANCH  54  55
ENDBRANCH   1  54
TORSDOF 29
ENDMDL
MODEL 4
REMARK VINA RESULT:      -6.5      2.874      5.114
REMARK  Name = 
REMARK  29 active torsions:
REMARK  status: ('A' for Active; 'I' for Inactive)
REMARK    1  A    between atoms: C_2  and  C_4
REMARK    2  A    between atoms: C_4  and  C_6
REMARK    3  A    between atoms: C_4  and  N_8
REMARK    4  A    between atoms: C_6  and  S_7
REMARK    5  A    between atoms: C_9  and  C_11
REMARK    6  A    between atoms: C_11  and  C_12
REMARK    7  A    between atoms: C_12  and  C_13
REMARK    8  A    between atoms: C_13  and  C_14
REMARK    9  A    between atoms: C_14  and  C_15
REMARK   10  A    between atoms: C_15  and  N_16
REMARK   11  A    between atoms: C_17  and  C_19
REMARK   12  A    between atoms: C_19  and  C_21
REMARK   13  A    between atoms: C_19  and  N_35
REMARK   14  A    between atoms: C_21  and  C_22
REMARK   15  A    between atoms: C_25  and  C_28
REMARK   16  A    between atoms: C_28  and  P_31
REMARK   17  A    between atoms: P_31  and  O_32
REMARK   18  A    between atoms: P_31  and  O_33
REMARK   19  A    between atoms: C_36  and  C_38
REMARK   20  A    between atoms: C_38  and  C_40
REMARK   21  A    between atoms: C_38  and  N_44
REMARK   22  A    between atoms: C_40  and  C_41
REMARK   23  A    between atoms: C_41  and  O_42
REMARK   24  A    between atoms: C_45  and  C_47
REMARK   25  A    between atoms: C_47  and  C_48
REMARK   26  A    between atoms: C_51  and  C_54
REMARK   27  A    between atoms: C_54  and  P_57
REMARK   28  A    between atoms: P_57  and  O_58
REMARK   29  A    between atoms: P_57  and  O_59
REMARK                            x       y       z     vdW  Elec       q    Type
REMARK                         _______ _______ _______ _____ _____    ______ ____
ROOT
ATOM      1  C   UNL     1       9.143  -1.766  23.337  0.00  0.00    +0.163 C 
ENDROOT
BRANCH   1   4
ATOM      2  N   UNL     1       8.984  -3.366  25.275  0.00  0.00    -0.314 N 
ATOM      3  H   UNL     1       9.767  -3.846  24.858  0.00  0.00    +0.149 HD
ATOM      4  C   UNL     1       8.577  -2.158  24.746  0.00  0.00    +0.234 C 
ATOM      5  O   UNL     1       7.802  -1.403  25.336  0.00  0.00    -0.274 OA
BRANCH   2   6
ATOM      6  C   UNL     1       8.509  -3.868  26.567  0.00  0.00    +0.104 C 
BRANCH   6   7
ATOM      7  C   UNL     1       7.340  -4.852  26.405  0.00  0.00    +0.019 C 
BRANCH   7   8
ATOM      8  C   UNL     1       6.654  -5.214  27.739  0.00  0.00    +0.002 C 
BRANCH   8   9
ATOM      9  C   UNL     1       5.354  -4.438  27.922  0.00  0.00    +0.009 C 
BRANCH   9  10
ATOM     10  C   UNL     1       5.217  -3.246  26.982  0.00  0.00    +0.096 C 
BRANCH  10  13
ATOM     11  N   UNL     1       5.649  -0.873  27.310  0.00  0.00    -0.303 N 
ATOM     12  H   UNL     1       6.332  -0.980  26.572  0.00  0.00    +0.149 HD
ATOM     13  C   UNL     1       4.921  -1.959  27.731  0.00  0.00    +0.214 C 
ATOM     14  O   UNL     1       4.089  -1.895  28.633  0.00  0.00    -0.276 OA
BRANCH  11  15
ATOM     15  C   UNL     1       5.521   0.454  27.924  0.00  0.00    +0.168 C 
BRANCH  15  19
ATOM     16  N   UNL     1       7.980   0.237  27.722  0.00  0.00    -0.328 N 
ATOM     17  H   UNL     1       7.888  -0.557  27.067  0.00  0.00    +0.145 HD
ATOM     18  H   UNL     1       8.904   0.602  27.831  0.00  0.00    +0.145 HD
ATOM     19  C   UNL     1       6.941   0.979  28.208  0.00  0.00    +0.232 C 
ATOM     20  O   UNL     1       7.163   2.022  28.824  0.00  0.00    -0.274 OA
ENDBRANCH  15  19
BRANCH  15  21
ATOM     21  C   UNL     1       4.722   1.406  27.024  0.00  0.00    +0.097 C 
BRANCH  21  22
ATOM     22  S   UNL     1       2.914   1.326  27.239  0.00  0.00    -0.176 S 
ATOM     23  H   UNL     1       2.802   2.399  28.043  0.00  0.00    +0.102 HD
ENDBRANCH  21  22
ENDBRANCH  15  21
ENDBRANCH  11  15
ENDBRANCH  10  13
ENDBRANCH   9  10
ENDBRANCH   8   9
ENDBRANCH   7   8
ENDBRANCH   6   7
ENDBRANCH   2   6
ENDBRANCH   1   4
BRANCH   1  24
ATOM     24  N   UNL     1       8.891  -0.329  23.118  0.00  0.00    -0.302 N 
ATOM     25  H   UNL     1       8.049  -0.117  22.591  0.00  0.00    +0.150 HD
ATOM     26  C   UNL     1       9.814   0.664  23.378  0.00  0.00    +0.234 C 
ATOM     27  O   UNL     1      10.878   0.456  23.955  0.00  0.00    -0.274 OA
BRANCH  26  28
ATOM     28  C   UNL     1       9.430   2.065  22.865  0.00  0.00    +0.169 C 
BRANCH  28  29
ATOM     29  N   UNL     1       8.824   2.817  23.963  0.00  0.00    -0.303 N 
ATOM     30  H   UNL     1       8.235   2.311  24.618  0.00  0.00    +0.149 HD
ATOM     31  C   UNL     1       9.281   4.070  24.317  0.00  0.00    +0.218 C 
ATOM     32  O   UNL     1      10.217   4.614  23.735  0.00  0.00    -0.275 OA
BRANCH  31  33
ATOM     33  C   UNL     1       8.490   4.757  25.428  0.00  0.00    +0.130 C 
BRANCH  33  34
ATOM     34  C   UNL     1       7.096   5.128  24.978  0.00  0.00    -0.039 A 
ATOM     35  C   UNL     1       6.896   6.135  24.029  0.00  0.00    +0.004 A 
ATOM     36  C   UNL     1       5.625   6.385  23.504  0.00  0.00    +0.010 A 
ATOM     37  C   UNL     1       4.518   5.624  23.911  0.00  0.00    +0.033 A 
ATOM     38  C   UNL     1       4.706   4.651  24.904  0.00  0.00    +0.010 A 
ATOM     39  C   UNL     1       5.981   4.404  25.431  0.00  0.00    +0.004 A 
BRANCH  37  40
ATOM     40  C   UNL     1       3.205   5.720  23.162  0.00  0.00    +0.371 C 
ATOM     41  F   UNL     1       3.272   6.352  21.951  0.00  0.00    -0.187 F 
ATOM     42  F   UNL     1       2.196   6.331  23.846  0.00  0.00    -0.187 F 
BRANCH  40  43
ATOM     43  P   UNL     1       2.454   4.093  22.795  0.00  0.00    +0.401 P 
ATOM     44  O   UNL     1       1.817   2.716  22.485  0.00  0.00    -0.252 OA
BRANCH  43  45
ATOM     45  O   UNL     1       1.399   4.858  21.747  0.00  0.00    -0.320 OA
ATOM     46  H   UNL     1       1.589   4.722  20.795  0.00  0.00    +0.220 HD
ENDBRANCH  43  45
BRANCH  43  47
ATOM     47  O   UNL     1       3.657   3.888  21.658  0.00  0.00    -0.320 OA
ATOM     48  H   UNL     1       3.417   4.339  20.823  0.00  0.00    +0.220 HD
ENDBRANCH  43  47
ENDBRANCH  40  43
ENDBRANCH  37  40
ENDBRANCH  33  34
ENDBRANCH  31  33
ENDBRANCH  28  29
BRANCH  28  49
ATOM     49  C   UNL     1       8.465   1.893  21.697  0.00  0.00    +0.152 C 
BRANCH  49  50
ATOM     50  C   UNL     1       7.048   2.238  22.058  0.00  0.00    +0.307 C 
ATOM     51  O   UNL     1       6.301   1.463  22.640  0.00  0.00    -0.251 OA
BRANCH  50  52
ATOM     52  O   UNL     1       6.643   3.463  21.669  0.00  0.00    -0.481 OA
ATOM     53  H   UNL     1       7.254   3.973  21.108  0.00  0.00    +0.295 HD
ENDBRANCH  50  52
ENDBRANCH  49  50
ENDBRANCH  28  49
ENDBRANCH  26  28
ENDBRANCH   1  24
BRANCH   1  54
ATOM     54  C   UNL     1       8.576  -2.653  22.208  0.00  0.00    +0.067 C 
BRANCH  54  55
ATOM     55  C   UNL     1       7.261  -3.365  22.439  0.00  0.00    -0.045 A 
ATOM     56  C   UNL     1       7.275  -4.765  22.494  0.00  0.00    +0.004 A 
ATOM     57  C   UNL     1       6.174  -5.459  22.983  0.00  0.00    +0.010 A 
ATOM     58  C   UNL     1       5.047  -4.752  23.416  0.00  0.00    +0.033 A 
ATOM     59  C   UNL     1       4.961  -3.383  23.192  0.00  0.00    +0.010 A 
ATOM     60  C   UNL     1       6.056  -2.699  22.689  0.00  0.00    +0.004 A 
BRANCH  58  61
ATOM     61  C   UNL     1       4.002  -5.420  24.236  0.00  0.00    +0.371 C 
ATOM     62  F   UNL     1       3.164  -4.538  24.870  0.00  0.00    -0.187 F 
ATOM     63  F   UNL     1       4.462  -6.247  25.222  0.00  0.00    -0.187 F 
BRANCH  61  64
ATOM     64  P   UNL     1       2.764  -6.424  23.336  0.00  0.00    +0.401 P 
ATOM     65  O   UNL     1       1.718  -7.274  22.575  0.00  0.00    -0.252 OA
BRANCH  64  66
ATOM     66  O   UNL     1       1.720  -6.247  24.627  0.00  0.00    -0.320 OA
ATOM     67  H   UNL     1       1.215  -7.061  24.837  0.00  0.00    +0.220 HD
ENDBRANCH  64  66
BRANCH  64  68
ATOM     68  O   UNL     1       3.518  -7.779  23.942  0.00  0.00    -0.320 OA
ATOM     69  H   UNL     1       2.855  -8.434  24.254  0.00  0.00    +0.220 HD
ENDBRANCH  64  68
ENDBRANCH  61  64
ENDBRANCH  58  61
ENDBRANCH  54  55
ENDBRANCH   1  54
TORSDOF 29
ENDMDL
MODEL 5
REMARK VINA RESULT:      -6.5      3.582      7.108
REMARK  Name = 
REMARK  29 active torsions:
REMARK  status: ('A' for Active; 'I' for Inactive)
REMARK    1  A    between atoms: C_2  and  C_4
REMARK    2  A    between atoms: C_4  and  C_6
REMARK    3  A    between atoms: C_4  and  N_8
REMARK    4  A    between atoms: C_6  and  S_7
REMARK    5  A    between atoms: C_9  and  C_11
REMARK    6  A    between atoms: C_11  and  C_12
REMARK    7  A    between atoms: C_12  and  C_13
REMARK    8  A    between atoms: C_13  and  C_14
REMARK    9  A    between atoms: C_14  and  C_15
REMARK   10  A    between atoms: C_15  and  N_16
REMARK   11  A    between atoms: C_17  and  C_19
REMARK   12  A    between atoms: C_19  and  C_21
REMARK   13  A    between atoms: C_19  and  N_35
REMARK   14  A    between atoms: C_21  and  C_22
REMARK   15  A    between atoms: C_25  and  C_28
REMARK   16  A    between atoms: C_28  and  P_31
REMARK   17  A    between atoms: P_31  and  O_32
REMARK   18  A    between atoms: P_31  and  O_33
REMARK   19  A    between atoms: C_36  and  C_38
REMARK   20  A    between atoms: C_38  and  C_40
REMARK   21  A    between atoms: C_38  and  N_44
REMARK   22  A    between atoms: C_40  and  C_41
REMARK   23  A    between atoms: C_41  and  O_42
REMARK   24  A    between atoms: C_45  and  C_47
REMARK   25  A    between atoms: C_47  and  C_48
REMARK   26  A    between atoms: C_51  and  C_54
REMARK   27  A    between atoms: C_54  and  P_57
REMARK   28  A    between atoms: P_57  and  O_58
REMARK   29  A    between atoms: P_57  and  O_59
REMARK                            x       y       z     vdW  Elec       q    Type
REMARK                         _______ _______ _______ _____ _____    ______ ____
ROOT
ATOM      1  C   UNL     1       6.558  -3.757  26.944  0.00  0.00    +0.163 C 
ENDROOT
BRANCH   1   4
ATOM      2  N   UNL     1       5.300  -5.003  28.735  0.00  0.00    -0.314 N 
ATOM      3  H   UNL     1       4.558  -4.335  28.586  0.00  0.00    +0.149 HD
ATOM      4  C   UNL     1       6.387  -5.000  27.885  0.00  0.00    +0.234 C 
ATOM      5  O   UNL     1       7.203  -5.924  27.848  0.00  0.00    -0.274 OA
BRANCH   2   6
ATOM      6  C   UNL     1       5.038  -6.085  29.687  0.00  0.00    +0.104 C 
BRANCH   6   7
ATOM      7  C   UNL     1       4.000  -7.082  29.151  0.00  0.00    +0.019 C 
BRANCH   7   8
ATOM      8  C   UNL     1       2.553  -6.547  29.205  0.00  0.00    +0.002 C 
BRANCH   8   9
ATOM      9  C   UNL     1       1.958  -6.418  27.807  0.00  0.00    +0.009 C 
BRANCH   9  10
ATOM     10  C   UNL     1       1.896  -4.982  27.299  0.00  0.00    +0.096 C 
BRANCH  10  13
ATOM     11  N   UNL     1       2.250  -5.900  25.073  0.00  0.00    -0.303 N 
ATOM     12  H   UNL     1       1.725  -6.697  25.408  0.00  0.00    +0.149 HD
ATOM     13  C   UNL     1       2.498  -4.841  25.912  0.00  0.00    +0.214 C 
ATOM     14  O   UNL     1       3.142  -3.853  25.567  0.00  0.00    -0.276 OA
BRANCH  11  15
ATOM     15  C   UNL     1       2.764  -5.961  23.699  0.00  0.00    +0.168 C 
BRANCH  15  19
ATOM     16  N   UNL     1       5.023  -6.315  22.749  0.00  0.00    -0.328 N 
ATOM     17  H   UNL     1       4.888  -5.555  22.061  0.00  0.00    +0.145 HD
ATOM     18  H   UNL     1       5.949  -6.686  22.805  0.00  0.00    +0.145 HD
ATOM     19  C   UNL     1       4.146  -6.639  23.744  0.00  0.00    +0.232 C 
ATOM     20  O   UNL     1       4.482  -7.425  24.631  0.00  0.00    -0.274 OA
ENDBRANCH  15  19
BRANCH  15  21
ATOM     21  C   UNL     1       1.787  -6.698  22.774  0.00  0.00    +0.097 C 
BRANCH  21  22
ATOM     22  S   UNL     1       1.272  -8.345  23.358  0.00  0.00    -0.176 S 
ATOM     23  H   UNL     1       0.185  -7.940  24.038  0.00  0.00    +0.102 HD
ENDBRANCH  21  22
ENDBRANCH  15  21
ENDBRANCH  11  15
ENDBRANCH  10  13
ENDBRANCH   9  10
ENDBRANCH   8   9
ENDBRANCH   7   8
ENDBRANCH   6   7
ENDBRANCH   2   6
ENDBRANCH   1   4
BRANCH   1  24
ATOM     24  N   UNL     1       5.416  -2.848  27.163  0.00  0.00    -0.302 N 
ATOM     25  H   UNL     1       4.504  -3.296  27.158  0.00  0.00    +0.150 HD
ATOM     26  C   UNL     1       5.512  -1.471  27.139  0.00  0.00    +0.234 C 
ATOM     27  O   UNL     1       6.583  -0.874  27.082  0.00  0.00    -0.274 OA
BRANCH  26  28
ATOM     28  C   UNL     1       4.166  -0.721  27.164  0.00  0.00    +0.169 C 
BRANCH  28  29
ATOM     29  N   UNL     1       4.387   0.623  27.694  0.00  0.00    -0.303 N 
ATOM     30  H   UNL     1       4.952   0.716  28.532  0.00  0.00    +0.149 HD
ATOM     31  C   UNL     1       4.143   1.747  26.932  0.00  0.00    +0.218 C 
ATOM     32  O   UNL     1       3.735   1.678  25.775  0.00  0.00    -0.275 OA
BRANCH  31  33
ATOM     33  C   UNL     1       4.343   3.076  27.656  0.00  0.00    +0.130 C 
BRANCH  33  34
ATOM     34  C   UNL     1       5.422   3.913  27.007  0.00  0.00    -0.039 A 
ATOM     35  C   UNL     1       6.733   3.434  26.906  0.00  0.00    +0.004 A 
ATOM     36  C   UNL     1       7.700   4.138  26.183  0.00  0.00    +0.010 A 
ATOM     37  C   UNL     1       7.376   5.339  25.532  0.00  0.00    +0.033 A 
ATOM     38  C   UNL     1       6.079   5.848  25.678  0.00  0.00    +0.010 A 
ATOM     39  C   UNL     1       5.110   5.143  26.406  0.00  0.00    +0.004 A 
BRANCH  37  40
ATOM     40  C   UNL     1       8.345   5.959  24.546  0.00  0.00    +0.371 C 
ATOM     41  F   UNL     1       9.057   7.024  25.024  0.00  0.00    -0.187 F 
ATOM     42  F   UNL     1       7.785   6.380  23.376  0.00  0.00    -0.187 F 
BRANCH  40  43
ATOM     43  P   UNL     1       9.613   4.790  23.935  0.00  0.00    +0.401 P 
ATOM     44  O   UNL     1      10.685   3.800  23.418  0.00  0.00    -0.252 OA
BRANCH  43  45
ATOM     45  O   UNL     1       8.565   4.357  22.705  0.00  0.00    -0.320 OA
ATOM     46  H   UNL     1       8.553   4.966  21.937  0.00  0.00    +0.220 HD
ENDBRANCH  43  45
BRANCH  43  47
ATOM     47  O   UNL     1      10.278   6.076  23.106  0.00  0.00    -0.320 OA
ATOM     48  H   UNL     1      10.676   5.770  22.265  0.00  0.00    +0.220 HD
ENDBRANCH  43  47
ENDBRANCH  40  43
ENDBRANCH  37  40
ENDBRANCH  33  34
ENDBRANCH  31  33
ENDBRANCH  28  29
BRANCH  28  49
ATOM     49  C   UNL     1       3.197  -1.519  28.028  0.00  0.00    +0.152 C 
BRANCH  49  50
ATOM     50  C   UNL     1       1.757  -1.232  27.704  0.00  0.00    +0.307 C 
ATOM     51  O   UNL     1       0.824  -1.729  28.320  0.00  0.00    -0.251 OA
BRANCH  50  52
ATOM     52  O   UNL     1       1.563  -0.402  26.661  0.00  0.00    -0.481 OA
ATOM     53  H   UNL     1       2.114   0.400  26.625  0.00  0.00    +0.295 HD
ENDBRANCH  50  52
ENDBRANCH  49  50
ENDBRANCH  28  49
ENDBRANCH  26  28
ENDBRANCH   1  24
BRANCH   1  54
ATOM     54  C   UNL     1       6.729  -4.159  25.463  0.00  0.00    +0.067 C 
BRANCH  54  55
ATOM     55  C   UNL     1       7.718  -3.391  24.614  0.00  0.00    -0.045 A 
ATOM     56  C   UNL     1       7.462  -3.293  23.239  0.00  0.00    +0.004 A 
ATOM     57  C   UNL     1       8.158  -2.375  22.460  0.00  0.00    +0.010 A 
ATOM     58  C   UNL     1       9.121  -1.552  23.054  0.00  0.00    +0.033 A 
ATOM     59  C   UNL     1       9.503  -1.774  24.373  0.00  0.00    +0.010 A 
ATOM     60  C   UNL     1       8.815  -2.702  25.139  0.00  0.00    +0.004 A 
BRANCH  58  61
ATOM     61  C   UNL     1       9.640  -0.356  22.341  0.00  0.00    +0.371 C 
ATOM     62  F   UNL     1      10.084  -0.632  21.072  0.00  0.00    -0.187 F 
ATOM     63  F   UNL     1      10.679   0.291  22.949  0.00  0.00    -0.187 F 
BRANCH  61  64
ATOM     64  P   UNL     1       8.434   0.967  21.962  0.00  0.00    +0.401 P 
ATOM     65  O   UNL     1       7.413   2.086  21.643  0.00  0.00    -0.252 OA
BRANCH  64  66
ATOM     66  O   UNL     1       9.687   1.910  21.391  0.00  0.00    -0.320 OA
ATOM     67  H   UNL     1      10.305   1.427  20.802  0.00  0.00    +0.220 HD
ENDBRANCH  64  66
BRANCH  64  68
ATOM     68  O   UNL     1       8.583   1.467  23.543  0.00  0.00    -0.320 OA
ATOM     69  H   UNL     1       9.529   1.577  23.784  0.00  0.00    +0.220 HD
ENDBRANCH  64  68
ENDBRANCH  61  64
ENDBRANCH  58  61
ENDBRANCH  54  55
ENDBRANCH   1  54
TORSDOF 29
ENDMDL
MODEL 6
REMARK VINA RESULT:      -6.5      1.971      2.725
REMARK  Name = 
REMARK  29 active torsions:
REMARK  status: ('A' for Active; 'I' for Inactive)
REMARK    1  A    between atoms: C_2  and  C_4
REMARK    2  A    between atoms: C_4  and  C_6
REMARK    3  A    between atoms: C_4  and  N_8
REMARK    4  A    between atoms: C_6  and  S_7
REMARK    5  A    between atoms: C_9  and  C_11
REMARK    6  A    between atoms: C_11  and  C_12
REMARK    7  A    between atoms: C_12  and  C_13
REMARK    8  A    between atoms: C_13  and  C_14
REMARK    9  A    between atoms: C_14  and  C_15
REMARK   10  A    between atoms: C_15  and  N_16
REMARK   11  A    between atoms: C_17  and  C_19
REMARK   12  A    between atoms: C_19  and  C_21
REMARK   13  A    between atoms: C_19  and  N_35
REMARK   14  A    between atoms: C_21  and  C_22
REMARK   15  A    between atoms: C_25  and  C_28
REMARK   16  A    between atoms: C_28  and  P_31
REMARK   17  A    between atoms: P_31  and  O_32
REMARK   18  A    between atoms: P_31  and  O_33
REMARK   19  A    between atoms: C_36  and  C_38
REMARK   20  A    between atoms: C_38  and  C_40
REMARK   21  A    between atoms: C_38  and  N_44
REMARK   22  A    between atoms: C_40  and  C_41
REMARK   23  A    between atoms: C_41  and  O_42
REMARK   24  A    between atoms: C_45  and  C_47
REMARK   25  A    between atoms: C_47  and  C_48
REMARK   26  A    between atoms: C_51  and  C_54
REMARK   27  A    between atoms: C_54  and  P_57
REMARK   28  A    between atoms: P_57  and  O_58
REMARK   29  A    between atoms: P_57  and  O_59
REMARK                            x       y       z     vdW  Elec       q    Type
REMARK                         _______ _______ _______ _____ _____    ______ ____
ROOT
ATOM      1  C   UNL     1       8.333   1.207  23.822  0.00  0.00    +0.163 C 
ENDROOT
BRANCH   1   4
ATOM      2  N   UNL     1       9.209  -1.141  23.573  0.00  0.00    -0.314 N 
ATOM      3  H   UNL     1       8.973  -1.056  22.595  0.00  0.00    +0.149 HD
ATOM      4  C   UNL     1       9.112  -0.032  24.388  0.00  0.00    +0.234 C 
ATOM      5  O   UNL     1       9.607   0.008  25.516  0.00  0.00    -0.274 OA
BRANCH   2   6
ATOM      6  C   UNL     1       9.881  -2.376  23.987  0.00  0.00    +0.104 C 
BRANCH   6   7
ATOM      7  C   UNL     1       8.885  -3.423  24.508  0.00  0.00    +0.019 C 
BRANCH   7   8
ATOM      8  C   UNL     1       8.663  -3.352  26.034  0.00  0.00    +0.002 C 
BRANCH   8   9
ATOM      9  C   UNL     1       8.226  -4.701  26.594  0.00  0.00    +0.009 C 
BRANCH   9  10
ATOM     10  C   UNL     1       6.739  -4.773  26.923  0.00  0.00    +0.096 C 
BRANCH  10  13
ATOM     11  N   UNL     1       5.966  -5.380  24.696  0.00  0.00    -0.303 N 
ATOM     12  H   UNL     1       6.391  -4.511  24.402  0.00  0.00    +0.149 HD
ATOM     13  C   UNL     1       6.001  -5.745  26.019  0.00  0.00    +0.214 C 
ATOM     14  O   UNL     1       5.490  -6.781  26.439  0.00  0.00    -0.276 OA
BRANCH  11  15
ATOM     15  C   UNL     1       5.282  -6.177  23.670  0.00  0.00    +0.168 C 
BRANCH  15  19
ATOM     16  N   UNL     1       2.980  -6.503  24.521  0.00  0.00    -0.328 N 
ATOM     17  H   UNL     1       3.305  -7.177  25.235  0.00  0.00    +0.145 HD
ATOM     18  H   UNL     1       2.027  -6.214  24.602  0.00  0.00    +0.145 HD
ATOM     19  C   UNL     1       3.793  -5.788  23.688  0.00  0.00    +0.232 C 
ATOM     20  O   UNL     1       3.328  -4.870  23.011  0.00  0.00    -0.274 OA
ENDBRANCH  15  19
BRANCH  15  21
ATOM     21  C   UNL     1       5.919  -5.968  22.290  0.00  0.00    +0.097 C 
BRANCH  21  22
ATOM     22  S   UNL     1       6.442  -4.259  21.937  0.00  0.00    -0.176 S 
ATOM     23  H   UNL     1       5.247  -3.812  21.512  0.00  0.00    +0.102 HD
ENDBRANCH  21  22
ENDBRANCH  15  21
ENDBRANCH  11  15
ENDBRANCH  10  13
ENDBRANCH   9  10
ENDBRANCH   8   9
ENDBRANCH   7   8
ENDBRANCH   6   7
ENDBRANCH   2   6
ENDBRANCH   1   4
BRANCH   1  24
ATOM     24  N   UNL     1       9.117   2.422  24.116  0.00  0.00    -0.302 N 
ATOM     25  H   UNL     1       8.722   3.023  24.834  0.00  0.00    +0.150 HD
ATOM     26  C   UNL     1      10.169   2.867  23.342  0.00  0.00    +0.234 C 
ATOM     27  O   UNL     1      10.647   2.212  22.419  0.00  0.00    -0.274 OA
BRANCH  26  28
ATOM     28  C   UNL     1      10.696   4.270  23.698  0.00  0.00    +0.169 C 
BRANCH  28  29
ATOM     29  N   UNL     1       9.630   5.244  23.468  0.00  0.00    -0.303 N 
ATOM     30  H   UNL     1       9.042   5.121  22.649  0.00  0.00    +0.149 HD
ATOM     31  C   UNL     1       9.202   6.093  24.468  0.00  0.00    +0.218 C 
ATOM     32  O   UNL     1       9.688   6.072  25.597  0.00  0.00    -0.275 OA
BRANCH  31  33
ATOM     33  C   UNL     1       8.140   7.106  24.046  0.00  0.00    +0.130 C 
BRANCH  33  34
ATOM     34  C   UNL     1       6.748   6.522  24.113  0.00  0.00    -0.039 A 
ATOM     35  C   UNL     1       5.816   6.778  23.102  0.00  0.00    +0.004 A 
ATOM     36  C   UNL     1       4.579   6.128  23.084  0.00  0.00    +0.010 A 
ATOM     37  C   UNL     1       4.246   5.193  24.076  0.00  0.00    +0.033 A 
ATOM     38  C   UNL     1       5.155   4.976  25.121  0.00  0.00    +0.010 A 
ATOM     39  C   UNL     1       6.394   5.631  25.140  0.00  0.00    +0.004 A 
BRANCH  37  40
ATOM     40  C   UNL     1       3.027   4.308  23.916  0.00  0.00    +0.371 C 
ATOM     41  F   UNL     1       1.839   4.886  24.269  0.00  0.00    -0.187 F 
ATOM     42  F   UNL     1       3.081   3.125  24.591  0.00  0.00    -0.187 F 
BRANCH  40  43
ATOM     43  P   UNL     1       2.769   3.728  22.199  0.00  0.00    +0.401 P 
ATOM     44  O   UNL     1       2.551   3.237  20.747  0.00  0.00    -0.252 OA
BRANCH  43  45
ATOM     45  O   UNL     1       4.136   2.778  22.355  0.00  0.00    -0.320 OA
ATOM     46  H   UNL     1       4.265   2.117  21.643  0.00  0.00    +0.220 HD
ENDBRANCH  43  45
BRANCH  43  47
ATOM     47  O   UNL     1       1.731   2.584  22.832  0.00  0.00    -0.320 OA
ATOM     48  H   UNL     1       2.104   1.686  22.717  0.00  0.00    +0.220 HD
ENDBRANCH  43  47
ENDBRANCH  40  43
ENDBRANCH  37  40
ENDBRANCH  33  34
ENDBRANCH  31  33
ENDBRANCH  28  29
BRANCH  28  49
ATOM     49  C   UNL     1      11.916   4.551  22.828  0.00  0.00    +0.152 C 
BRANCH  49  50
ATOM     50  C   UNL     1      12.967   5.354  23.543  0.00  0.00    +0.307 C 
ATOM     51  O   UNL     1      12.710   6.119  24.463  0.00  0.00    -0.251 OA
BRANCH  50  52
ATOM     52  O   UNL     1      14.221   5.193  23.078  0.00  0.00    -0.481 OA
ATOM     53  H   UNL     1      14.559   5.875  22.472  0.00  0.00    +0.295 HD
ENDBRANCH  50  52
ENDBRANCH  49  50
ENDBRANCH  28  49
ENDBRANCH  26  28
ENDBRANCH   1  24
BRANCH   1  54
ATOM     54  C   UNL     1       6.885   1.283  24.353  0.00  0.00    +0.067 C 
BRANCH  54  55
ATOM     55  C   UNL     1       6.353   0.127  25.171  0.00  0.00    -0.045 A 
ATOM     56  C   UNL     1       6.326   0.270  26.565  0.00  0.00    +0.004 A 
ATOM     57  C   UNL     1       5.595  -0.617  27.347  0.00  0.00    +0.010 A 
ATOM     58  C   UNL     1       4.889  -1.659  26.736  0.00  0.00    +0.033 A 
ATOM     59  C   UNL     1       5.062  -1.909  25.379  0.00  0.00    +0.010 A 
ATOM     60  C   UNL     1       5.806  -1.030  24.608  0.00  0.00    +0.004 A 
BRANCH  58  61
ATOM     61  C   UNL     1       3.851  -2.414  27.485  0.00  0.00    +0.371 C 
ATOM     62  F   UNL     1       3.040  -1.610  28.247  0.00  0.00    -0.187 F 
ATOM     63  F   UNL     1       4.318  -3.367  28.347  0.00  0.00    -0.187 F 
BRANCH  61  64
ATOM     64  P   UNL     1       2.580  -3.277  26.492  0.00  0.00    +0.401 P 
ATOM     65  O   UNL     1       1.505  -4.008  25.651  0.00  0.00    -0.252 OA
BRANCH  64  66
ATOM     66  O   UNL     1       1.474  -3.001  27.712  0.00  0.00    -0.320 OA
ATOM     67  H   UNL     1       1.785  -3.293  28.596  0.00  0.00    +0.220 HD
ENDBRANCH  64  66
BRANCH  64  68
ATOM     68  O   UNL     1       3.146  -4.707  27.128  0.00  0.00    -0.320 OA
ATOM     69  H   UNL     1       3.390  -5.333  26.412  0.00  0.00    +0.220 HD
ENDBRANCH  64  68
ENDBRANCH  61  64
ENDBRANCH  58  61
ENDBRANCH  54  55
ENDBRANCH   1  54
TORSDOF 29
ENDMDL
MODEL 7
REMARK VINA RESULT:      -6.4      2.948      5.634
REMARK  Name = 
REMARK  29 active torsions:
REMARK  status: ('A' for Active; 'I' for Inactive)
REMARK    1  A    between atoms: C_2  and  C_4
REMARK    2  A    between atoms: C_4  and  C_6
REMARK    3  A    between atoms: C_4  and  N_8
REMARK    4  A    between atoms: C_6  and  S_7
REMARK    5  A    between atoms: C_9  and  C_11
REMARK    6  A    between atoms: C_11  and  C_12
REMARK    7  A    between atoms: C_12  and  C_13
REMARK    8  A    between atoms: C_13  and  C_14
REMARK    9  A    between atoms: C_14  and  C_15
REMARK   10  A    between atoms: C_15  and  N_16
REMARK   11  A    between atoms: C_17  and  C_19
REMARK   12  A    between atoms: C_19  and  C_21
REMARK   13  A    between atoms: C_19  and  N_35
REMARK   14  A    between atoms: C_21  and  C_22
REMARK   15  A    between atoms: C_25  and  C_28
REMARK   16  A    between atoms: C_28  and  P_31
REMARK   17  A    between atoms: P_31  and  O_32
REMARK   18  A    between atoms: P_31  and  O_33
REMARK   19  A    between atoms: C_36  and  C_38
REMARK   20  A    between atoms: C_38  and  C_40
REMARK   21  A    between atoms: C_38  and  N_44
REMARK   22  A    between atoms: C_40  and  C_41
REMARK   23  A    between atoms: C_41  and  O_42
REMARK   24  A    between atoms: C_45  and  C_47
REMARK   25  A    between atoms: C_47  and  C_48
REMARK   26  A    between atoms: C_51  and  C_54
REMARK   27  A    between atoms: C_54  and  P_57
REMARK   28  A    between atoms: P_57  and  O_58
REMARK   29  A    between atoms: P_57  and  O_59
REMARK                            x       y       z     vdW  Elec       q    Type
REMARK                         _______ _______ _______ _____ _____    ______ ____
ROOT
ATOM      1  C   UNL     1       9.564  -1.244  24.781  0.00  0.00    +0.163 C 
ENDROOT
BRANCH   1   4
ATOM      2  N   UNL     1       7.113  -0.706  24.997  0.00  0.00    -0.314 N 
ATOM      3  H   UNL     1       7.146  -0.466  24.017  0.00  0.00    +0.149 HD
ATOM      4  C   UNL     1       8.218  -1.288  25.585  0.00  0.00    +0.234 C 
ATOM      5  O   UNL     1       8.174  -1.827  26.693  0.00  0.00    -0.274 OA
BRANCH   2   6
ATOM      6  C   UNL     1       5.802  -0.650  25.650  0.00  0.00    +0.104 C 
BRANCH   6   7
ATOM      7  C   UNL     1       4.923  -1.853  25.276  0.00  0.00    +0.019 C 
BRANCH   7   8
ATOM      8  C   UNL     1       4.493  -2.700  26.493  0.00  0.00    +0.002 C 
BRANCH   8   9
ATOM      9  C   UNL     1       4.980  -2.080  27.798  0.00  0.00    +0.009 C 
BRANCH   9  10
ATOM     10  C   UNL     1       3.851  -1.664  28.735  0.00  0.00    +0.096 C 
BRANCH  10  13
ATOM     11  N   UNL     1       4.951   0.507  28.686  0.00  0.00    -0.303 N 
ATOM     12  H   UNL     1       5.339   0.198  27.804  0.00  0.00    +0.149 HD
ATOM     13  C   UNL     1       4.125  -0.326  29.400  0.00  0.00    +0.214 C 
ATOM     14  O   UNL     1       3.637  -0.012  30.483  0.00  0.00    -0.276 OA
BRANCH  11  15
ATOM     15  C   UNL     1       5.352   1.834  29.170  0.00  0.00    +0.168 C 
BRANCH  15  19
ATOM     16  N   UNL     1       7.526   0.894  28.447  0.00  0.00    -0.328 N 
ATOM     17  H   UNL     1       7.059   0.135  27.922  0.00  0.00    +0.145 HD
ATOM     18  H   UNL     1       8.511   0.975  28.304  0.00  0.00    +0.145 HD
ATOM     19  C   UNL     1       6.885   1.928  29.068  0.00  0.00    +0.232 C 
ATOM     20  O   UNL     1       7.531   2.884  29.497  0.00  0.00    -0.274 OA
ENDBRANCH  15  19
BRANCH  15  21
ATOM     21  C   UNL     1       4.649   2.947  28.382  0.00  0.00    +0.097 C 
BRANCH  21  22
ATOM     22  S   UNL     1       4.589   2.690  26.579  0.00  0.00    -0.176 S 
ATOM     23  H   UNL     1       4.708   1.350  26.605  0.00  0.00    +0.102 HD
ENDBRANCH  21  22
ENDBRANCH  15  21
ENDBRANCH  11  15
ENDBRANCH  10  13
ENDBRANCH   9  10
ENDBRANCH   8   9
ENDBRANCH   7   8
ENDBRANCH   6   7
ENDBRANCH   2   6
ENDBRANCH   1   4
BRANCH   1  24
ATOM     24  N   UNL     1       9.532  -0.071  23.886  0.00  0.00    -0.302 N 
ATOM     25  H   UNL     1       8.749  -0.048  23.238  0.00  0.00    +0.150 HD
ATOM     26  C   UNL     1      10.580   0.815  23.739  0.00  0.00    +0.234 C 
ATOM     27  O   UNL     1      11.580   0.795  24.451  0.00  0.00    -0.274 OA
BRANCH  26  28
ATOM     28  C   UNL     1      10.422   1.830  22.590  0.00  0.00    +0.169 C 
BRANCH  28  29
ATOM     29  N   UNL     1       9.895   3.079  23.136  0.00  0.00    -0.303 N 
ATOM     30  H   UNL     1       8.935   3.086  23.465  0.00  0.00    +0.149 HD
ATOM     31  C   UNL     1      10.730   4.110  23.513  0.00  0.00    +0.218 C 
ATOM     32  O   UNL     1      11.953   4.032  23.414  0.00  0.00    -0.275 OA
BRANCH  31  33
ATOM     33  C   UNL     1      10.022   5.378  23.985  0.00  0.00    +0.130 C 
BRANCH  33  34
ATOM     34  C   UNL     1       8.553   5.367  23.629  0.00  0.00    -0.039 A 
ATOM     35  C   UNL     1       7.631   4.678  24.424  0.00  0.00    +0.004 A 
ATOM     36  C   UNL     1       6.258   4.781  24.184  0.00  0.00    +0.010 A 
ATOM     37  C   UNL     1       5.771   5.586  23.142  0.00  0.00    +0.033 A 
ATOM     38  C   UNL     1       6.695   6.233  22.309  0.00  0.00    +0.010 A 
ATOM     39  C   UNL     1       8.072   6.126  22.550  0.00  0.00    +0.004 A 
BRANCH  37  40
ATOM     40  C   UNL     1       4.292   5.898  23.044  0.00  0.00    +0.371 C 
ATOM     41  F   UNL     1       3.915   6.582  21.921  0.00  0.00    -0.187 F 
ATOM     42  F   UNL     1       3.780   6.600  24.096  0.00  0.00    -0.187 F 
BRANCH  40  43
ATOM     43  P   UNL     1       3.230   4.408  23.059  0.00  0.00    +0.401 P 
ATOM     44  O   UNL     1       2.331   3.148  23.073  0.00  0.00    -0.252 OA
BRANCH  43  45
ATOM     45  O   UNL     1       2.033   5.299  22.303  0.00  0.00    -0.320 OA
ATOM     46  H   UNL     1       2.021   5.232  21.326  0.00  0.00    +0.220 HD
ENDBRANCH  43  45
BRANCH  43  47
ATOM     47  O   UNL     1       3.986   3.958  21.642  0.00  0.00    -0.320 OA
ATOM     48  H   UNL     1       4.944   3.827  21.794  0.00  0.00    +0.220 HD
ENDBRANCH  43  47
ENDBRANCH  40  43
ENDBRANCH  37  40
ENDBRANCH  33  34
ENDBRANCH  31  33
ENDBRANCH  28  29
BRANCH  28  49
ATOM     49  C   UNL     1       9.485   1.225  21.551  0.00  0.00    +0.152 C 
BRANCH  49  50
ATOM     50  C   UNL     1       8.056   1.652  21.740  0.00  0.00    +0.307 C 
ATOM     51  O   UNL     1       7.228   0.969  22.326  0.00  0.00    -0.251 OA
BRANCH  50  52
ATOM     52  O   UNL     1       7.739   2.841  21.188  0.00  0.00    -0.481 OA
ATOM     53  H   UNL     1       8.474   3.451  21.001  0.00  0.00    +0.295 HD
ENDBRANCH  50  52
ENDBRANCH  49  50
ENDBRANCH  28  49
ENDBRANCH  26  28
ENDBRANCH   1  24
BRANCH   1  54
ATOM     54  C   UNL     1       9.844  -2.564  24.031  0.00  0.00    +0.067 C 
BRANCH  54  55
ATOM     55  C   UNL     1       8.670  -3.414  23.599  0.00  0.00    -0.045 A 
ATOM     56  C   UNL     1       8.389  -4.568  24.344  0.00  0.00    +0.004 A 
ATOM     57  C   UNL     1       7.174  -5.226  24.185  0.00  0.00    +0.010 A 
ATOM     58  C   UNL     1       6.234  -4.735  23.273  0.00  0.00    +0.033 A 
ATOM     59  C   UNL     1       6.583  -3.704  22.408  0.00  0.00    +0.010 A 
ATOM     60  C   UNL     1       7.802  -3.062  22.561  0.00  0.00    +0.004 A 
BRANCH  58  61
ATOM     61  C   UNL     1       4.824  -5.203  23.312  0.00  0.00    +0.371 C 
ATOM     62  F   UNL     1       4.517  -6.083  22.304  0.00  0.00    -0.187 F 
ATOM     63  F   UNL     1       3.873  -4.225  23.233  0.00  0.00    -0.187 F 
BRANCH  61  64
ATOM     64  P   UNL     1       4.328  -6.210  24.758  0.00  0.00    +0.401 P 
ATOM     65  O   UNL     1       3.908  -7.060  25.981  0.00  0.00    -0.252 OA
BRANCH  64  66
ATOM     66  O   UNL     1       4.218  -7.543  23.760  0.00  0.00    -0.320 OA
ATOM     67  H   UNL     1       3.411  -7.550  23.202  0.00  0.00    +0.220 HD
ENDBRANCH  64  66
BRANCH  64  68
ATOM     68  O   UNL     1       2.765  -5.700  24.495  0.00  0.00    -0.320 OA
ATOM     69  H   UNL     1       2.124  -6.358  24.841  0.00  0.00    +0.220 HD
ENDBRANCH  64  68
ENDBRANCH  61  64
ENDBRANCH  58  61
ENDBRANCH  54  55
ENDBRANCH   1  54
TORSDOF 29
ENDMDL
MODEL 8
REMARK VINA RESULT:      -6.2      3.568      9.575
REMARK  Name = 
REMARK  29 active torsions:
REMARK  status: ('A' for Active; 'I' for Inactive)
REMARK    1  A    between atoms: C_2  and  C_4
REMARK    2  A    between atoms: C_4  and  C_6
REMARK    3  A    between atoms: C_4  and  N_8
REMARK    4  A    between atoms: C_6  and  S_7
REMARK    5  A    between atoms: C_9  and  C_11
REMARK    6  A    between atoms: C_11  and  C_12
REMARK    7  A    between atoms: C_12  and  C_13
REMARK    8  A    between atoms: C_13  and  C_14
REMARK    9  A    between atoms: C_14  and  C_15
REMARK   10  A    between atoms: C_15  and  N_16
REMARK   11  A    between atoms: C_17  and  C_19
REMARK   12  A    between atoms: C_19  and  C_21
REMARK   13  A    between atoms: C_19  and  N_35
REMARK   14  A    between atoms: C_21  and  C_22
REMARK   15  A    between atoms: C_25  and  C_28
REMARK   16  A    between atoms: C_28  and  P_31
REMARK   17  A    between atoms: P_31  and  O_32
REMARK   18  A    between atoms: P_31  and  O_33
REMARK   19  A    between atoms: C_36  and  C_38
REMARK   20  A    between atoms: C_38  and  C_40
REMARK   21  A    between atoms: C_38  and  N_44
REMARK   22  A    between atoms: C_40  and  C_41
REMARK   23  A    between atoms: C_41  and  O_42
REMARK   24  A    between atoms: C_45  and  C_47
REMARK   25  A    between atoms: C_47  and  C_48
REMARK   26  A    between atoms: C_51  and  C_54
REMARK   27  A    between atoms: C_54  and  P_57
REMARK   28  A    between atoms: P_57  and  O_58
REMARK   29  A    between atoms: P_57  and  O_59
REMARK                            x       y       z     vdW  Elec       q    Type
REMARK                         _______ _______ _______ _____ _____    ______ ____
ROOT
ATOM      1  C   UNL     1       7.582   1.234  26.242  0.00  0.00    +0.163 C 
ENDROOT
BRANCH   1   4
ATOM      2  N   UNL     1       9.054  -0.494  25.151  0.00  0.00    -0.314 N 
ATOM      3  H   UNL     1       9.764  -0.210  25.810  0.00  0.00    +0.149 HD
ATOM      4  C   UNL     1       7.776   0.008  25.282  0.00  0.00    +0.234 C 
ATOM      5  O   UNL     1       6.810  -0.468  24.681  0.00  0.00    -0.274 OA
BRANCH   2   6
ATOM      6  C   UNL     1       9.381  -1.615  24.266  0.00  0.00    +0.104 C 
BRANCH   6   7
ATOM      7  C   UNL     1      10.080  -1.146  22.981  0.00  0.00    +0.019 C 
BRANCH   7   8
ATOM      8  C   UNL     1       9.098  -0.682  21.883  0.00  0.00    +0.002 C 
BRANCH   8   9
ATOM      9  C   UNL     1       8.870   0.824  21.946  0.00  0.00    +0.009 C 
BRANCH   9  10
ATOM     10  C   UNL     1      10.147   1.642  21.791  0.00  0.00    +0.096 C 
BRANCH  10  13
ATOM     11  N   UNL     1      10.222   3.817  22.882  0.00  0.00    -0.303 N 
ATOM     12  H   UNL     1       9.904   4.181  21.994  0.00  0.00    +0.149 HD
ATOM     13  C   UNL     1      10.448   2.470  23.028  0.00  0.00    +0.214 C 
ATOM     14  O   UNL     1      10.849   1.971  24.077  0.00  0.00    -0.276 OA
BRANCH  11  15
ATOM     15  C   UNL     1      10.474   4.784  23.957  0.00  0.00    +0.168 C 
BRANCH  15  19
ATOM     16  N   UNL     1      12.324   5.323  22.402  0.00  0.00    -0.328 N 
ATOM     17  H   UNL     1      11.817   4.905  21.604  0.00  0.00    +0.145 HD
ATOM     18  H   UNL     1      13.154   5.828  22.170  0.00  0.00    +0.145 HD
ATOM     19  C   UNL     1      11.816   5.477  23.660  0.00  0.00    +0.232 C 
ATOM     20  O   UNL     1      12.419   6.160  24.489  0.00  0.00    -0.274 OA
ENDBRANCH  15  19
BRANCH  15  21
ATOM     21  C   UNL     1       9.319   5.787  24.081  0.00  0.00    +0.097 C 
BRANCH  21  22
ATOM     22  S   UNL     1       8.972   6.352  25.778  0.00  0.00    -0.176 S 
ATOM     23  H   UNL     1       8.084   5.389  26.087  0.00  0.00    +0.102 HD
ENDBRANCH  21  22
ENDBRANCH  15  21
ENDBRANCH  11  15
ENDBRANCH  10  13
ENDBRANCH   9  10
ENDBRANCH   8   9
ENDBRANCH   7   8
ENDBRANCH   6   7
ENDBRANCH   2   6
ENDBRANCH   1   4
BRANCH   1  24
ATOM     24  N   UNL     1       6.224   1.166  26.814  0.00  0.00    -0.302 N 
ATOM     25  H   UNL     1       5.470   1.282  26.142  0.00  0.00    +0.150 HD
ATOM     26  C   UNL     1       5.955   1.189  28.167  0.00  0.00    +0.234 C 
ATOM     27  O   UNL     1       6.830   1.116  29.026  0.00  0.00    -0.274 OA
BRANCH  26  28
ATOM     28  C   UNL     1       4.467   1.339  28.537  0.00  0.00    +0.169 C 
BRANCH  28  29
ATOM     29  N   UNL     1       3.761   0.118  28.149  0.00  0.00    -0.303 N 
ATOM     30  H   UNL     1       3.538  -0.010  27.167  0.00  0.00    +0.149 HD
ATOM     31  C   UNL     1       3.693  -0.972  28.991  0.00  0.00    +0.218 C 
ATOM     32  O   UNL     1       4.221  -0.977  30.101  0.00  0.00    -0.275 OA
BRANCH  31  33
ATOM     33  C   UNL     1       2.851  -2.137  28.475  0.00  0.00    +0.130 C 
BRANCH  33  34
ATOM     34  C   UNL     1       3.462  -2.771  27.247  0.00  0.00    -0.039 A 
ATOM     35  C   UNL     1       2.673  -3.080  26.134  0.00  0.00    +0.004 A 
ATOM     36  C   UNL     1       3.253  -3.533  24.946  0.00  0.00    +0.010 A 
ATOM     37  C   UNL     1       4.645  -3.679  24.838  0.00  0.00    +0.033 A 
ATOM     38  C   UNL     1       5.433  -3.424  25.968  0.00  0.00    +0.010 A 
ATOM     39  C   UNL     1       4.850  -2.973  27.161  0.00  0.00    +0.004 A 
BRANCH  37  40
ATOM     40  C   UNL     1       5.286  -3.919  23.487  0.00  0.00    +0.371 C 
ATOM     41  F   UNL     1       5.452  -2.802  22.715  0.00  0.00    -0.187 F 
ATOM     42  F   UNL     1       4.643  -4.826  22.696  0.00  0.00    -0.187 F 
BRANCH  40  43
ATOM     43  P   UNL     1       6.956  -4.661  23.593  0.00  0.00    +0.401 P 
ATOM     44  O   UNL     1       8.368  -5.289  23.684  0.00  0.00    -0.252 OA
BRANCH  43  45
ATOM     45  O   UNL     1       6.392  -5.965  22.710  0.00  0.00    -0.320 OA
ATOM     46  H   UNL     1       6.381  -6.818  23.192  0.00  0.00    +0.220 HD
ENDBRANCH  43  45
BRANCH  43  47
ATOM     47  O   UNL     1       7.355  -3.748  22.255  0.00  0.00    -0.320 OA
ATOM     48  H   UNL     1       6.778  -3.983  21.499  0.00  0.00    +0.220 HD
ENDBRANCH  43  47
ENDBRANCH  40  43
ENDBRANCH  37  40
ENDBRANCH  33  34
ENDBRANCH  31  33
ENDBRANCH  28  29
BRANCH  28  49
ATOM     49  C   UNL     1       3.921   2.563  27.810  0.00  0.00    +0.152 C 
BRANCH  49  50
ATOM     50  C   UNL     1       2.906   2.211  26.759  0.00  0.00    +0.307 C 
ATOM     51  O   UNL     1       1.710   2.431  26.888  0.00  0.00    -0.251 OA
BRANCH  50  52
ATOM     52  O   UNL     1       3.407   1.605  25.664  0.00  0.00    -0.481 OA
ATOM     53  H   UNL     1       3.326   2.081  24.819  0.00  0.00    +0.295 HD
ENDBRANCH  50  52
ENDBRANCH  49  50
ENDBRANCH  28  49
ENDBRANCH  26  28
ENDBRANCH   1  24
BRANCH   1  54
ATOM     54  C   UNL     1       7.873   2.579  25.543  0.00  0.00    +0.067 C 
BRANCH  54  55
ATOM     55  C   UNL     1       6.794   3.192  24.676  0.00  0.00    -0.045 A 
ATOM     56  C   UNL     1       6.623   2.678  23.383  0.00  0.00    +0.004 A 
ATOM     57  C   UNL     1       5.483   2.989  22.651  0.00  0.00    +0.010 A 
ATOM     58  C   UNL     1       4.508   3.823  23.208  0.00  0.00    +0.033 A 
ATOM     59  C   UNL     1       4.760   4.476  24.409  0.00  0.00    +0.010 A 
ATOM     60  C   UNL     1       5.906   4.174  25.127  0.00  0.00    +0.004 A 
BRANCH  58  61
ATOM     61  C   UNL     1       3.152   3.911  22.606  0.00  0.00    +0.371 C 
ATOM     62  F   UNL     1       2.686   2.708  22.138  0.00  0.00    -0.187 F 
ATOM     63  F   UNL     1       3.026   4.775  21.554  0.00  0.00    -0.187 F 
BRANCH  61  64
ATOM     64  P   UNL     1       1.777   4.354  23.729  0.00  0.00    +0.401 P 
ATOM     65  O   UNL     1       0.614   4.730  24.679  0.00  0.00    -0.252 OA
BRANCH  64  66
ATOM     66  O   UNL     1       1.378   2.737  23.839  0.00  0.00    -0.320 OA
ATOM     67  H   UNL     1       2.083   2.186  24.243  0.00  0.00    +0.220 HD
ENDBRANCH  64  66
BRANCH  64  68
ATOM     68  O   UNL     1       0.850   4.643  22.377  0.00  0.00    -0.320 OA
ATOM     69  H   UNL     1       1.412   4.678  21.573  0.00  0.00    +0.220 HD
ENDBRANCH  64  68
ENDBRANCH  61  64
ENDBRANCH  58  61
ENDBRANCH  54  55
ENDBRANCH   1  54
TORSDOF 29
ENDMDL
MODEL 9
REMARK VINA RESULT:      -6.2      2.684      4.014
REMARK  Name = 
REMARK  29 active torsions:
REMARK  status: ('A' for Active; 'I' for Inactive)
REMARK    1  A    between atoms: C_2  and  C_4
REMARK    2  A    between atoms: C_4  and  C_6
REMARK    3  A    between atoms: C_4  and  N_8
REMARK    4  A    between atoms: C_6  and  S_7
REMARK    5  A    between atoms: C_9  and  C_11
REMARK    6  A    between atoms: C_11  and  C_12
REMARK    7  A    between atoms: C_12  and  C_13
REMARK    8  A    between atoms: C_13  and  C_14
REMARK    9  A    between atoms: C_14  and  C_15
REMARK   10  A    between atoms: C_15  and  N_16
REMARK   11  A    between atoms: C_17  and  C_19
REMARK   12  A    between atoms: C_19  and  C_21
REMARK   13  A    between atoms: C_19  and  N_35
REMARK   14  A    between atoms: C_21  and  C_22
REMARK   15  A    between atoms: C_25  and  C_28
REMARK   16  A    between atoms: C_28  and  P_31
REMARK   17  A    between atoms: P_31  and  O_32
REMARK   18  A    between atoms: P_31  and  O_33
REMARK   19  A    between atoms: C_36  and  C_38
REMARK   20  A    between atoms: C_38  and  C_40
REMARK   21  A    between atoms: C_38  and  N_44
REMARK   22  A    between atoms: C_40  and  C_41
REMARK   23  A    between atoms: C_41  and  O_42
REMARK   24  A    between atoms: C_45  and  C_47
REMARK   25  A    between atoms: C_47  and  C_48
REMARK   26  A    between atoms: C_51  and  C_54
REMARK   27  A    between atoms: C_54  and  P_57
REMARK   28  A    between atoms: P_57  and  O_58
REMARK   29  A    between atoms: P_57  and  O_59
REMARK                            x       y       z     vdW  Elec       q    Type
REMARK                         _______ _______ _______ _____ _____    ______ ____
ROOT
ATOM      1  C   UNL     1       7.913   1.252  23.233  0.00  0.00    +0.163 C 
ENDROOT
BRANCH   1   4
ATOM      2  N   UNL     1       8.073  -1.260  23.291  0.00  0.00    -0.314 N 
ATOM      3  H   UNL     1       7.879  -1.230  22.301  0.00  0.00    +0.149 HD
ATOM      4  C   UNL     1       8.295  -0.079  23.969  0.00  0.00    +0.234 C 
ATOM      5  O   UNL     1       8.772  -0.046  25.106  0.00  0.00    -0.274 OA
BRANCH   2   6
ATOM      6  C   UNL     1       8.356  -2.576  23.872  0.00  0.00    +0.104 C 
BRANCH   6   7
ATOM      7  C   UNL     1       7.745  -3.713  23.039  0.00  0.00    +0.019 C 
BRANCH   7   8
ATOM      8  C   UNL     1       6.446  -3.310  22.311  0.00  0.00    +0.002 C 
BRANCH   8   9
ATOM      9  C   UNL     1       5.242  -4.057  22.873  0.00  0.00    +0.009 C 
BRANCH   9  10
ATOM     10  C   UNL     1       5.420  -5.571  22.902  0.00  0.00    +0.096 C 
BRANCH  10  13
ATOM     11  N   UNL     1       5.532  -5.355  25.324  0.00  0.00    -0.303 N 
ATOM     12  H   UNL     1       5.987  -4.470  25.140  0.00  0.00    +0.149 HD
ATOM     13  C   UNL     1       5.141  -6.153  24.276  0.00  0.00    +0.214 C 
ATOM     14  O   UNL     1       4.598  -7.243  24.435  0.00  0.00    -0.276 OA
BRANCH  11  15
ATOM     15  C   UNL     1       5.367  -5.751  26.727  0.00  0.00    +0.168 C 
BRANCH  15  19
ATOM     16  N   UNL     1       7.833  -5.686  26.510  0.00  0.00    -0.328 N 
ATOM     17  H   UNL     1       7.770  -5.296  25.554  0.00  0.00    +0.145 HD
ATOM     18  H   UNL     1       8.748  -5.703  26.910  0.00  0.00    +0.145 HD
ATOM     19  C   UNL     1       6.771  -5.900  27.342  0.00  0.00    +0.232 C 
ATOM     20  O   UNL     1       6.962  -6.180  28.525  0.00  0.00    -0.274 OA
ENDBRANCH  15  19
BRANCH  15  21
ATOM     21  C   UNL     1       4.505  -4.737  27.491  0.00  0.00    +0.097 C 
BRANCH  21  22
ATOM     22  S   UNL     1       5.041  -3.003  27.336  0.00  0.00    -0.176 S 
ATOM     23  H   UNL     1       5.937  -3.201  26.352  0.00  0.00    +0.102 HD
ENDBRANCH  21  22
ENDBRANCH  15  21
ENDBRANCH  11  15
ENDBRANCH  10  13
ENDBRANCH   9  10
ENDBRANCH   8   9
ENDBRANCH   7   8
ENDBRANCH   6   7
ENDBRANCH   2   6
ENDBRANCH   1   4
BRANCH   1  24
ATOM     24  N   UNL     1       8.806   2.323  23.716  0.00  0.00    -0.302 N 
ATOM     25  H   UNL     1       8.421   2.900  24.460  0.00  0.00    +0.150 HD
ATOM     26  C   UNL     1       9.971   2.700  23.080  0.00  0.00    +0.234 C 
ATOM     27  O   UNL     1      10.451   2.079  22.136  0.00  0.00    -0.274 OA
BRANCH  26  28
ATOM     28  C   UNL     1      10.628   3.984  23.624  0.00  0.00    +0.169 C 
BRANCH  28  29
ATOM     29  N   UNL     1       9.735   5.112  23.367  0.00  0.00    -0.303 N 
ATOM     30  H   UNL     1       9.517   5.336  22.402  0.00  0.00    +0.149 HD
ATOM     31  C   UNL     1       8.945   5.646  24.365  0.00  0.00    +0.218 C 
ATOM     32  O   UNL     1       8.947   5.202  25.511  0.00  0.00    -0.275 OA
BRANCH  31  33
ATOM     33  C   UNL     1       8.130   6.873  23.958  0.00  0.00    +0.130 C 
BRANCH  33  34
ATOM     34  C   UNL     1       6.659   6.552  23.831  0.00  0.00    -0.039 A 
ATOM     35  C   UNL     1       6.184   5.791  22.758  0.00  0.00    +0.004 A 
ATOM     36  C   UNL     1       4.852   5.371  22.709  0.00  0.00    +0.010 A 
ATOM     37  C   UNL     1       3.959   5.697  23.743  0.00  0.00    +0.033 A 
ATOM     38  C   UNL     1       4.418   6.507  24.791  0.00  0.00    +0.010 A 
ATOM     39  C   UNL     1       5.754   6.930  24.836  0.00  0.00    +0.004 A 
BRANCH  37  40
ATOM     40  C   UNL     1       2.600   5.033  23.817  0.00  0.00    +0.371 C 
ATOM     41  F   UNL     1       1.533   5.888  23.806  0.00  0.00    -0.187 F 
ATOM     42  F   UNL     1       2.414   4.219  24.896  0.00  0.00    -0.187 F 
BRANCH  40  43
ATOM     43  P   UNL     1       2.278   3.873  22.438  0.00  0.00    +0.401 P 
ATOM     44  O   UNL     1       2.008   2.892  21.271  0.00  0.00    -0.252 OA
BRANCH  43  45
ATOM     45  O   UNL     1       2.756   2.617  23.433  0.00  0.00    -0.320 OA
ATOM     46  H   UNL     1       2.086   1.915  23.566  0.00  0.00    +0.220 HD
ENDBRANCH  43  45
BRANCH  43  47
ATOM     47  O   UNL     1       0.687   3.850  22.939  0.00  0.00    -0.320 OA
ATOM     48  H   UNL     1       0.100   4.163  22.221  0.00  0.00    +0.220 HD
ENDBRANCH  43  47
ENDBRANCH  40  43
ENDBRANCH  37  40
ENDBRANCH  33  34
ENDBRANCH  31  33
ENDBRANCH  28  29
BRANCH  28  49
ATOM     49  C   UNL     1      11.973   4.157  22.928  0.00  0.00    +0.152 C 
BRANCH  49  50
ATOM     50  C   UNL     1      12.817   5.233  23.553  0.00  0.00    +0.307 C 
ATOM     51  O   UNL     1      12.359   6.090  24.297  0.00  0.00    -0.251 OA
BRANCH  50  52
ATOM     52  O   UNL     1      14.120   5.204  23.214  0.00  0.00    -0.481 OA
ATOM     53  H   UNL     1      14.334   5.303  22.269  0.00  0.00    +0.295 HD
ENDBRANCH  50  52
ENDBRANCH  49  50
ENDBRANCH  28  49
ENDBRANCH  26  28
ENDBRANCH   1  24
BRANCH   1  54
ATOM     54  C   UNL     1       6.417   1.602  23.391  0.00  0.00    +0.067 C 
BRANCH  54  55
ATOM     55  C   UNL     1       5.897   1.950  24.768  0.00  0.00    -0.045 A 
ATOM     56  C   UNL     1       5.280   0.933  25.510  0.00  0.00    +0.004 A 
ATOM     57  C   UNL     1       5.044   1.103  26.870  0.00  0.00    +0.010 A 
ATOM     58  C   UNL     1       5.420   2.297  27.495  0.00  0.00    +0.033 A 
ATOM     59  C   UNL     1       5.861   3.370  26.728  0.00  0.00    +0.010 A 
ATOM     60  C   UNL     1       6.079   3.199  25.370  0.00  0.00    +0.004 A 
BRANCH  58  61
ATOM     61  C   UNL     1       5.487   2.389  28.977  0.00  0.00    +0.371 C 
ATOM     62  F   UNL     1       4.591   1.567  29.613  0.00  0.00    -0.187 F 
ATOM     63  F   UNL     1       5.267   3.631  29.503  0.00  0.00    -0.187 F 
BRANCH  61  64
ATOM     64  P   UNL     1       7.036   1.823  29.769  0.00  0.00    +0.401 P 
ATOM     65  O   UNL     1       8.347   1.344  30.438  0.00  0.00    -0.252 OA
BRANCH  64  66
ATOM     66  O   UNL     1       7.599   3.395  29.732  0.00  0.00    -0.320 OA
ATOM     67  H   UNL     1       6.934   4.056  30.020  0.00  0.00    +0.220 HD
ENDBRANCH  64  66
BRANCH  64  68
ATOM     68  O   UNL     1       7.595   1.432  28.250  0.00  0.00    -0.320 OA
ATOM     69  H   UNL     1       8.412   0.892  28.310  0.00  0.00    +0.220 HD
ENDBRANCH  64  68
ENDBRANCH  61  64
ENDBRANCH  58  61
ENDBRANCH  54  55
ENDBRANCH   1  54
TORSDOF 29
ENDMDL
