MODEL 1
REMARK VINA RESULT:      -6.4      0.000      0.000
REMARK  Name = 
REMARK  8 active torsions:
REMARK  status: ('A' for Active; 'I' for Inactive)
REMARK    1  A    between atoms: N_7  and  C_8
REMARK    2  A    between atoms: C_9  and  C_11
REMARK    3  A    between atoms: C_11  and  O_13
REMARK    4  A    between atoms: O_13  and  C_14
REMARK    5  A    between atoms: C_15  and  O_18
REMARK    6  A    between atoms: O_18  and  P_19
REMARK    7  A    between atoms: P_19  and  O_20
REMARK    8  A    between atoms: P_19  and  C_22
REMARK                            x       y       z     vdW  Elec       q    Type
REMARK                         _______ _______ _______ _____ _____    ______ ____
ROOT
ATOM      1  C   UNL     1       8.720  -1.148  22.121  0.00  0.00    +0.059 C 
ATOM      2  C   UNL     1       9.579  -2.180  22.890  0.00  0.00    +0.052 C 
ATOM      3  C   UNL     1       9.406  -2.125  24.398  0.00  0.00    +0.145 C 
ATOM      4  C   UNL     1       9.451  -0.628  24.857  0.00  0.00    +0.144 C 
ATOM      5  C   UNL     1       8.946   0.411  23.809  0.00  0.00    +0.073 C 
ATOM      6  C   UNL     1      10.002   0.784  22.726  0.00  0.00    +0.021 C 
ATOM      7  N   UNL     1       7.980  -0.163  22.898  0.00  0.00    -0.299 NA
ATOM      8  C   UNL     1       6.653  -0.377  23.406  0.00  0.00    +0.105 C 
ATOM      9  C   UNL     1       9.708  -0.143  21.528  0.00  0.00    +0.020 C 
ENDROOT
BRANCH   4  10
ATOM     10  C   UNL     1       8.820  -0.413  26.224  0.00  0.00    +0.314 C 
ATOM     11  O   UNL     1       8.973  -1.141  27.201  0.00  0.00    -0.250 OA
BRANCH  10  12
ATOM     12  O   UNL     1       7.976   0.656  26.184  0.00  0.00    -0.468 OA
ATOM     13  C   UNL     1       6.914   0.669  27.131  0.00  0.00    +0.280 C 
ENDBRANCH  10  12
ENDBRANCH   4  10
BRANCH   3  14
ATOM     14  O   UNL     1       8.243  -2.854  24.797  0.00  0.00    -0.300 OA
BRANCH  14  15
ATOM     15  P   UNL     1       8.210  -4.467  25.251  0.00  0.00    +0.361 P 
ATOM     16  O   UNL     1       9.434  -5.224  24.721  0.00  0.00    -0.253 OA
BRANCH  15  17
ATOM     17  C   UNL     1       7.181  -4.838  23.782  0.00  0.00    +0.064 A 
ATOM     18  C   UNL     1       6.173  -3.943  23.375  0.00  0.00    +0.016 A 
ATOM     19  C   UNL     1       5.627  -3.984  22.093  0.00  0.00    +0.001 A 
ATOM     20  C   UNL     1       6.093  -4.921  21.181  0.00  0.00    +0.000 A 
ATOM     21  C   UNL     1       7.088  -5.822  21.560  0.00  0.00    +0.001 A 
ATOM     22  C   UNL     1       7.631  -5.786  22.852  0.00  0.00    +0.016 A 
ENDBRANCH  15  17
BRANCH  15  23
ATOM     23  O   UNL     1       9.182  -4.116  26.638  0.00  0.00    -0.321 OA
ATOM     24  H   UNL     1       8.914  -3.201  26.864  0.00  0.00    +0.220 HD
ENDBRANCH  15  23
ENDBRANCH  14  15
ENDBRANCH   3  14
TORSDOF 6
ENDMDL
MODEL 2
REMARK VINA RESULT:      -5.8      2.780      5.624
REMARK  Name = 
REMARK  8 active torsions:
REMARK  status: ('A' for Active; 'I' for Inactive)
REMARK    1  A    between atoms: N_7  and  C_8
REMARK    2  A    between atoms: C_9  and  C_11
REMARK    3  A    between atoms: C_11  and  O_13
REMARK    4  A    between atoms: O_13  and  C_14
REMARK    5  A    between atoms: C_15  and  O_18
REMARK    6  A    between atoms: O_18  and  P_19
REMARK    7  A    between atoms: P_19  and  O_20
REMARK    8  A    between atoms: P_19  and  C_22
REMARK                            x       y       z     vdW  Elec       q    Type
REMARK                         _______ _______ _______ _____ _____    ______ ____
ROOT
ATOM      1  C   UNL     1       7.562  -3.656  26.382  0.00  0.00    +0.059 C 
ATOM      2  C   UNL     1       8.259  -2.278  26.288  0.00  0.00    +0.052 C 
ATOM      3  C   UNL     1       8.256  -1.680  24.891  0.00  0.00    +0.145 C 
ATOM      4  C   UNL     1       8.660  -2.792  23.865  0.00  0.00    +0.144 C 
ATOM      5  C   UNL     1       8.280  -4.249  24.270  0.00  0.00    +0.073 C 
ATOM      6  C   UNL     1       9.275  -4.909  25.271  0.00  0.00    +0.021 C 
ATOM      7  N   UNL     1       7.128  -4.286  25.143  0.00  0.00    -0.299 NA
ATOM      8  C   UNL     1       5.844  -4.061  24.538  0.00  0.00    +0.105 C 
ATOM      9  C   UNL     1       8.673  -4.666  26.671  0.00  0.00    +0.020 C 
ENDROOT
BRANCH   4  10
ATOM     10  C   UNL     1       8.231  -2.464  22.444  0.00  0.00    +0.314 C 
ATOM     11  O   UNL     1       7.187  -2.831  21.913  0.00  0.00    -0.250 OA
BRANCH  10  12
ATOM     12  O   UNL     1       9.222  -1.782  21.804  0.00  0.00    -0.468 OA
ATOM     13  C   UNL     1      10.447  -1.618  22.511  0.00  0.00    +0.280 C 
ENDBRANCH  10  12
ENDBRANCH   4  10
BRANCH   3  14
ATOM     14  O   UNL     1       7.014  -1.025  24.628  0.00  0.00    -0.300 OA
BRANCH  14  15
ATOM     15  P   UNL     1       6.535   0.452  25.260  0.00  0.00    +0.361 P 
ATOM     16  O   UNL     1       5.245   0.953  24.600  0.00  0.00    -0.253 OA
BRANCH  15  17
ATOM     17  C   UNL     1       7.631   1.297  24.061  0.00  0.00    +0.064 A 
ATOM     18  C   UNL     1       8.924   1.706  24.443  0.00  0.00    +0.016 A 
ATOM     19  C   UNL     1       9.909   2.005  23.503  0.00  0.00    +0.001 A 
ATOM     20  C   UNL     1       9.621   1.887  22.150  0.00  0.00    +0.000 A 
ATOM     21  C   UNL     1       8.346   1.489  21.744  0.00  0.00    +0.001 A 
ATOM     22  C   UNL     1       7.354   1.196  22.690  0.00  0.00    +0.016 A 
ENDBRANCH  15  17
BRANCH  15  23
ATOM     23  O   UNL     1       5.500  -0.346  26.392  0.00  0.00    -0.321 OA
ATOM     24  H   UNL     1       4.699   0.216  26.386  0.00  0.00    +0.220 HD
ENDBRANCH  15  23
ENDBRANCH  14  15
ENDBRANCH   3  14
TORSDOF 6
ENDMDL
MODEL 3
REMARK VINA RESULT:      -5.8      2.315      5.158
REMARK  Name = 
REMARK  8 active torsions:
REMARK  status: ('A' for Active; 'I' for Inactive)
REMARK    1  A    between atoms: N_7  and  C_8
REMARK    2  A    between atoms: C_9  and  C_11
REMARK    3  A    between atoms: C_11  and  O_13
REMARK    4  A    between atoms: O_13  and  C_14
REMARK    5  A    between atoms: C_15  and  O_18
REMARK    6  A    between atoms: O_18  and  P_19
REMARK    7  A    between atoms: P_19  and  O_20
REMARK    8  A    between atoms: P_19  and  C_22
REMARK                            x       y       z     vdW  Elec       q    Type
REMARK                         _______ _______ _______ _____ _____    ______ ____
ROOT
ATOM      1  C   UNL     1       7.246  -5.215  22.840  0.00  0.00    +0.059 C 
ATOM      2  C   UNL     1       7.284  -3.804  22.203  0.00  0.00    +0.052 C 
ATOM      3  C   UNL     1       6.833  -2.694  23.138  0.00  0.00    +0.145 C 
ATOM      4  C   UNL     1       5.523  -3.149  23.866  0.00  0.00    +0.144 C 
ATOM      5  C   UNL     1       5.375  -4.686  24.084  0.00  0.00    +0.073 C 
ATOM      6  C   UNL     1       4.863  -5.458  22.832  0.00  0.00    +0.021 C 
ATOM      7  N   UNL     1       6.658  -5.348  24.166  0.00  0.00    -0.299 NA
ATOM      8  C   UNL     1       7.397  -5.191  25.389  0.00  0.00    +0.105 C 
ATOM      9  C   UNL     1       6.131  -5.969  22.116  0.00  0.00    +0.020 C 
ENDROOT
BRANCH   4  10
ATOM     10  C   UNL     1       5.256  -2.363  25.140  0.00  0.00    +0.314 C 
ATOM     11  O   UNL     1       5.023  -2.852  26.242  0.00  0.00    -0.250 OA
BRANCH  10  12
ATOM     12  O   UNL     1       5.214  -1.029  24.865  0.00  0.00    -0.468 OA
ATOM     13  C   UNL     1       5.093  -0.149  25.976  0.00  0.00    +0.280 C 
ENDBRANCH  10  12
ENDBRANCH   4  10
BRANCH   3  14
ATOM     14  O   UNL     1       7.903  -2.293  23.994  0.00  0.00    -0.300 OA
BRANCH  14  15
ATOM     15  P   UNL     1       9.418  -1.781  23.491  0.00  0.00    +0.361 P 
ATOM     16  O   UNL     1      10.188  -1.103  24.630  0.00  0.00    -0.253 OA
BRANCH  15  17
ATOM     17  C   UNL     1       8.669  -0.220  22.893  0.00  0.00    +0.064 A 
ATOM     18  C   UNL     1       8.055   0.667  23.798  0.00  0.00    +0.016 A 
ATOM     19  C   UNL     1       7.809   1.999  23.469  0.00  0.00    +0.001 A 
ATOM     20  C   UNL     1       8.188   2.478  22.222  0.00  0.00    +0.000 A 
ATOM     21  C   UNL     1       8.794   1.618  21.305  0.00  0.00    +0.001 A 
ATOM     22  C   UNL     1       9.034   0.277  21.633  0.00  0.00    +0.016 A 
ENDBRANCH  15  17
BRANCH  15  23
ATOM     23  O   UNL     1      10.125  -3.255  24.055  0.00  0.00    -0.321 OA
ATOM     24  H   UNL     1       9.343  -3.777  24.331  0.00  0.00    +0.220 HD
ENDBRANCH  15  23
ENDBRANCH  14  15
ENDBRANCH   3  14
TORSDOF 6
ENDMDL
MODEL 4
REMARK VINA RESULT:      -5.8      2.847      5.908
REMARK  Name = 
REMARK  8 active torsions:
REMARK  status: ('A' for Active; 'I' for Inactive)
REMARK    1  A    between atoms: N_7  and  C_8
REMARK    2  A    between atoms: C_9  and  C_11
REMARK    3  A    between atoms: C_11  and  O_13
REMARK    4  A    between atoms: O_13  and  C_14
REMARK    5  A    between atoms: C_15  and  O_18
REMARK    6  A    between atoms: O_18  and  P_19
REMARK    7  A    between atoms: P_19  and  O_20
REMARK    8  A    between atoms: P_19  and  C_22
REMARK                            x       y       z     vdW  Elec       q    Type
REMARK                         _______ _______ _______ _____ _____    ______ ____
ROOT
ATOM      1  C   UNL     1       8.458  -2.787  25.781  0.00  0.00    +0.059 C 
ATOM      2  C   UNL     1       9.373  -2.822  24.533  0.00  0.00    +0.052 C 
ATOM      3  C   UNL     1       8.618  -2.845  23.215  0.00  0.00    +0.145 C 
ATOM      4  C   UNL     1       7.457  -3.891  23.317  0.00  0.00    +0.144 C 
ATOM      5  C   UNL     1       6.871  -4.106  24.747  0.00  0.00    +0.073 C 
ATOM      6  C   UNL     1       7.716  -5.061  25.642  0.00  0.00    +0.021 C 
ATOM      7  N   UNL     1       7.023  -2.932  25.577  0.00  0.00    -0.299 NA
ATOM      8  C   UNL     1       6.136  -1.831  25.320  0.00  0.00    +0.105 C 
ATOM      9  C   UNL     1       8.639  -4.141  26.468  0.00  0.00    +0.020 C 
ENDROOT
BRANCH   4  10
ATOM     10  C   UNL     1       6.367  -3.662  22.282  0.00  0.00    +0.314 C 
ATOM     11  O   UNL     1       5.432  -2.874  22.394  0.00  0.00    -0.250 OA
BRANCH  10  12
ATOM     12  O   UNL     1       6.520  -4.534  21.245  0.00  0.00    -0.468 OA
ATOM     13  C   UNL     1       6.962  -5.846  21.571  0.00  0.00    +0.280 C 
ENDBRANCH  10  12
ENDBRANCH   4  10
BRANCH   3  14
ATOM     14  O   UNL     1       8.223  -1.524  22.840  0.00  0.00    -0.300 OA
BRANCH  14  15
ATOM     15  P   UNL     1       9.156  -0.434  21.975  0.00  0.00    +0.361 P 
ATOM     16  O   UNL     1      10.353   0.057  22.798  0.00  0.00    -0.253 OA
BRANCH  15  17
ATOM     17  C   UNL     1       8.054   0.919  22.529  0.00  0.00    +0.064 A 
ATOM     18  C   UNL     1       7.789   1.107  23.900  0.00  0.00    +0.016 A 
ATOM     19  C   UNL     1       7.279   2.306  24.393  0.00  0.00    +0.001 A 
ATOM     20  C   UNL     1       7.032   3.356  23.519  0.00  0.00    +0.000 A 
ATOM     21  C   UNL     1       7.280   3.195  22.155  0.00  0.00    +0.001 A 
ATOM     22  C   UNL     1       7.787   1.986  21.658  0.00  0.00    +0.016 A 
ENDBRANCH  15  17
BRANCH  15  23
ATOM     23  O   UNL     1      10.197  -1.711  21.452  0.00  0.00    -0.321 OA
ATOM     24  H   UNL     1      11.075  -1.276  21.419  0.00  0.00    +0.220 HD
ENDBRANCH  15  23
ENDBRANCH  14  15
ENDBRANCH   3  14
TORSDOF 6
ENDMDL
MODEL 5
REMARK VINA RESULT:      -5.8      2.385      5.358
REMARK  Name = 
REMARK  8 active torsions:
REMARK  status: ('A' for Active; 'I' for Inactive)
REMARK    1  A    between atoms: N_7  and  C_8
REMARK    2  A    between atoms: C_9  and  C_11
REMARK    3  A    between atoms: C_11  and  O_13
REMARK    4  A    between atoms: O_13  and  C_14
REMARK    5  A    between atoms: C_15  and  O_18
REMARK    6  A    between atoms: O_18  and  P_19
REMARK    7  A    between atoms: P_19  and  O_20
REMARK    8  A    between atoms: P_19  and  C_22
REMARK                            x       y       z     vdW  Elec       q    Type
REMARK                         _______ _______ _______ _____ _____    ______ ____
ROOT
ATOM      1  C   UNL     1       7.153  -4.178  22.241  0.00  0.00    +0.059 C 
ATOM      2  C   UNL     1       6.229  -2.970  22.527  0.00  0.00    +0.052 C 
ATOM      3  C   UNL     1       5.805  -2.848  23.981  0.00  0.00    +0.145 C 
ATOM      4  C   UNL     1       5.368  -4.260  24.499  0.00  0.00    +0.144 C 
ATOM      5  C   UNL     1       6.074  -5.473  23.818  0.00  0.00    +0.073 C 
ATOM      6  C   UNL     1       5.466  -5.868  22.439  0.00  0.00    +0.021 C 
ATOM      7  N   UNL     1       7.386  -5.127  23.321  0.00  0.00    -0.299 NA
ATOM      8  C   UNL     1       8.437  -4.992  24.293  0.00  0.00    +0.105 C 
ATOM      9  C   UNL     1       6.328  -5.140  21.386  0.00  0.00    +0.020 C 
ENDROOT
BRANCH   4  10
ATOM     10  C   UNL     1       5.391  -4.363  26.016  0.00  0.00    +0.314 C 
ATOM     11  O   UNL     1       5.006  -3.495  26.794  0.00  0.00    -0.250 OA
BRANCH  10  12
ATOM     12  O   UNL     1       5.996  -5.524  26.394  0.00  0.00    -0.468 OA
ATOM     13  C   UNL     1       6.758  -5.487  27.595  0.00  0.00    +0.280 C 
ENDBRANCH  10  12
ENDBRANCH   4  10
BRANCH   3  14
ATOM     14  O   UNL     1       6.822  -2.202  24.748  0.00  0.00    -0.300 OA
BRANCH  14  15
ATOM     15  P   UNL     1       6.867  -0.571  25.135  0.00  0.00    +0.361 P 
ATOM     16  O   UNL     1       5.856   0.230  24.304  0.00  0.00    -0.253 OA
BRANCH  15  17
ATOM     17  C   UNL     1       8.231  -0.344  23.935  0.00  0.00    +0.064 A 
ATOM     18  C   UNL     1       9.255  -1.306  23.830  0.00  0.00    +0.016 A 
ATOM     19  C   UNL     1      10.088  -1.376  22.715  0.00  0.00    +0.001 A 
ATOM     20  C   UNL     1       9.902  -0.484  21.666  0.00  0.00    +0.000 A 
ATOM     21  C   UNL     1       8.899   0.482  21.747  0.00  0.00    +0.001 A 
ATOM     22  C   UNL     1       8.067   0.556  22.872  0.00  0.00    +0.016 A 
ENDBRANCH  15  17
BRANCH  15  23
ATOM     23  O   UNL     1       5.578  -0.786  26.268  0.00  0.00    -0.321 OA
ATOM     24  H   UNL     1       5.774  -1.665  26.654  0.00  0.00    +0.220 HD
ENDBRANCH  15  23
ENDBRANCH  14  15
ENDBRANCH   3  14
TORSDOF 6
ENDMDL
MODEL 6
REMARK VINA RESULT:      -5.6      3.504      6.435
REMARK  Name = 
REMARK  8 active torsions:
REMARK  status: ('A' for Active; 'I' for Inactive)
REMARK    1  A    between atoms: N_7  and  C_8
REMARK    2  A    between atoms: C_9  and  C_11
REMARK    3  A    between atoms: C_11  and  O_13
REMARK    4  A    between atoms: O_13  and  C_14
REMARK    5  A    between atoms: C_15  and  O_18
REMARK    6  A    between atoms: O_18  and  P_19
REMARK    7  A    between atoms: P_19  and  O_20
REMARK    8  A    between atoms: P_19  and  C_22
REMARK                            x       y       z     vdW  Elec       q    Type
REMARK                         _______ _______ _______ _____ _____    ______ ____
ROOT
ATOM      1  C   UNL     1       9.891  -0.082  22.586  0.00  0.00    +0.059 C 
ATOM      2  C   UNL     1       8.389   0.101  22.259  0.00  0.00    +0.052 C 
ATOM      3  C   UNL     1       7.509   0.275  23.484  0.00  0.00    +0.145 C 
ATOM      4  C   UNL     1       7.914  -0.795  24.554  0.00  0.00    +0.144 C 
ATOM      5  C   UNL     1       9.407  -1.247  24.519  0.00  0.00    +0.073 C 
ATOM      6  C   UNL     1       9.720  -2.317  23.431  0.00  0.00    +0.021 C 
ATOM      7  N   UNL     1      10.271  -0.218  23.985  0.00  0.00    -0.299 NA
ATOM      8  C   UNL     1      10.571   0.893  24.846  0.00  0.00    +0.105 C 
ATOM      9  C   UNL     1      10.228  -1.524  22.208  0.00  0.00    +0.020 C 
ENDROOT
BRANCH   4  10
ATOM     10  C   UNL     1       7.462  -0.424  25.957  0.00  0.00    +0.314 C 
ATOM     11  O   UNL     1       8.200  -0.272  26.926  0.00  0.00    -0.250 OA
BRANCH  10  12
ATOM     12  O   UNL     1       6.101  -0.379  26.011  0.00  0.00    -0.468 OA
ATOM     13  C   UNL     1       5.412  -1.614  25.853  0.00  0.00    +0.280 C 
ENDBRANCH  10  12
ENDBRANCH   4  10
BRANCH   3  14
ATOM     14  O   UNL     1       7.535   1.631  23.933  0.00  0.00    -0.300 OA
BRANCH  14  15
ATOM     15  P   UNL     1       6.313   2.757  23.711  0.00  0.00    +0.361 P 
ATOM     16  O   UNL     1       5.782   2.734  22.273  0.00  0.00    -0.253 OA
BRANCH  15  17
ATOM     17  C   UNL     1       7.580   4.033  23.362  0.00  0.00    +0.064 A 
ATOM     18  C   UNL     1       7.260   5.158  22.578  0.00  0.00    +0.016 A 
ATOM     19  C   UNL     1       8.044   6.310  22.589  0.00  0.00    +0.001 A 
ATOM     20  C   UNL     1       9.168   6.364  23.404  0.00  0.00    +0.000 A 
ATOM     21  C   UNL     1       9.510   5.261  24.187  0.00  0.00    +0.001 A 
ATOM     22  C   UNL     1       8.725   4.100  24.168  0.00  0.00    +0.016 A 
ENDBRANCH  15  17
BRANCH  15  23
ATOM     23  O   UNL     1       5.117   1.552  24.041  0.00  0.00    -0.321 OA
ATOM     24  H   UNL     1       5.635   0.721  24.015  0.00  0.00    +0.220 HD
ENDBRANCH  15  23
ENDBRANCH  14  15
ENDBRANCH   3  14
TORSDOF 6
ENDMDL
MODEL 7
REMARK VINA RESULT:      -5.5      2.271      5.270
REMARK  Name = 
REMARK  8 active torsions:
REMARK  status: ('A' for Active; 'I' for Inactive)
REMARK    1  A    between atoms: N_7  and  C_8
REMARK    2  A    between atoms: C_9  and  C_11
REMARK    3  A    between atoms: C_11  and  O_13
REMARK    4  A    between atoms: O_13  and  C_14
REMARK    5  A    between atoms: C_15  and  O_18
REMARK    6  A    between atoms: O_18  and  P_19
REMARK    7  A    between atoms: P_19  and  O_20
REMARK    8  A    between atoms: P_19  and  C_22
REMARK                            x       y       z     vdW  Elec       q    Type
REMARK                         _______ _______ _______ _____ _____    ______ ____
ROOT
ATOM      1  C   UNL     1       7.551  -3.068  22.713  0.00  0.00    +0.059 C 
ATOM      2  C   UNL     1       6.318  -2.613  23.531  0.00  0.00    +0.052 C 
ATOM      3  C   UNL     1       6.489  -2.758  25.034  0.00  0.00    +0.145 C 
ATOM      4  C   UNL     1       7.108  -4.164  25.338  0.00  0.00    +0.144 C 
ATOM      5  C   UNL     1       8.028  -4.749  24.222  0.00  0.00    +0.073 C 
ATOM      6  C   UNL     1       7.252  -5.421  23.050  0.00  0.00    +0.021 C 
ATOM      7  N   UNL     1       8.645  -3.709  23.429  0.00  0.00    -0.299 NA
ATOM      8  C   UNL     1       9.737  -2.993  24.029  0.00  0.00    +0.105 C 
ATOM      9  C   UNL     1       7.113  -4.329  21.968  0.00  0.00    +0.020 C 
ENDROOT
BRANCH   4  10
ATOM     10  C   UNL     1       7.761  -4.235  26.710  0.00  0.00    +0.314 C 
ATOM     11  O   UNL     1       8.970  -4.254  26.923  0.00  0.00    -0.250 OA
BRANCH  10  12
ATOM     12  O   UNL     1       6.806  -4.374  27.673  0.00  0.00    -0.468 OA
ATOM     13  C   UNL     1       6.329  -5.693  27.915  0.00  0.00    +0.280 C 
ENDBRANCH  10  12
ENDBRANCH   4  10
BRANCH   3  14
ATOM     14  O   UNL     1       7.206  -1.644  25.568  0.00  0.00    -0.300 OA
BRANCH  14  15
ATOM     15  P   UNL     1       6.644  -0.067  25.645  0.00  0.00    +0.361 P 
ATOM     16  O   UNL     1       5.485   0.164  24.668  0.00  0.00    -0.253 OA
BRANCH  15  17
ATOM     17  C   UNL     1       7.931   0.430  24.441  0.00  0.00    +0.064 A 
ATOM     18  C   UNL     1       7.571   0.843  23.143  0.00  0.00    +0.016 A 
ATOM     19  C   UNL     1       8.444   1.566  22.333  0.00  0.00    +0.001 A 
ATOM     20  C   UNL     1       9.702   1.905  22.814  0.00  0.00    +0.000 A 
ATOM     21  C   UNL     1      10.086   1.504  24.094  0.00  0.00    +0.001 A 
ATOM     22  C   UNL     1       9.210   0.770  24.905  0.00  0.00    +0.016 A 
ENDBRANCH  15  17
BRANCH  15  23
ATOM     23  O   UNL     1       5.429  -0.536  26.782  0.00  0.00    -0.321 OA
ATOM     24  H   UNL     1       5.403  -1.510  26.681  0.00  0.00    +0.220 HD
ENDBRANCH  15  23
ENDBRANCH  14  15
ENDBRANCH   3  14
TORSDOF 6
ENDMDL
MODEL 8
REMARK VINA RESULT:      -5.5      3.564      6.981
REMARK  Name = 
REMARK  8 active torsions:
REMARK  status: ('A' for Active; 'I' for Inactive)
REMARK    1  A    between atoms: N_7  and  C_8
REMARK    2  A    between atoms: C_9  and  C_11
REMARK    3  A    between atoms: C_11  and  O_13
REMARK    4  A    between atoms: O_13  and  C_14
REMARK    5  A    between atoms: C_15  and  O_18
REMARK    6  A    between atoms: O_18  and  P_19
REMARK    7  A    between atoms: P_19  and  O_20
REMARK    8  A    between atoms: P_19  and  C_22
REMARK                            x       y       z     vdW  Elec       q    Type
REMARK                         _______ _______ _______ _____ _____    ______ ____
ROOT
ATOM      1  C   UNL     1       9.873   0.077  22.297  0.00  0.00    +0.059 C 
ATOM      2  C   UNL     1       8.778   1.049  21.795  0.00  0.00    +0.052 C 
ATOM      3  C   UNL     1       7.689   1.330  22.816  0.00  0.00    +0.145 C 
ATOM      4  C   UNL     1       7.243  -0.023  23.465  0.00  0.00    +0.144 C 
ATOM      5  C   UNL     1       8.343  -1.128  23.535  0.00  0.00    +0.073 C 
ATOM      6  C   UNL     1       8.540  -1.912  22.203  0.00  0.00    +0.021 C 
ATOM      7  N   UNL     1       9.673  -0.565  23.588  0.00  0.00    -0.299 NA
ATOM      8  C   UNL     1      10.090   0.007  24.840  0.00  0.00    +0.105 C 
ATOM      9  C   UNL     1       9.702  -1.202  21.477  0.00  0.00    +0.020 C 
ENDROOT
BRANCH   4  10
ATOM     10  C   UNL     1       6.539   0.168  24.799  0.00  0.00    +0.314 C 
ATOM     11  O   UNL     1       5.738   1.061  25.059  0.00  0.00    -0.250 OA
BRANCH  10  12
ATOM     12  O   UNL     1       7.001  -0.741  25.703  0.00  0.00    -0.468 OA
ATOM     13  C   UNL     1       6.025  -1.537  26.367  0.00  0.00    +0.280 C 
ENDBRANCH  10  12
ENDBRANCH   4  10
BRANCH   3  14
ATOM     14  O   UNL     1       8.109   2.341  23.733  0.00  0.00    -0.300 OA
BRANCH  14  15
ATOM     15  P   UNL     1       7.642   3.950  23.696  0.00  0.00    +0.361 P 
ATOM     16  O   UNL     1       7.610   4.492  22.262  0.00  0.00    -0.253 OA
BRANCH  15  17
ATOM     17  C   UNL     1       9.383   4.442  23.982  0.00  0.00    +0.064 A 
ATOM     18  C   UNL     1      10.437   3.655  23.478  0.00  0.00    +0.016 A 
ATOM     19  C   UNL     1      11.730   4.156  23.343  0.00  0.00    +0.001 A 
ATOM     20  C   UNL     1      11.994   5.472  23.700  0.00  0.00    +0.000 A 
ATOM     21  C   UNL     1      10.969   6.272  24.206  0.00  0.00    +0.001 A 
ATOM     22  C   UNL     1       9.670   5.764  24.349  0.00  0.00    +0.016 A 
ENDBRANCH  15  17
BRANCH  15  23
ATOM     23  O   UNL     1       5.998   3.486  23.427  0.00  0.00    -0.321 OA
ATOM     24  H   UNL     1       6.073   2.843  22.692  0.00  0.00    +0.220 HD
ENDBRANCH  15  23
ENDBRANCH  14  15
ENDBRANCH   3  14
TORSDOF 6
ENDMDL
MODEL 9
REMARK VINA RESULT:      -5.5      2.605      5.534
REMARK  Name = 
REMARK  8 active torsions:
REMARK  status: ('A' for Active; 'I' for Inactive)
REMARK    1  A    between atoms: N_7  and  C_8
REMARK    2  A    between atoms: C_9  and  C_11
REMARK    3  A    between atoms: C_11  and  O_13
REMARK    4  A    between atoms: O_13  and  C_14
REMARK    5  A    between atoms: C_15  and  O_18
REMARK    6  A    between atoms: O_18  and  P_19
REMARK    7  A    between atoms: P_19  and  O_20
REMARK    8  A    between atoms: P_19  and  C_22
REMARK                            x       y       z     vdW  Elec       q    Type
REMARK                         _______ _______ _______ _____ _____    ______ ____
ROOT
ATOM      1  C   UNL     1       5.675  -1.176  24.628  0.00  0.00    +0.059 C 
ATOM      2  C   UNL     1       7.088  -0.686  25.027  0.00  0.00    +0.052 C 
ATOM      3  C   UNL     1       8.210  -1.597  24.559  0.00  0.00    +0.145 C 
ATOM      4  C   UNL     1       7.819  -3.081  24.872  0.00  0.00    +0.144 C 
ATOM      5  C   UNL     1       6.290  -3.387  24.869  0.00  0.00    +0.073 C 
ATOM      6  C   UNL     1       5.561  -2.991  26.188  0.00  0.00    +0.021 C 
ATOM      7  N   UNL     1       5.559  -2.487  24.006  0.00  0.00    -0.299 NA
ATOM      8  C   UNL     1       5.662  -2.713  22.590  0.00  0.00    +0.105 C 
ATOM      9  C   UNL     1       4.990  -1.580  25.934  0.00  0.00    +0.020 C 
ENDROOT
BRANCH   4  10
ATOM     10  C   UNL     1       8.604  -4.083  24.040  0.00  0.00    +0.314 C 
ATOM     11  O   UNL     1       8.181  -4.672  23.050  0.00  0.00    -0.250 OA
BRANCH  10  12
ATOM     12  O   UNL     1       9.820  -4.312  24.612  0.00  0.00    -0.468 OA
ATOM     13  C   UNL     1       9.822  -4.986  25.865  0.00  0.00    +0.280 C 
ENDBRANCH  10  12
ENDBRANCH   4  10
BRANCH   3  14
ATOM     14  O   UNL     1       8.543  -1.325  23.197  0.00  0.00    -0.300 OA
BRANCH  14  15
ATOM     15  P   UNL     1       9.974  -0.636  22.660  0.00  0.00    +0.361 P 
ATOM     16  O   UNL     1      10.911  -0.306  23.828  0.00  0.00    -0.253 OA
BRANCH  15  17
ATOM     17  C   UNL     1       9.165   1.006  22.673  0.00  0.00    +0.064 A 
ATOM     18  C   UNL     1       8.023   1.245  21.884  0.00  0.00    +0.016 A 
ATOM     19  C   UNL     1       7.171   2.320  22.129  0.00  0.00    +0.001 A 
ATOM     20  C   UNL     1       7.439   3.178  23.187  0.00  0.00    +0.000 A 
ATOM     21  C   UNL     1       8.566   2.968  23.981  0.00  0.00    +0.001 A 
ATOM     22  C   UNL     1       9.428   1.891  23.729  0.00  0.00    +0.016 A 
ENDBRANCH  15  17
BRANCH  15  23
ATOM     23  O   UNL     1      10.738  -2.188  22.646  0.00  0.00    -0.321 OA
ATOM     24  H   UNL     1      10.628  -2.475  21.716  0.00  0.00    +0.220 HD
ENDBRANCH  15  23
ENDBRANCH  14  15
ENDBRANCH   3  14
TORSDOF 6
ENDMDL
