MODEL 1
REMARK VINA RESULT:      -5.9      0.000      0.000
REMARK  Name = 
REMARK  7 active torsions:
REMARK  status: ('A' for Active; 'I' for Inactive)
REMARK    1  A    between atoms: C_2  and  C_3
REMARK    2  A    between atoms: C_5  and  O_7
REMARK    3  A    between atoms: O_7  and  C_8
REMARK    4  A    between atoms: C_13  and  N_14
REMARK    5  A    between atoms: C_17  and  O_19
REMARK    6  A    between atoms: C_20  and  O_22
REMARK    7  A    between atoms: C_23  and  O_25
REMARK                            x       y       z     vdW  Elec       q    Type
REMARK                         _______ _______ _______ _____ _____    ______ ____
ROOT
ATOM      1  C   UNL     1       6.831  -5.168  24.449  0.00  0.00    +0.150 C 
ATOM      2  C   UNL     1       5.651  -4.197  24.521  0.00  0.00    +0.041 C 
ATOM      3  C   UNL     1       7.490  -5.493  25.802  0.00  0.00    +0.174 C 
ATOM      4  C   UNL     1       8.490  -4.418  26.251  0.00  0.00    +0.180 C 
ATOM      5  C   UNL     1       9.454  -4.062  25.113  0.00  0.00    +0.214 C 
ATOM      6  C   UNL     1       8.681  -3.730  23.815  0.00  0.00    +0.339 C 
ATOM      7  O   UNL     1       7.783  -4.782  23.449  0.00  0.00    -0.334 OA
ENDROOT
BRANCH   3   8
ATOM      8  O   UNL     1       6.508  -5.702  26.821  0.00  0.00    -0.387 OA
ATOM      9  H   UNL     1       7.013  -5.964  27.618  0.00  0.00    +0.210 HD
ENDBRANCH   3   8
BRANCH   4  10
ATOM     10  O   UNL     1       7.781  -3.294  26.790  0.00  0.00    -0.386 OA
ATOM     11  H   UNL     1       7.304  -2.816  26.081  0.00  0.00    +0.210 HD
ENDBRANCH   4  10
BRANCH   5  12
ATOM     12  O   UNL     1      10.341  -5.176  24.912  0.00  0.00    -0.383 OA
ATOM     13  H   UNL     1      10.322  -5.423  23.971  0.00  0.00    +0.210 HD
ENDBRANCH   5  12
BRANCH   6  14
ATOM     14  O   UNL     1       8.040  -2.462  23.955  0.00  0.00    -0.454 OA
BRANCH  14  15
ATOM     15  C   UNL     1       8.592  -1.353  23.370  0.00  0.00    +0.201 A 
ATOM     16  C   UNL     1       8.851  -0.222  24.168  0.00  0.00    +0.314 A 
ATOM     17  C   UNL     1       9.478   0.914  23.621  0.00  0.00    +0.088 A 
ATOM     18  C   UNL     1       9.824   0.941  22.269  0.00  0.00    +0.007 A 
ATOM     19  C   UNL     1       9.524  -0.150  21.464  0.00  0.00    +0.004 A 
ATOM     20  C   UNL     1       8.913  -1.284  22.006  0.00  0.00    +0.053 A 
BRANCH  16  21
ATOM     21  N   UNL     1       8.453  -0.166  25.590  0.00  0.00    +0.083 N 
ATOM     22  O   UNL     1       7.379   0.394  25.856  0.00  0.00    +0.042 OA
ATOM     23  O   UNL     1       9.186  -0.688  26.442  0.00  0.00    -0.576 OA
ENDBRANCH  16  21
ENDBRANCH  14  15
ENDBRANCH   6  14
TORSDOF 6
ENDMDL
MODEL 2
REMARK VINA RESULT:      -5.9      2.174      5.362
REMARK  Name = 
REMARK  7 active torsions:
REMARK  status: ('A' for Active; 'I' for Inactive)
REMARK    1  A    between atoms: C_2  and  C_3
REMARK    2  A    between atoms: C_5  and  O_7
REMARK    3  A    between atoms: O_7  and  C_8
REMARK    4  A    between atoms: C_13  and  N_14
REMARK    5  A    between atoms: C_17  and  O_19
REMARK    6  A    between atoms: C_20  and  O_22
REMARK    7  A    between atoms: C_23  and  O_25
REMARK                            x       y       z     vdW  Elec       q    Type
REMARK                         _______ _______ _______ _____ _____    ______ ____
ROOT
ATOM      1  C   UNL     1       9.847   0.111  24.726  0.00  0.00    +0.150 C 
ATOM      2  C   UNL     1       9.087  -0.503  25.903  0.00  0.00    +0.041 C 
ATOM      3  C   UNL     1       9.278   1.444  24.207  0.00  0.00    +0.174 C 
ATOM      4  C   UNL     1       8.089   1.254  23.253  0.00  0.00    +0.180 C 
ATOM      5  C   UNL     1       8.415   0.210  22.179  0.00  0.00    +0.214 C 
ATOM      6  C   UNL     1       8.953  -1.093  22.816  0.00  0.00    +0.339 C 
ATOM      7  O   UNL     1      10.068  -0.841  23.676  0.00  0.00    -0.334 OA
ENDROOT
BRANCH   3   8
ATOM      8  O   UNL     1       8.904   2.305  25.287  0.00  0.00    -0.387 OA
ATOM      9  H   UNL     1       9.051   3.215  24.956  0.00  0.00    +0.210 HD
ENDBRANCH   3   8
BRANCH   4  10
ATOM     10  O   UNL     1       6.905   0.966  24.010  0.00  0.00    -0.386 OA
ATOM     11  H   UNL     1       6.552   1.782  24.421  0.00  0.00    +0.210 HD
ENDBRANCH   4  10
BRANCH   5  12
ATOM     12  O   UNL     1       9.382   0.779  21.280  0.00  0.00    -0.383 OA
ATOM     13  H   UNL     1      10.265   0.694  21.679  0.00  0.00    +0.210 HD
ENDBRANCH   5  12
BRANCH   6  14
ATOM     14  O   UNL     1       7.882  -1.781  23.464  0.00  0.00    -0.454 OA
BRANCH  14  15
ATOM     15  C   UNL     1       7.495  -3.015  23.012  0.00  0.00    +0.201 A 
ATOM     16  C   UNL     1       7.992  -4.162  23.661  0.00  0.00    +0.314 A 
ATOM     17  C   UNL     1       7.569  -5.447  23.270  0.00  0.00    +0.088 A 
ATOM     18  C   UNL     1       6.672  -5.598  22.212  0.00  0.00    +0.007 A 
ATOM     19  C   UNL     1       6.219  -4.475  21.532  0.00  0.00    +0.004 A 
ATOM     20  C   UNL     1       6.627  -3.197  21.925  0.00  0.00    +0.053 A 
BRANCH  16  21
ATOM     21  N   UNL     1       8.990  -4.070  24.746  0.00  0.00    +0.083 N 
ATOM     22  O   UNL     1       8.559  -4.013  25.908  0.00  0.00    +0.042 OA
ATOM     23  O   UNL     1      10.195  -4.072  24.459  0.00  0.00    -0.576 OA
ENDBRANCH  16  21
ENDBRANCH  14  15
ENDBRANCH   6  14
TORSDOF 6
ENDMDL
MODEL 3
REMARK VINA RESULT:      -5.8      2.308      5.616
REMARK  Name = 
REMARK  7 active torsions:
REMARK  status: ('A' for Active; 'I' for Inactive)
REMARK    1  A    between atoms: C_2  and  C_3
REMARK    2  A    between atoms: C_5  and  O_7
REMARK    3  A    between atoms: O_7  and  C_8
REMARK    4  A    between atoms: C_13  and  N_14
REMARK    5  A    between atoms: C_17  and  O_19
REMARK    6  A    between atoms: C_20  and  O_22
REMARK    7  A    between atoms: C_23  and  O_25
REMARK                            x       y       z     vdW  Elec       q    Type
REMARK                         _______ _______ _______ _____ _____    ______ ____
ROOT
ATOM      1  C   UNL     1      10.193   1.185  23.749  0.00  0.00    +0.150 C 
ATOM      2  C   UNL     1       9.210   1.765  24.767  0.00  0.00    +0.041 C 
ATOM      3  C   UNL     1       9.711   1.215  22.288  0.00  0.00    +0.174 C 
ATOM      4  C   UNL     1       8.773   0.049  21.945  0.00  0.00    +0.180 C 
ATOM      5  C   UNL     1       9.365  -1.284  22.419  0.00  0.00    +0.214 C 
ATOM      6  C   UNL     1       9.790  -1.204  23.905  0.00  0.00    +0.339 C 
ATOM      7  O   UNL     1      10.675  -0.107  24.145  0.00  0.00    -0.334 OA
ENDROOT
BRANCH   3   8
ATOM      8  O   UNL     1       9.077   2.459  21.975  0.00  0.00    -0.387 OA
ATOM      9  H   UNL     1       8.123   2.313  22.140  0.00  0.00    +0.210 HD
ENDBRANCH   3   8
BRANCH   4  10
ATOM     10  O   UNL     1       7.459   0.320  22.454  0.00  0.00    -0.386 OA
ATOM     11  H   UNL     1       6.857  -0.430  22.267  0.00  0.00    +0.210 HD
ENDBRANCH   4  10
BRANCH   5  12
ATOM     12  O   UNL     1      10.490  -1.598  21.580  0.00  0.00    -0.383 OA
ATOM     13  H   UNL     1      11.000  -0.784  21.427  0.00  0.00    +0.210 HD
ENDBRANCH   5  12
BRANCH   6  14
ATOM     14  O   UNL     1       8.624  -1.183  24.730  0.00  0.00    -0.454 OA
BRANCH  14  15
ATOM     15  C   UNL     1       8.142  -2.353  25.253  0.00  0.00    +0.201 A 
ATOM     16  C   UNL     1       6.854  -2.785  24.879  0.00  0.00    +0.314 A 
ATOM     17  C   UNL     1       6.346  -4.015  25.341  0.00  0.00    +0.088 A 
ATOM     18  C   UNL     1       7.105  -4.806  26.203  0.00  0.00    +0.007 A 
ATOM     19  C   UNL     1       8.354  -4.363  26.619  0.00  0.00    +0.004 A 
ATOM     20  C   UNL     1       8.867  -3.150  26.153  0.00  0.00    +0.053 A 
BRANCH  16  21
ATOM     21  N   UNL     1       5.979  -1.962  24.019  0.00  0.00    +0.083 N 
ATOM     22  O   UNL     1       5.349  -1.043  24.565  0.00  0.00    +0.042 OA
ATOM     23  O   UNL     1       5.923  -2.207  22.805  0.00  0.00    -0.576 OA
ENDBRANCH  16  21
ENDBRANCH  14  15
ENDBRANCH   6  14
TORSDOF 6
ENDMDL
MODEL 4
REMARK VINA RESULT:      -5.8      2.075      5.421
REMARK  Name = 
REMARK  7 active torsions:
REMARK  status: ('A' for Active; 'I' for Inactive)
REMARK    1  A    between atoms: C_2  and  C_3
REMARK    2  A    between atoms: C_5  and  O_7
REMARK    3  A    between atoms: O_7  and  C_8
REMARK    4  A    between atoms: C_13  and  N_14
REMARK    5  A    between atoms: C_17  and  O_19
REMARK    6  A    between atoms: C_20  and  O_22
REMARK    7  A    between atoms: C_23  and  O_25
REMARK                            x       y       z     vdW  Elec       q    Type
REMARK                         _______ _______ _______ _____ _____    ______ ____
ROOT
ATOM      1  C   UNL     1       8.415   1.284  22.556  0.00  0.00    +0.150 C 
ATOM      2  C   UNL     1       9.419   0.661  21.584  0.00  0.00    +0.041 C 
ATOM      3  C   UNL     1       8.970   1.588  23.959  0.00  0.00    +0.174 C 
ATOM      4  C   UNL     1       8.988   0.355  24.874  0.00  0.00    +0.180 C 
ATOM      5  C   UNL     1       7.636  -0.369  24.839  0.00  0.00    +0.214 C 
ATOM      6  C   UNL     1       7.192  -0.644  23.383  0.00  0.00    +0.339 C 
ATOM      7  O   UNL     1       7.183   0.551  22.597  0.00  0.00    -0.334 OA
ENDROOT
BRANCH   3   8
ATOM      8  O   UNL     1      10.280   2.160  23.887  0.00  0.00    -0.387 OA
ATOM      9  H   UNL     1      10.405   2.405  22.948  0.00  0.00    +0.210 HD
ENDBRANCH   3   8
BRANCH   4  10
ATOM     10  O   UNL     1      10.106  -0.479  24.539  0.00  0.00    -0.386 OA
ATOM     11  H   UNL     1      10.278  -1.128  25.253  0.00  0.00    +0.210 HD
ENDBRANCH   4  10
BRANCH   5  12
ATOM     12  O   UNL     1       6.673   0.450  25.524  0.00  0.00    -0.383 OA
ATOM     13  H   UNL     1       6.961   1.378  25.473  0.00  0.00    +0.210 HD
ENDBRANCH   5  12
BRANCH   6  14
ATOM     14  O   UNL     1       8.003  -1.681  22.828  0.00  0.00    -0.454 OA
BRANCH  14  15
ATOM     15  C   UNL     1       7.512  -2.957  22.749  0.00  0.00    +0.201 A 
ATOM     16  C   UNL     1       8.025  -3.937  23.621  0.00  0.00    +0.314 A 
ATOM     17  C   UNL     1       7.502  -5.245  23.618  0.00  0.00    +0.088 A 
ATOM     18  C   UNL     1       6.486  -5.592  22.726  0.00  0.00    +0.007 A 
ATOM     19  C   UNL     1       6.012  -4.646  21.827  0.00  0.00    +0.004 A 
ATOM     20  C   UNL     1       6.519  -3.343  21.835  0.00  0.00    +0.053 A 
BRANCH  16  21
ATOM     21  N   UNL     1       9.141  -3.648  24.545  0.00  0.00    +0.083 N 
ATOM     22  O   UNL     1       8.883  -3.632  25.758  0.00  0.00    +0.042 OA
ATOM     23  O   UNL     1      10.273  -3.456  24.080  0.00  0.00    -0.576 OA
ENDBRANCH  16  21
ENDBRANCH  14  15
ENDBRANCH   6  14
TORSDOF 6
ENDMDL
MODEL 5
REMARK VINA RESULT:      -5.7      2.049      2.802
REMARK  Name = 
REMARK  7 active torsions:
REMARK  status: ('A' for Active; 'I' for Inactive)
REMARK    1  A    between atoms: C_2  and  C_3
REMARK    2  A    between atoms: C_5  and  O_7
REMARK    3  A    between atoms: O_7  and  C_8
REMARK    4  A    between atoms: C_13  and  N_14
REMARK    5  A    between atoms: C_17  and  O_19
REMARK    6  A    between atoms: C_20  and  O_22
REMARK    7  A    between atoms: C_23  and  O_25
REMARK                            x       y       z     vdW  Elec       q    Type
REMARK                         _______ _______ _______ _____ _____    ______ ____
ROOT
ATOM      1  C   UNL     1       6.809  -3.782  25.710  0.00  0.00    +0.150 C 
ATOM      2  C   UNL     1       7.576  -2.873  26.672  0.00  0.00    +0.041 C 
ATOM      3  C   UNL     1       7.636  -4.927  25.098  0.00  0.00    +0.174 C 
ATOM      4  C   UNL     1       8.478  -4.477  23.895  0.00  0.00    +0.180 C 
ATOM      5  C   UNL     1       7.626  -3.672  22.905  0.00  0.00    +0.214 C 
ATOM      6  C   UNL     1       6.863  -2.537  23.627  0.00  0.00    +0.339 C 
ATOM      7  O   UNL     1       6.089  -3.032  24.723  0.00  0.00    -0.334 OA
ENDROOT
BRANCH   3   8
ATOM      8  O   UNL     1       8.477  -5.543  26.078  0.00  0.00    -0.387 OA
ATOM      9  H   UNL     1       7.898  -5.708  26.850  0.00  0.00    +0.210 HD
ENDBRANCH   3   8
BRANCH   4  10
ATOM     10  O   UNL     1       9.649  -3.788  24.355  0.00  0.00    -0.386 OA
ATOM     11  H   UNL     1      10.324  -3.746  23.646  0.00  0.00    +0.210 HD
ENDBRANCH   4  10
BRANCH   5  12
ATOM     12  O   UNL     1       6.713  -4.577  22.261  0.00  0.00    -0.383 OA
ATOM     13  H   UNL     1       6.198  -4.081  21.602  0.00  0.00    +0.210 HD
ENDBRANCH   5  12
BRANCH   6  14
ATOM     14  O   UNL     1       7.782  -1.510  24.001  0.00  0.00    -0.454 OA
BRANCH  14  15
ATOM     15  C   UNL     1       7.856  -0.361  23.258  0.00  0.00    +0.201 A 
ATOM     16  C   UNL     1       9.092  -0.003  22.684  0.00  0.00    +0.314 A 
ATOM     17  C   UNL     1       9.196   1.134  21.859  0.00  0.00    +0.088 A 
ATOM     18  C   UNL     1       8.079   1.937  21.627  0.00  0.00    +0.007 A 
ATOM     19  C   UNL     1       6.870   1.620  22.232  0.00  0.00    +0.004 A 
ATOM     20  C   UNL     1       6.758   0.485  23.041  0.00  0.00    +0.053 A 
BRANCH  16  21
ATOM     21  N   UNL     1      10.323  -0.777  22.943  0.00  0.00    +0.083 N 
ATOM     22  O   UNL     1      11.049  -0.392  23.872  0.00  0.00    +0.042 OA
ATOM     23  O   UNL     1      10.567  -1.772  22.245  0.00  0.00    -0.576 OA
ENDBRANCH  16  21
ENDBRANCH  14  15
ENDBRANCH   6  14
TORSDOF 6
ENDMDL
MODEL 6
REMARK VINA RESULT:      -5.7      2.366      5.733
REMARK  Name = 
REMARK  7 active torsions:
REMARK  status: ('A' for Active; 'I' for Inactive)
REMARK    1  A    between atoms: C_2  and  C_3
REMARK    2  A    between atoms: C_5  and  O_7
REMARK    3  A    between atoms: O_7  and  C_8
REMARK    4  A    between atoms: C_13  and  N_14
REMARK    5  A    between atoms: C_17  and  O_19
REMARK    6  A    between atoms: C_20  and  O_22
REMARK    7  A    between atoms: C_23  and  O_25
REMARK                            x       y       z     vdW  Elec       q    Type
REMARK                         _______ _______ _______ _____ _____    ______ ____
ROOT
ATOM      1  C   UNL     1       9.881  -0.379  24.679  0.00  0.00    +0.150 C 
ATOM      2  C   UNL     1       8.788  -0.052  25.698  0.00  0.00    +0.041 C 
ATOM      3  C   UNL     1       9.876   0.500  23.415  0.00  0.00    +0.174 C 
ATOM      4  C   UNL     1       8.855   0.032  22.368  0.00  0.00    +0.180 C 
ATOM      5  C   UNL     1       8.975  -1.477  22.125  0.00  0.00    +0.214 C 
ATOM      6  C   UNL     1       8.943  -2.257  23.461  0.00  0.00    +0.339 C 
ATOM      7  O   UNL     1       9.931  -1.780  24.378  0.00  0.00    -0.334 OA
ENDROOT
BRANCH   3   8
ATOM      8  O   UNL     1       9.648   1.875  23.738  0.00  0.00    -0.387 OA
ATOM      9  H   UNL     1      10.534   2.292  23.736  0.00  0.00    +0.210 HD
ENDBRANCH   3   8
BRANCH   4  10
ATOM     10  O   UNL     1       7.540   0.460  22.751  0.00  0.00    -0.386 OA
ATOM     11  H   UNL     1       7.581   1.317  23.224  0.00  0.00    +0.210 HD
ENDBRANCH   4  10
BRANCH   5  12
ATOM     12  O   UNL     1      10.204  -1.720  21.418  0.00  0.00    -0.383 OA
ATOM     13  H   UNL     1      10.205  -2.641  21.105  0.00  0.00    +0.210 HD
ENDBRANCH   5  12
BRANCH   6  14
ATOM     14  O   UNL     1       7.618  -2.233  23.992  0.00  0.00    -0.454 OA
BRANCH  14  15
ATOM     15  C   UNL     1       7.149  -3.310  24.696  0.00  0.00    +0.201 A 
ATOM     16  C   UNL     1       6.451  -4.321  24.006  0.00  0.00    +0.314 A 
ATOM     17  C   UNL     1       6.009  -5.476  24.680  0.00  0.00    +0.088 A 
ATOM     18  C   UNL     1       6.233  -5.618  26.049  0.00  0.00    +0.007 A 
ATOM     19  C   UNL     1       6.874  -4.602  26.747  0.00  0.00    +0.004 A 
ATOM     20  C   UNL     1       7.325  -3.459  26.081  0.00  0.00    +0.053 A 
BRANCH  16  21
ATOM     21  N   UNL     1       6.129  -4.200  22.569  0.00  0.00    +0.083 N 
ATOM     22  O   UNL     1       6.919  -4.720  21.767  0.00  0.00    +0.042 OA
ATOM     23  O   UNL     1       5.093  -3.611  22.231  0.00  0.00    -0.576 OA
ENDBRANCH  16  21
ENDBRANCH  14  15
ENDBRANCH   6  14
TORSDOF 6
ENDMDL
MODEL 7
REMARK VINA RESULT:      -5.6      3.126      5.143
REMARK  Name = 
REMARK  7 active torsions:
REMARK  status: ('A' for Active; 'I' for Inactive)
REMARK    1  A    between atoms: C_2  and  C_3
REMARK    2  A    between atoms: C_5  and  O_7
REMARK    3  A    between atoms: O_7  and  C_8
REMARK    4  A    between atoms: C_13  and  N_14
REMARK    5  A    between atoms: C_17  and  O_19
REMARK    6  A    between atoms: C_20  and  O_22
REMARK    7  A    between atoms: C_23  and  O_25
REMARK                            x       y       z     vdW  Elec       q    Type
REMARK                         _______ _______ _______ _____ _____    ______ ____
ROOT
ATOM      1  C   UNL     1      10.023  -1.072  22.917  0.00  0.00    +0.150 C 
ATOM      2  C   UNL     1       9.766  -0.562  21.498  0.00  0.00    +0.041 C 
ATOM      3  C   UNL     1       8.763  -1.487  23.697  0.00  0.00    +0.174 C 
ATOM      4  C   UNL     1       8.033  -0.294  24.332  0.00  0.00    +0.180 C 
ATOM      5  C   UNL     1       9.017   0.604  25.091  0.00  0.00    +0.214 C 
ATOM      6  C   UNL     1      10.226   0.978  24.202  0.00  0.00    +0.339 C 
ATOM      7  O   UNL     1      10.866  -0.182  23.662  0.00  0.00    -0.334 OA
ENDROOT
BRANCH   3   8
ATOM      8  O   UNL     1       7.860  -2.228  22.871  0.00  0.00    -0.387 OA
ATOM      9  H   UNL     1       8.235  -2.179  21.968  0.00  0.00    +0.210 HD
ENDBRANCH   3   8
BRANCH   4  10
ATOM     10  O   UNL     1       7.268   0.392  23.330  0.00  0.00    -0.386 OA
ATOM     11  H   UNL     1       7.853   0.942  22.768  0.00  0.00    +0.210 HD
ENDBRANCH   4  10
BRANCH   5  12
ATOM     12  O   UNL     1       9.444  -0.097  26.271  0.00  0.00    -0.383 OA
ATOM     13  H   UNL     1      10.414  -0.055  26.324  0.00  0.00    +0.210 HD
ENDBRANCH   5  12
BRANCH   6  14
ATOM     14  O   UNL     1       9.812   1.912  23.205  0.00  0.00    -0.454 OA
BRANCH  14  15
ATOM     15  C   UNL     1      10.115   3.240  23.350  0.00  0.00    +0.201 A 
ATOM     16  C   UNL     1       9.063   4.166  23.489  0.00  0.00    +0.314 A 
ATOM     17  C   UNL     1       9.332   5.531  23.707  0.00  0.00    +0.088 A 
ATOM     18  C   UNL     1      10.650   5.986  23.757  0.00  0.00    +0.007 A 
ATOM     19  C   UNL     1      11.693   5.088  23.568  0.00  0.00    +0.004 A 
ATOM     20  C   UNL     1      11.430   3.730  23.364  0.00  0.00    +0.053 A 
BRANCH  16  21
ATOM     21  N   UNL     1       7.648   3.756  23.384  0.00  0.00    +0.083 N 
ATOM     22  O   UNL     1       7.114   3.841  22.267  0.00  0.00    +0.042 OA
ATOM     23  O   UNL     1       7.066   3.333  24.393  0.00  0.00    -0.576 OA
ENDBRANCH  16  21
ENDBRANCH  14  15
ENDBRANCH   6  14
TORSDOF 6
ENDMDL
MODEL 8
REMARK VINA RESULT:      -5.6      1.354      2.081
REMARK  Name = 
REMARK  7 active torsions:
REMARK  status: ('A' for Active; 'I' for Inactive)
REMARK    1  A    between atoms: C_2  and  C_3
REMARK    2  A    between atoms: C_5  and  O_7
REMARK    3  A    between atoms: O_7  and  C_8
REMARK    4  A    between atoms: C_13  and  N_14
REMARK    5  A    between atoms: C_17  and  O_19
REMARK    6  A    between atoms: C_20  and  O_22
REMARK    7  A    between atoms: C_23  and  O_25
REMARK                            x       y       z     vdW  Elec       q    Type
REMARK                         _______ _______ _______ _____ _____    ______ ____
ROOT
ATOM      1  C   UNL     1       6.914  -3.915  25.898  0.00  0.00    +0.150 C 
ATOM      2  C   UNL     1       7.759  -2.962  26.745  0.00  0.00    +0.041 C 
ATOM      3  C   UNL     1       7.577  -5.269  25.586  0.00  0.00    +0.174 C 
ATOM      4  C   UNL     1       8.555  -5.197  24.405  0.00  0.00    +0.180 C 
ATOM      5  C   UNL     1       7.913  -4.482  23.210  0.00  0.00    +0.214 C 
ATOM      6  C   UNL     1       7.305  -3.125  23.636  0.00  0.00    +0.339 C 
ATOM      7  O   UNL     1       6.392  -3.273  24.727  0.00  0.00    -0.334 OA
ENDROOT
BRANCH   3   8
ATOM      8  O   UNL     1       8.240  -5.801  26.737  0.00  0.00    -0.387 OA
ATOM      9  H   UNL     1       8.674  -6.623  26.429  0.00  0.00    +0.210 HD
ENDBRANCH   3   8
BRANCH   4  10
ATOM     10  O   UNL     1       9.793  -4.615  24.838  0.00  0.00    -0.386 OA
ATOM     11  H   UNL     1       9.934  -3.746  24.407  0.00  0.00    +0.210 HD
ENDBRANCH   4  10
BRANCH   5  12
ATOM     12  O   UNL     1       6.904  -5.347  22.660  0.00  0.00    -0.383 OA
ATOM     13  H   UNL     1       6.073  -5.202  23.144  0.00  0.00    +0.210 HD
ENDBRANCH   5  12
BRANCH   6  14
ATOM     14  O   UNL     1       8.356  -2.196  23.900  0.00  0.00    -0.454 OA
BRANCH  14  15
ATOM     15  C   UNL     1       8.487  -1.078  23.118  0.00  0.00    +0.201 A 
ATOM     16  C   UNL     1       7.896   0.125  23.550  0.00  0.00    +0.314 A 
ATOM     17  C   UNL     1       8.063   1.312  22.809  0.00  0.00    +0.088 A 
ATOM     18  C   UNL     1       8.792   1.300  21.620  0.00  0.00    +0.007 A 
ATOM     19  C   UNL     1       9.333   0.106  21.161  0.00  0.00    +0.004 A 
ATOM     20  C   UNL     1       9.181  -1.071  21.899  0.00  0.00    +0.053 A 
BRANCH  16  21
ATOM     21  N   UNL     1       7.061   0.189  24.767  0.00  0.00    +0.083 N 
ATOM     22  O   UNL     1       7.630   0.480  25.829  0.00  0.00    +0.042 OA
ATOM     23  O   UNL     1       5.845  -0.030  24.675  0.00  0.00    -0.576 OA
ENDBRANCH  16  21
ENDBRANCH  14  15
ENDBRANCH   6  14
TORSDOF 6
ENDMDL
MODEL 9
REMARK VINA RESULT:      -5.6      2.096      3.416
REMARK  Name = 
REMARK  7 active torsions:
REMARK  status: ('A' for Active; 'I' for Inactive)
REMARK    1  A    between atoms: C_2  and  C_3
REMARK    2  A    between atoms: C_5  and  O_7
REMARK    3  A    between atoms: O_7  and  C_8
REMARK    4  A    between atoms: C_13  and  N_14
REMARK    5  A    between atoms: C_17  and  O_19
REMARK    6  A    between atoms: C_20  and  O_22
REMARK    7  A    between atoms: C_23  and  O_25
REMARK                            x       y       z     vdW  Elec       q    Type
REMARK                         _______ _______ _______ _____ _____    ______ ____
ROOT
ATOM      1  C   UNL     1       6.805  -3.046  25.802  0.00  0.00    +0.150 C 
ATOM      2  C   UNL     1       8.116  -3.005  26.590  0.00  0.00    +0.041 C 
ATOM      3  C   UNL     1       6.746  -4.113  24.693  0.00  0.00    +0.174 C 
ATOM      4  C   UNL     1       7.433  -3.664  23.396  0.00  0.00    +0.180 C 
ATOM      5  C   UNL     1       6.968  -2.260  22.990  0.00  0.00    +0.214 C 
ATOM      6  C   UNL     1       7.097  -1.271  24.172  0.00  0.00    +0.339 C 
ATOM      7  O   UNL     1       6.418  -1.745  25.338  0.00  0.00    -0.334 OA
ENDROOT
BRANCH   3   8
ATOM      8  O   UNL     1       7.302  -5.354  25.136  0.00  0.00    -0.387 OA
ATOM      9  H   UNL     1       8.204  -5.138  25.449  0.00  0.00    +0.210 HD
ENDBRANCH   3   8
BRANCH   4  10
ATOM     10  O   UNL     1       8.856  -3.792  23.534  0.00  0.00    -0.386 OA
ATOM     11  H   UNL     1       9.204  -3.110  24.146  0.00  0.00    +0.210 HD
ENDBRANCH   4  10
BRANCH   5  12
ATOM     12  O   UNL     1       5.604  -2.353  22.544  0.00  0.00    -0.383 OA
ATOM     13  H   UNL     1       5.027  -2.430  23.323  0.00  0.00    +0.210 HD
ENDBRANCH   5  12
BRANCH   6  14
ATOM     14  O   UNL     1       8.477  -0.980  24.399  0.00  0.00    -0.454 OA
BRANCH  14  15
ATOM     15  C   UNL     1       8.983   0.239  24.032  0.00  0.00    +0.201 A 
ATOM     16  C   UNL     1       9.664   0.349  22.803  0.00  0.00    +0.314 A 
ATOM     17  C   UNL     1      10.142   1.597  22.357  0.00  0.00    +0.088 A 
ATOM     18  C   UNL     1       9.972   2.735  23.146  0.00  0.00    +0.007 A 
ATOM     19  C   UNL     1       9.350   2.625  24.383  0.00  0.00    +0.004 A 
ATOM     20  C   UNL     1       8.862   1.391  24.824  0.00  0.00    +0.053 A 
BRANCH  16  21
ATOM     21  N   UNL     1       9.928  -0.829  21.952  0.00  0.00    +0.083 N 
ATOM     22  O   UNL     1       9.355  -0.875  20.854  0.00  0.00    +0.042 OA
ATOM     23  O   UNL     1      10.713  -1.699  22.356  0.00  0.00    -0.576 OA
ENDBRANCH  16  21
ENDBRANCH  14  15
ENDBRANCH   6  14
TORSDOF 6
ENDMDL
