MODEL 1
REMARK VINA RESULT:      -6.9      0.000      0.000
REMARK  Name = 
REMARK  1 active torsions:
REMARK  status: ('A' for Active; 'I' for Inactive)
REMARK    1  A    between atoms: C_13  and  C_15
REMARK                            x       y       z     vdW  Elec       q    Type
REMARK                         _______ _______ _______ _____ _____    ______ ____
ROOT
ATOM      1  C   UNL     1       9.332   1.116  24.933  0.00  0.00    +0.079 C 
ATOM      2  C   UNL     1       9.438   0.009  23.888  0.00  0.00    +0.076 C 
ATOM      3  C   UNL     1       8.612   0.311  22.622  0.00  0.00    +0.031 C 
ATOM      4  C   UNL     1       9.475   1.051  21.593  0.00  0.00    +0.105 C 
ATOM      5  N   UNL     1       9.889   2.400  21.931  0.00  0.00    -0.310 N 
ATOM      6  H   UNL     1      10.391   2.879  21.192  0.00  0.00    +0.149 HD
ATOM      7  C   UNL     1      10.346   2.804  23.166  0.00  0.00    +0.259 C 
ATOM      8  O   UNL     1      11.323   3.518  23.328  0.00  0.00    -0.269 OA
ATOM      9  C   UNL     1       9.419   2.494  24.313  0.00  0.00    +0.111 C 
ATOM     10  N   UNL     1       8.526   3.370  24.671  0.00  0.00    -0.239 NA
ATOM     11  C   UNL     1       7.649   2.651  25.423  0.00  0.00    +0.104 C 
ATOM     12 BR   UNL     1       6.055   3.427  25.921  0.00  0.00    -0.029 Br
ATOM     13  C   UNL     1       7.993   1.366  25.570  0.00  0.00    +0.019 C 
ENDROOT
BRANCH   2  14
ATOM     14  C   UNL     1       9.214  -1.387  24.394  0.00  0.00    +0.203 C 
ATOM     15  C   UNL     1       9.907  -2.553  23.763  0.00  0.00    +0.371 C 
ATOM     16  O   UNL     1      10.635  -2.445  22.792  0.00  0.00    -0.245 OA
ATOM     17  N   UNL     1       9.565  -3.664  24.468  0.00  0.00    +0.004 NA
ATOM     18  C   UNL     1       8.778  -3.201  25.398  0.00  0.00    +0.410 C 
ATOM     19  N   UNL     1       8.252  -4.006  26.343  0.00  0.00    -0.249 N 
ATOM     20  H   UNL     1       8.302  -4.997  26.129  0.00  0.00    +0.241 HD
ATOM     21  H   UNL     1       7.389  -3.695  26.764  0.00  0.00    +0.241 HD
ATOM     22  N   UNL     1       8.514  -1.839  25.389  0.00  0.00    -0.071 NA
ENDBRANCH   2  14
TORSDOF 1
ENDMDL
MODEL 2
REMARK VINA RESULT:      -6.9      3.043      6.171
REMARK  Name = 
REMARK  1 active torsions:
REMARK  status: ('A' for Active; 'I' for Inactive)
REMARK    1  A    between atoms: C_13  and  C_15
REMARK                            x       y       z     vdW  Elec       q    Type
REMARK                         _______ _______ _______ _____ _____    ______ ____
ROOT
ATOM      1  C   UNL     1       8.899  -2.783  23.844  0.00  0.00    +0.079 C 
ATOM      2  C   UNL     1       8.627  -1.455  24.544  0.00  0.00    +0.076 C 
ATOM      3  C   UNL     1       7.198  -1.371  25.118  0.00  0.00    +0.031 C 
ATOM      4  C   UNL     1       7.182  -1.875  26.566  0.00  0.00    +0.105 C 
ATOM      5  N   UNL     1       7.436  -3.290  26.772  0.00  0.00    -0.310 N 
ATOM      6  H   UNL     1       7.339  -3.593  27.735  0.00  0.00    +0.149 HD
ATOM      7  C   UNL     1       8.408  -4.023  26.129  0.00  0.00    +0.259 C 
ATOM      8  O   UNL     1       9.147  -4.814  26.694  0.00  0.00    -0.269 OA
ATOM      9  C   UNL     1       8.353  -3.959  24.624  0.00  0.00    +0.111 C 
ATOM     10  N   UNL     1       7.654  -4.841  23.970  0.00  0.00    -0.239 NA
ATOM     11  C   UNL     1       7.502  -4.285  22.738  0.00  0.00    +0.104 C 
ATOM     12 BR   UNL     1       6.333  -5.062  21.546  0.00  0.00    -0.029 Br
ATOM     13  C   UNL     1       8.117  -3.104  22.600  0.00  0.00    +0.019 C 
ENDROOT
BRANCH   2  14
ATOM     14  C   UNL     1       9.001  -0.223  23.770  0.00  0.00    +0.203 C 
ATOM     15  C   UNL     1      10.196   0.592  24.157  0.00  0.00    +0.371 C 
ATOM     16  O   UNL     1      10.884   0.339  25.130  0.00  0.00    -0.245 OA
ATOM     17  N   UNL     1      10.320   1.593  23.245  0.00  0.00    +0.004 NA
ATOM     18  C   UNL     1       9.329   1.381  22.426  0.00  0.00    +0.410 C 
ATOM     19  N   UNL     1       9.134   2.155  21.340  0.00  0.00    -0.249 N 
ATOM     20  H   UNL     1       9.638   3.036  21.353  0.00  0.00    +0.241 HD
ATOM     21  H   UNL     1       8.188   2.201  20.989  0.00  0.00    +0.241 HD
ATOM     22  N   UNL     1       8.489   0.313  22.706  0.00  0.00    -0.071 NA
ENDBRANCH   2  14
TORSDOF 1
ENDMDL
MODEL 3
REMARK VINA RESULT:      -6.7      3.400      6.237
REMARK  Name = 
REMARK  1 active torsions:
REMARK  status: ('A' for Active; 'I' for Inactive)
REMARK    1  A    between atoms: C_13  and  C_15
REMARK                            x       y       z     vdW  Elec       q    Type
REMARK                         _______ _______ _______ _____ _____    ______ ____
ROOT
ATOM      1  C   UNL     1       8.463  -3.257  23.818  0.00  0.00    +0.079 C 
ATOM      2  C   UNL     1       8.288  -1.813  24.280  0.00  0.00    +0.076 C 
ATOM      3  C   UNL     1       6.888  -1.548  24.870  0.00  0.00    +0.031 C 
ATOM      4  C   UNL     1       6.902  -1.789  26.384  0.00  0.00    +0.105 C 
ATOM      5  N   UNL     1       7.089  -3.158  26.830  0.00  0.00    -0.310 N 
ATOM      6  H   UNL     1       7.013  -3.282  27.833  0.00  0.00    +0.149 HD
ATOM      7  C   UNL     1       7.996  -4.048  26.299  0.00  0.00    +0.259 C 
ATOM      8  O   UNL     1       8.714  -4.769  26.974  0.00  0.00    -0.269 OA
ATOM      9  C   UNL     1       7.887  -4.245  24.809  0.00  0.00    +0.111 C 
ATOM     10  N   UNL     1       7.119  -5.185  24.341  0.00  0.00    -0.239 NA
ATOM     11  C   UNL     1       6.949  -4.845  23.035  0.00  0.00    +0.104 C 
ATOM     12 BR   UNL     1       5.696  -5.750  22.033  0.00  0.00    -0.029 Br
ATOM     13  C   UNL     1       7.618  -3.744  22.672  0.00  0.00    +0.019 C 
ENDROOT
BRANCH   2  14
ATOM     14  C   UNL     1       8.696  -0.760  23.290  0.00  0.00    +0.203 C 
ATOM     15  C   UNL     1       9.928  -0.927  22.456  0.00  0.00    +0.371 C 
ATOM     16  O   UNL     1      10.679  -1.879  22.567  0.00  0.00    -0.245 OA
ATOM     17  N   UNL     1      10.002   0.141  21.616  0.00  0.00    +0.004 NA
ATOM     18  C   UNL     1       8.943   0.836  21.918  0.00  0.00    +0.410 C 
ATOM     19  N   UNL     1       8.634   1.972  21.261  0.00  0.00    -0.249 N 
ATOM     20  H   UNL     1       9.396   2.366  20.718  0.00  0.00    +0.241 HD
ATOM     21  H   UNL     1       8.070   2.641  21.766  0.00  0.00    +0.241 HD
ATOM     22  N   UNL     1       8.131   0.352  22.934  0.00  0.00    -0.071 NA
ENDBRANCH   2  14
TORSDOF 1
ENDMDL
MODEL 4
REMARK VINA RESULT:      -6.4      4.226      6.903
REMARK  Name = 
REMARK  1 active torsions:
REMARK  status: ('A' for Active; 'I' for Inactive)
REMARK    1  A    between atoms: C_13  and  C_15
REMARK                            x       y       z     vdW  Elec       q    Type
REMARK                         _______ _______ _______ _____ _____    ______ ____
ROOT
ATOM      1  C   UNL     1       6.124  -3.724  24.147  0.00  0.00    +0.079 C 
ATOM      2  C   UNL     1       7.083  -3.838  22.967  0.00  0.00    +0.076 C 
ATOM      3  C   UNL     1       7.660  -5.260  22.810  0.00  0.00    +0.031 C 
ATOM      4  C   UNL     1       6.772  -6.087  21.873  0.00  0.00    +0.105 C 
ATOM      5  N   UNL     1       5.444  -6.423  22.353  0.00  0.00    -0.310 N 
ATOM      6  H   UNL     1       4.922  -7.035  21.736  0.00  0.00    +0.149 HD
ATOM      7  C   UNL     1       4.596  -5.560  23.010  0.00  0.00    +0.259 C 
ATOM      8  O   UNL     1       3.406  -5.454  22.757  0.00  0.00    -0.269 OA
ATOM      9  C   UNL     1       5.185  -4.908  24.235  0.00  0.00    +0.111 C 
ATOM     10  N   UNL     1       5.046  -5.479  25.395  0.00  0.00    -0.239 NA
ATOM     11  C   UNL     1       5.984  -4.872  26.170  0.00  0.00    +0.104 C 
ATOM     12 BR   UNL     1       6.343  -5.559  27.841  0.00  0.00    -0.029 Br
ATOM     13  C   UNL     1       6.674  -3.918  25.534  0.00  0.00    +0.019 C 
ENDROOT
BRANCH   2  14
ATOM     14  C   UNL     1       8.148  -2.781  22.890  0.00  0.00    +0.203 C 
ATOM     15  C   UNL     1       9.438  -2.935  23.634  0.00  0.00    +0.371 C 
ATOM     16  O   UNL     1       9.670  -3.879  24.368  0.00  0.00    -0.245 OA
ATOM     17  N   UNL     1      10.220  -1.868  23.323  0.00  0.00    +0.004 NA
ATOM     18  C   UNL     1       9.482  -1.184  22.495  0.00  0.00    +0.410 C 
ATOM     19  N   UNL     1       9.933  -0.051  21.918  0.00  0.00    -0.249 N 
ATOM     20  H   UNL     1      10.753   0.350  22.361  0.00  0.00    +0.241 HD
ATOM     21  H   UNL     1       9.229   0.611  21.625  0.00  0.00    +0.241 HD
ATOM     22  N   UNL     1       8.216  -1.676  22.214  0.00  0.00    -0.071 NA
ENDBRANCH   2  14
TORSDOF 1
ENDMDL
MODEL 5
REMARK VINA RESULT:      -6.3      2.564      3.854
REMARK  Name = 
REMARK  1 active torsions:
REMARK  status: ('A' for Active; 'I' for Inactive)
REMARK    1  A    between atoms: C_13  and  C_15
REMARK                            x       y       z     vdW  Elec       q    Type
REMARK                         _______ _______ _______ _____ _____    ______ ____
ROOT
ATOM      1  C   UNL     1       8.770  -1.975  25.255  0.00  0.00    +0.079 C 
ATOM      2  C   UNL     1       7.905  -3.168  24.859  0.00  0.00    +0.076 C 
ATOM      3  C   UNL     1       6.823  -2.796  23.825  0.00  0.00    +0.031 C 
ATOM      4  C   UNL     1       7.359  -3.005  22.404  0.00  0.00    +0.105 C 
ATOM      5  N   UNL     1       8.420  -2.117  21.965  0.00  0.00    -0.310 N 
ATOM      6  H   UNL     1       8.689  -2.239  20.995  0.00  0.00    +0.149 HD
ATOM      7  C   UNL     1       9.505  -1.739  22.724  0.00  0.00    +0.259 C 
ATOM      8  O   UNL     1      10.651  -1.714  22.305  0.00  0.00    -0.269 OA
ATOM      9  C   UNL     1       9.158  -1.132  24.059  0.00  0.00    +0.111 C 
ATOM     10  N   UNL     1       9.001   0.156  24.157  0.00  0.00    -0.239 NA
ATOM     11  C   UNL     1       8.339   0.314  25.335  0.00  0.00    +0.104 C 
ATOM     12 BR   UNL     1       7.653   1.970  25.758  0.00  0.00    -0.029 Br
ATOM     13  C   UNL     1       8.116  -0.834  25.986  0.00  0.00    +0.019 C 
ENDROOT
BRANCH   2  14
ATOM     14  C   UNL     1       7.350  -3.975  25.998  0.00  0.00    +0.203 C 
ATOM     15  C   UNL     1       8.172  -5.038  26.657  0.00  0.00    +0.371 C 
ATOM     16  O   UNL     1       9.291  -5.338  26.282  0.00  0.00    -0.245 OA
ATOM     17  N   UNL     1       7.438  -5.544  27.685  0.00  0.00    +0.004 NA
ATOM     18  C   UNL     1       6.333  -4.855  27.635  0.00  0.00    +0.410 C 
ATOM     19  N   UNL     1       5.347  -5.038  28.535  0.00  0.00    -0.249 N 
ATOM     20  H   UNL     1       5.418  -5.897  29.071  0.00  0.00    +0.241 HD
ATOM     21  H   UNL     1       4.416  -4.790  28.234  0.00  0.00    +0.241 HD
ATOM     22  N   UNL     1       6.216  -3.911  26.626  0.00  0.00    -0.071 NA
ENDBRANCH   2  14
TORSDOF 1
ENDMDL
MODEL 6
REMARK VINA RESULT:      -6.3      2.200      2.667
REMARK  Name = 
REMARK  1 active torsions:
REMARK  status: ('A' for Active; 'I' for Inactive)
REMARK    1  A    between atoms: C_13  and  C_15
REMARK                            x       y       z     vdW  Elec       q    Type
REMARK                         _______ _______ _______ _____ _____    ______ ____
ROOT
ATOM      1  C   UNL     1       8.652  -0.904  25.775  0.00  0.00    +0.079 C 
ATOM      2  C   UNL     1       8.959  -2.246  25.118  0.00  0.00    +0.076 C 
ATOM      3  C   UNL     1       8.687  -2.238  23.601  0.00  0.00    +0.031 C 
ATOM      4  C   UNL     1       9.957  -1.837  22.841  0.00  0.00    +0.105 C 
ATOM      5  N   UNL     1      10.417  -0.469  23.006  0.00  0.00    -0.310 N 
ATOM      6  H   UNL     1      11.212  -0.226  22.427  0.00  0.00    +0.149 HD
ATOM      7  C   UNL     1      10.460   0.215  24.200  0.00  0.00    +0.259 C 
ATOM      8  O   UNL     1      11.410   0.893  24.559  0.00  0.00    -0.269 OA
ATOM      9  C   UNL     1       9.152   0.261  24.948  0.00  0.00    +0.111 C 
ATOM     10  N   UNL     1       8.329   1.246  24.739  0.00  0.00    -0.239 NA
ATOM     11  C   UNL     1       7.148   0.794  25.239  0.00  0.00    +0.104 C 
ATOM     12 BR   UNL     1       5.612   1.756  24.912  0.00  0.00    -0.029 Br
ATOM     13  C   UNL     1       7.225  -0.426  25.784  0.00  0.00    +0.019 C 
ENDROOT
BRANCH   2  14
ATOM     14  C   UNL     1       8.368  -3.450  25.795  0.00  0.00    +0.203 C 
ATOM     15  C   UNL     1       9.006  -4.797  25.660  0.00  0.00    +0.371 C 
ATOM     16  O   UNL     1       9.988  -4.998  24.966  0.00  0.00    -0.245 OA
ATOM     17  N   UNL     1       8.295  -5.667  26.427  0.00  0.00    +0.004 NA
ATOM     18  C   UNL     1       7.366  -4.918  26.950  0.00  0.00    +0.410 C 
ATOM     19  N   UNL     1       6.466  -5.415  27.821  0.00  0.00    -0.249 N 
ATOM     20  H   UNL     1       6.407  -6.429  27.835  0.00  0.00    +0.241 HD
ATOM     21  H   UNL     1       5.584  -4.928  27.878  0.00  0.00    +0.241 HD
ATOM     22  N   UNL     1       7.349  -3.579  26.588  0.00  0.00    -0.071 NA
ENDBRANCH   2  14
TORSDOF 1
ENDMDL
MODEL 7
REMARK VINA RESULT:      -6.2      3.452      4.489
REMARK  Name = 
REMARK  1 active torsions:
REMARK  status: ('A' for Active; 'I' for Inactive)
REMARK    1  A    between atoms: C_13  and  C_15
REMARK                            x       y       z     vdW  Elec       q    Type
REMARK                         _______ _______ _______ _____ _____    ______ ____
ROOT
ATOM      1  C   UNL     1       7.014  -1.473  24.413  0.00  0.00    +0.079 C 
ATOM      2  C   UNL     1       7.402  -1.878  25.832  0.00  0.00    +0.076 C 
ATOM      3  C   UNL     1       8.268  -0.813  26.534  0.00  0.00    +0.031 C 
ATOM      4  C   UNL     1       7.375   0.167  27.304  0.00  0.00    +0.105 C 
ATOM      5  N   UNL     1       6.524   1.039  26.515  0.00  0.00    -0.310 N 
ATOM      6  H   UNL     1       6.010   1.723  27.060  0.00  0.00    +0.149 HD
ATOM      7  C   UNL     1       5.794   0.651  25.413  0.00  0.00    +0.259 C 
ATOM      8  O   UNL     1       4.633   0.974  25.221  0.00  0.00    -0.269 OA
ATOM      9  C   UNL     1       6.598  -0.020  24.329  0.00  0.00    +0.111 C 
ATOM     10  N   UNL     1       7.119   0.699  23.379  0.00  0.00    -0.239 NA
ATOM     11  C   UNL     1       8.057  -0.119  22.830  0.00  0.00    +0.104 C 
ATOM     12 BR   UNL     1       9.249   0.580  21.612  0.00  0.00    -0.029 Br
ATOM     13  C   UNL     1       8.107  -1.334  23.389  0.00  0.00    +0.019 C 
ENDROOT
BRANCH   2  14
ATOM     14  C   UNL     1       7.969  -3.261  25.981  0.00  0.00    +0.203 C 
ATOM     15  C   UNL     1       7.269  -4.292  26.809  0.00  0.00    +0.371 C 
ATOM     16  O   UNL     1       6.252  -4.059  27.437  0.00  0.00    -0.245 OA
ATOM     17  N   UNL     1       7.974  -5.450  26.703  0.00  0.00    +0.004 NA
ATOM     18  C   UNL     1       8.955  -5.134  25.906  0.00  0.00    +0.410 C 
ATOM     19  N   UNL     1       9.870  -6.046  25.518  0.00  0.00    -0.249 N 
ATOM     20  H   UNL     1       9.886  -6.893  26.077  0.00  0.00    +0.241 HD
ATOM     21  H   UNL     1      10.774  -5.684  25.250  0.00  0.00    +0.241 HD
ATOM     22  N   UNL     1       9.015  -3.823  25.457  0.00  0.00    -0.071 NA
ENDBRANCH   2  14
TORSDOF 1
ENDMDL
MODEL 8
REMARK VINA RESULT:      -6.1      4.859      7.942
REMARK  Name = 
REMARK  1 active torsions:
REMARK  status: ('A' for Active; 'I' for Inactive)
REMARK    1  A    between atoms: C_13  and  C_15
REMARK                            x       y       z     vdW  Elec       q    Type
REMARK                         _______ _______ _______ _____ _____    ______ ____
ROOT
ATOM      1  C   UNL     1       6.268  -5.872  25.343  0.00  0.00    +0.079 C 
ATOM      2  C   UNL     1       6.837  -4.576  25.912  0.00  0.00    +0.076 C 
ATOM      3  C   UNL     1       5.744  -3.650  26.481  0.00  0.00    +0.031 C 
ATOM      4  C   UNL     1       5.531  -3.940  27.971  0.00  0.00    +0.105 C 
ATOM      5  N   UNL     1       4.951  -5.227  28.313  0.00  0.00    -0.310 N 
ATOM      6  H   UNL     1       4.756  -5.345  29.301  0.00  0.00    +0.149 HD
ATOM      7  C   UNL     1       5.297  -6.430  27.740  0.00  0.00    +0.259 C 
ATOM      8  O   UNL     1       5.490  -7.454  28.377  0.00  0.00    -0.269 OA
ATOM      9  C   UNL     1       5.199  -6.464  26.237  0.00  0.00    +0.111 C 
ATOM     10  N   UNL     1       4.087  -6.838  25.675  0.00  0.00    -0.239 NA
ATOM     11  C   UNL     1       4.204  -6.392  24.395  0.00  0.00    +0.104 C 
ATOM     12 BR   UNL     1       2.733  -6.456  23.289  0.00  0.00    -0.029 Br
ATOM     13  C   UNL     1       5.370  -5.786  24.140  0.00  0.00    +0.019 C 
ENDROOT
BRANCH   2  14
ATOM     14  C   UNL     1       7.797  -3.841  25.020  0.00  0.00    +0.203 C 
ATOM     15  C   UNL     1       9.259  -4.162  25.037  0.00  0.00    +0.371 C 
ATOM     16  O   UNL     1       9.749  -4.980  25.795  0.00  0.00    -0.245 OA
ATOM     17  N   UNL     1       9.858  -3.393  24.089  0.00  0.00    +0.004 NA
ATOM     18  C   UNL     1       8.868  -2.717  23.579  0.00  0.00    +0.410 C 
ATOM     19  N   UNL     1       9.054  -1.855  22.558  0.00  0.00    -0.249 N 
ATOM     20  H   UNL     1      10.020  -1.589  22.401  0.00  0.00    +0.241 HD
ATOM     21  H   UNL     1       8.378  -1.109  22.476  0.00  0.00    +0.241 HD
ATOM     22  N   UNL     1       7.607  -2.931  24.115  0.00  0.00    -0.071 NA
ENDBRANCH   2  14
TORSDOF 1
ENDMDL
MODEL 9
REMARK VINA RESULT:      -6.1      3.878      6.890
REMARK  Name = 
REMARK  1 active torsions:
REMARK  status: ('A' for Active; 'I' for Inactive)
REMARK    1  A    between atoms: C_13  and  C_15
REMARK                            x       y       z     vdW  Elec       q    Type
REMARK                         _______ _______ _______ _____ _____    ______ ____
ROOT
ATOM      1  C   UNL     1       7.458  -4.508  24.663  0.00  0.00    +0.079 C 
ATOM      2  C   UNL     1       7.701  -3.058  25.069  0.00  0.00    +0.076 C 
ATOM      3  C   UNL     1       6.433  -2.380  25.625  0.00  0.00    +0.031 C 
ATOM      4  C   UNL     1       6.368  -2.553  27.147  0.00  0.00    +0.105 C 
ATOM      5  N   UNL     1       6.152  -3.900  27.646  0.00  0.00    -0.310 N 
ATOM      6  H   UNL     1       6.038  -3.957  28.651  0.00  0.00    +0.149 HD
ATOM      7  C   UNL     1       6.769  -5.033  27.163  0.00  0.00    +0.259 C 
ATOM      8  O   UNL     1       7.245  -5.901  27.876  0.00  0.00    -0.269 OA
ATOM      9  C   UNL     1       6.616  -5.250  25.680  0.00  0.00    +0.111 C 
ATOM     10  N   UNL     1       5.614  -5.948  25.233  0.00  0.00    -0.239 NA
ATOM     11  C   UNL     1       5.556  -5.627  23.913  0.00  0.00    +0.104 C 
ATOM     12 BR   UNL     1       4.103  -6.174  22.923  0.00  0.00    -0.029 Br
ATOM     13  C   UNL     1       6.516  -4.779  23.522  0.00  0.00    +0.019 C 
ENDROOT
BRANCH   2  14
ATOM     14  C   UNL     1       8.401  -2.206  24.049  0.00  0.00    +0.203 C 
ATOM     15  C   UNL     1       9.282  -1.072  24.469  0.00  0.00    +0.371 C 
ATOM     16  O   UNL     1       9.437  -0.750  25.634  0.00  0.00    -0.245 OA
ATOM     17  N   UNL     1       9.824  -0.534  23.344  0.00  0.00    +0.004 NA
ATOM     18  C   UNL     1       9.327  -1.269  22.389  0.00  0.00    +0.410 C 
ATOM     19  N   UNL     1       9.664  -1.072  21.099  0.00  0.00    -0.249 N 
ATOM     20  H   UNL     1      10.110  -0.180  20.911  0.00  0.00    +0.241 HD
ATOM     21  H   UNL     1       8.991  -1.375  20.410  0.00  0.00    +0.241 HD
ATOM     22  N   UNL     1       8.447  -2.278  22.754  0.00  0.00    -0.071 NA
ENDBRANCH   2  14
TORSDOF 1
ENDMDL
