MODEL 1
REMARK VINA RESULT:      -6.8      0.000      0.000
REMARK  Name = 
REMARK  6 active torsions:
REMARK  status: ('A' for Active; 'I' for Inactive)
REMARK    1  A    between atoms: O_1  and  C_2
REMARK    2  A    between atoms: N_5  and  C_6
REMARK    3  A    between atoms: C_6  and  C_7
REMARK    4  A    between atoms: C_7  and  C_8
REMARK    5  A    between atoms: C_8  and  N_9
REMARK    6  A    between atoms: C_20  and  C_23
REMARK                            x       y       z     vdW  Elec       q    Type
REMARK                         _______ _______ _______ _____ _____    ______ ____
ROOT
ATOM      1  N   UNL     1       9.199  -1.016  25.234  0.00  0.00    -0.298 N 
ATOM      2  C   UNL     1       8.656  -2.322  25.024  0.00  0.00    +0.049 A 
ATOM      3  C   UNL     1       8.343  -3.208  26.085  0.00  0.00    +0.043 A 
ATOM      4  C   UNL     1       7.801  -4.492  25.883  0.00  0.00    +0.054 A 
ATOM      5  C   UNL     1       7.575  -4.948  24.594  0.00  0.00    +0.020 A 
ATOM      6  C   UNL     1       7.884  -4.115  23.523  0.00  0.00    +0.018 A 
ATOM      7  C   UNL     1       8.414  -2.822  23.727  0.00  0.00    +0.034 A 
ATOM      8  S   UNL     1       8.706  -1.907  22.234  0.00  0.00    -0.086 S 
ATOM      9  C   UNL     1       9.348  -0.370  22.838  0.00  0.00    +0.034 A 
ATOM     10  C   UNL     1       9.618   0.598  21.849  0.00  0.00    +0.017 A 
ATOM     11  C   UNL     1      10.117   1.852  22.181  0.00  0.00    +0.001 A 
ATOM     12  C   UNL     1      10.398   2.133  23.504  0.00  0.00    +0.002 A 
ATOM     13  C   UNL     1      10.160   1.163  24.485  0.00  0.00    +0.024 A 
ATOM     14  C   UNL     1       9.571  -0.094  24.199  0.00  0.00    +0.048 A 
ENDROOT
BRANCH   4  15
ATOM     15  C   UNL     1       7.486  -5.331  27.012  0.00  0.00    +0.099 C 
ATOM     16  N   UNL     1       7.242  -6.010  27.924  0.00  0.00    -0.191 NA
ENDBRANCH   4  15
BRANCH   1  17
ATOM     17  C   UNL     1       9.114  -0.426  26.599  0.00  0.00    +0.112 C 
BRANCH  17  18
ATOM     18  C   UNL     1       7.670  -0.226  27.086  0.00  0.00    +0.035 C 
BRANCH  18  19
ATOM     19  C   UNL     1       6.974   0.986  26.470  0.00  0.00    +0.086 C 
BRANCH  19  23
ATOM     20  C   UNL     1       5.264   2.830  23.839  0.00  0.00    +0.117 C 
ATOM     21  C   UNL     1       6.300   1.736  23.583  0.00  0.00    +0.046 C 
ATOM     22  C   UNL     1       5.954   0.446  24.334  0.00  0.00    +0.087 C 
ATOM     23  N   UNL     1       5.723   0.652  25.775  0.00  0.00    -0.302 NA
ATOM     24  C   UNL     1       4.648   1.634  25.966  0.00  0.00    +0.087 C 
ATOM     25  C   UNL     1       4.952   2.989  25.325  0.00  0.00    +0.046 C 
BRANCH  20  26
ATOM     26  O   UNL     1       4.070   2.497  23.130  0.00  0.00    -0.392 OA
ATOM     27  H   UNL     1       4.041   1.530  23.031  0.00  0.00    +0.210 HD
ENDBRANCH  20  26
ENDBRANCH  19  23
ENDBRANCH  18  19
ENDBRANCH  17  18
ENDBRANCH   1  17
TORSDOF 6
ENDMDL
MODEL 2
REMARK VINA RESULT:      -6.5      1.828      2.426
REMARK  Name = 
REMARK  6 active torsions:
REMARK  status: ('A' for Active; 'I' for Inactive)
REMARK    1  A    between atoms: O_1  and  C_2
REMARK    2  A    between atoms: N_5  and  C_6
REMARK    3  A    between atoms: C_6  and  C_7
REMARK    4  A    between atoms: C_7  and  C_8
REMARK    5  A    between atoms: C_8  and  N_9
REMARK    6  A    between atoms: C_20  and  C_23
REMARK                            x       y       z     vdW  Elec       q    Type
REMARK                         _______ _______ _______ _____ _____    ______ ____
ROOT
ATOM      1  N   UNL     1       9.163  -1.012  25.177  0.00  0.00    -0.298 N 
ATOM      2  C   UNL     1       8.652  -2.335  24.988  0.00  0.00    +0.049 A 
ATOM      3  C   UNL     1       8.325  -3.197  26.064  0.00  0.00    +0.043 A 
ATOM      4  C   UNL     1       7.815  -4.497  25.883  0.00  0.00    +0.054 A 
ATOM      5  C   UNL     1       7.635  -4.993  24.602  0.00  0.00    +0.020 A 
ATOM      6  C   UNL     1       7.959  -4.184  23.517  0.00  0.00    +0.018 A 
ATOM      7  C   UNL     1       8.458  -2.875  23.699  0.00  0.00    +0.034 A 
ATOM      8  S   UNL     1       8.775  -1.996  22.191  0.00  0.00    -0.086 S 
ATOM      9  C   UNL     1       9.369  -0.431  22.769  0.00  0.00    +0.034 A 
ATOM     10  C   UNL     1       9.649   0.515  21.761  0.00  0.00    +0.017 A 
ATOM     11  C   UNL     1      10.113   1.787  22.071  0.00  0.00    +0.001 A 
ATOM     12  C   UNL     1      10.350   2.111  23.393  0.00  0.00    +0.002 A 
ATOM     13  C   UNL     1      10.103   1.164  24.394  0.00  0.00    +0.024 A 
ATOM     14  C   UNL     1       9.547  -0.112  24.127  0.00  0.00    +0.048 A 
ENDROOT
BRANCH   4  15
ATOM     15  C   UNL     1       7.483  -5.310  27.026  0.00  0.00    +0.099 C 
ATOM     16  N   UNL     1       7.209  -5.971  27.943  0.00  0.00    -0.191 NA
ENDBRANCH   4  15
BRANCH   1  17
ATOM     17  C   UNL     1       9.026  -0.387  26.521  0.00  0.00    +0.112 C 
BRANCH  17  18
ATOM     18  C   UNL     1       7.696   0.358  26.713  0.00  0.00    +0.035 C 
BRANCH  18  19
ATOM     19  C   UNL     1       6.707  -0.369  27.622  0.00  0.00    +0.086 C 
BRANCH  19  23
ATOM     20  C   UNL     1       4.401  -2.642  25.960  0.00  0.00    +0.117 C 
ATOM     21  C   UNL     1       4.555  -2.536  27.477  0.00  0.00    +0.046 C 
ATOM     22  C   UNL     1       4.412  -1.088  27.958  0.00  0.00    +0.087 C 
ATOM     23  N   UNL     1       5.302  -0.148  27.253  0.00  0.00    -0.302 NA
ATOM     24  C   UNL     1       5.043  -0.213  25.808  0.00  0.00    +0.087 C 
ATOM     25  C   UNL     1       5.252  -1.610  25.224  0.00  0.00    +0.046 C 
BRANCH  20  26
ATOM     26  O   UNL     1       3.024  -2.453  25.631  0.00  0.00    -0.392 OA
ATOM     27  H   UNL     1       2.837  -2.964  24.825  0.00  0.00    +0.210 HD
ENDBRANCH  20  26
ENDBRANCH  19  23
ENDBRANCH  18  19
ENDBRANCH  17  18
ENDBRANCH   1  17
TORSDOF 6
ENDMDL
MODEL 3
REMARK VINA RESULT:      -5.9      2.842      6.306
REMARK  Name = 
REMARK  6 active torsions:
REMARK  status: ('A' for Active; 'I' for Inactive)
REMARK    1  A    between atoms: O_1  and  C_2
REMARK    2  A    between atoms: N_5  and  C_6
REMARK    3  A    between atoms: C_6  and  C_7
REMARK    4  A    between atoms: C_7  and  C_8
REMARK    5  A    between atoms: C_8  and  N_9
REMARK    6  A    between atoms: C_20  and  C_23
REMARK                            x       y       z     vdW  Elec       q    Type
REMARK                         _______ _______ _______ _____ _____    ______ ____
ROOT
ATOM      1  N   UNL     1       6.395  -1.189  23.841  0.00  0.00    -0.298 N 
ATOM      2  C   UNL     1       7.430  -0.225  23.631  0.00  0.00    +0.049 A 
ATOM      3  C   UNL     1       7.471   1.023  24.301  0.00  0.00    +0.043 A 
ATOM      4  C   UNL     1       8.491   1.973  24.102  0.00  0.00    +0.054 A 
ATOM      5  C   UNL     1       9.506   1.711  23.195  0.00  0.00    +0.020 A 
ATOM      6  C   UNL     1       9.494   0.504  22.503  0.00  0.00    +0.018 A 
ATOM      7  C   UNL     1       8.478  -0.454  22.714  0.00  0.00    +0.034 A 
ATOM      8  S   UNL     1       8.664  -1.940  21.762  0.00  0.00    -0.086 S 
ATOM      9  C   UNL     1       7.261  -2.900  22.259  0.00  0.00    +0.034 A 
ATOM     10  C   UNL     1       7.184  -4.189  21.692  0.00  0.00    +0.017 A 
ATOM     11  C   UNL     1       6.141  -5.054  22.001  0.00  0.00    +0.001 A 
ATOM     12  C   UNL     1       5.135  -4.619  22.842  0.00  0.00    +0.002 A 
ATOM     13  C   UNL     1       5.193  -3.329  23.382  0.00  0.00    +0.024 A 
ATOM     14  C   UNL     1       6.282  -2.449  23.163  0.00  0.00    +0.048 A 
ENDROOT
BRANCH   4  15
ATOM     15  C   UNL     1       8.480   3.212  24.837  0.00  0.00    +0.099 C 
ATOM     16  N   UNL     1       8.478   4.209  25.436  0.00  0.00    -0.191 NA
ENDBRANCH   4  15
BRANCH   1  17
ATOM     17  C   UNL     1       5.526  -1.043  25.042  0.00  0.00    +0.112 C 
BRANCH  17  18
ATOM     18  C   UNL     1       6.184  -1.553  26.334  0.00  0.00    +0.035 C 
BRANCH  18  19
ATOM     19  C   UNL     1       6.106  -3.069  26.508  0.00  0.00    +0.086 C 
BRANCH  19  23
ATOM     20  C   UNL     1       8.885  -4.925  25.065  0.00  0.00    +0.117 C 
ATOM     21  C   UNL     1       8.874  -3.408  25.253  0.00  0.00    +0.046 C 
ATOM     22  C   UNL     1       8.527  -3.022  26.695  0.00  0.00    +0.087 C 
ATOM     23  N   UNL     1       7.281  -3.641  27.181  0.00  0.00    -0.302 NA
ATOM     24  C   UNL     1       7.382  -5.102  27.076  0.00  0.00    +0.087 C 
ATOM     25  C   UNL     1       7.637  -5.584  25.647  0.00  0.00    +0.046 C 
BRANCH  20  26
ATOM     26  O   UNL     1      10.049  -5.451  25.702  0.00  0.00    -0.392 OA
ATOM     27  H   UNL     1       9.991  -5.244  26.650  0.00  0.00    +0.210 HD
ENDBRANCH  20  26
ENDBRANCH  19  23
ENDBRANCH  18  19
ENDBRANCH  17  18
ENDBRANCH   1  17
TORSDOF 6
ENDMDL
MODEL 4
REMARK VINA RESULT:      -5.9      3.534      6.833
REMARK  Name = 
REMARK  6 active torsions:
REMARK  status: ('A' for Active; 'I' for Inactive)
REMARK    1  A    between atoms: O_1  and  C_2
REMARK    2  A    between atoms: N_5  and  C_6
REMARK    3  A    between atoms: C_6  and  C_7
REMARK    4  A    between atoms: C_7  and  C_8
REMARK    5  A    between atoms: C_8  and  N_9
REMARK    6  A    between atoms: C_20  and  C_23
REMARK                            x       y       z     vdW  Elec       q    Type
REMARK                         _______ _______ _______ _____ _____    ______ ____
ROOT
ATOM      1  N   UNL     1       5.734  -2.256  24.222  0.00  0.00    -0.298 N 
ATOM      2  C   UNL     1       6.961  -1.776  23.664  0.00  0.00    +0.049 A 
ATOM      3  C   UNL     1       7.565  -0.557  24.060  0.00  0.00    +0.043 A 
ATOM      4  C   UNL     1       8.775  -0.084  23.518  0.00  0.00    +0.054 A 
ATOM      5  C   UNL     1       9.418  -0.814  22.531  0.00  0.00    +0.020 A 
ATOM      6  C   UNL     1       8.850  -2.009  22.101  0.00  0.00    +0.018 A 
ATOM      7  C   UNL     1       7.643  -2.490  22.655  0.00  0.00    +0.034 A 
ATOM      8  S   UNL     1       7.105  -4.048  21.998  0.00  0.00    -0.086 S 
ATOM      9  C   UNL     1       5.605  -4.351  22.890  0.00  0.00    +0.034 A 
ATOM     10  C   UNL     1       4.977  -5.582  22.609  0.00  0.00    +0.017 A 
ATOM     11  C   UNL     1       3.798  -5.955  23.243  0.00  0.00    +0.001 A 
ATOM     12  C   UNL     1       3.208  -5.077  24.131  0.00  0.00    +0.002 A 
ATOM     13  C   UNL     1       3.813  -3.841  24.390  0.00  0.00    +0.024 A 
ATOM     14  C   UNL     1       5.059  -3.461  23.832  0.00  0.00    +0.048 A 
ENDROOT
BRANCH   4  15
ATOM     15  C   UNL     1       9.343   1.155  23.986  0.00  0.00    +0.099 C 
ATOM     16  N   UNL     1       9.803   2.157  24.354  0.00  0.00    -0.191 NA
ENDBRANCH   4  15
BRANCH   1  17
ATOM     17  C   UNL     1       5.251  -1.649  25.493  0.00  0.00    +0.112 C 
BRANCH  17  18
ATOM     18  C   UNL     1       5.954  -2.208  26.740  0.00  0.00    +0.035 C 
BRANCH  18  19
ATOM     19  C   UNL     1       5.137  -3.259  27.489  0.00  0.00    +0.086 C 
BRANCH  19  23
ATOM     20  C   UNL     1       4.799  -6.878  27.682  0.00  0.00    +0.117 C 
ATOM     21  C   UNL     1       5.661  -6.152  26.650  0.00  0.00    +0.046 C 
ATOM     22  C   UNL     1       6.628  -5.168  27.315  0.00  0.00    +0.087 C 
ATOM     23  N   UNL     1       5.962  -4.223  28.230  0.00  0.00    -0.302 NA
ATOM     24  C   UNL     1       5.233  -4.969  29.264  0.00  0.00    +0.087 C 
ATOM     25  C   UNL     1       4.177  -5.913  28.690  0.00  0.00    +0.046 C 
BRANCH  20  26
ATOM     26  O   UNL     1       5.617  -7.827  28.367  0.00  0.00    -0.392 OA
ATOM     27  H   UNL     1       5.660  -7.565  29.302  0.00  0.00    +0.210 HD
ENDBRANCH  20  26
ENDBRANCH  19  23
ENDBRANCH  18  19
ENDBRANCH  17  18
ENDBRANCH   1  17
TORSDOF 6
ENDMDL
MODEL 5
REMARK VINA RESULT:      -5.8      2.614      5.335
REMARK  Name = 
REMARK  6 active torsions:
REMARK  status: ('A' for Active; 'I' for Inactive)
REMARK    1  A    between atoms: O_1  and  C_2
REMARK    2  A    between atoms: N_5  and  C_6
REMARK    3  A    between atoms: C_6  and  C_7
REMARK    4  A    between atoms: C_7  and  C_8
REMARK    5  A    between atoms: C_8  and  N_9
REMARK    6  A    between atoms: C_20  and  C_23
REMARK                            x       y       z     vdW  Elec       q    Type
REMARK                         _______ _______ _______ _____ _____    ______ ____
ROOT
ATOM      1  N   UNL     1       7.263  -3.272  24.508  0.00  0.00    -0.298 N 
ATOM      2  C   UNL     1       6.455  -2.463  25.367  0.00  0.00    +0.049 A 
ATOM      3  C   UNL     1       6.991  -1.461  26.214  0.00  0.00    +0.043 A 
ATOM      4  C   UNL     1       6.199  -0.658  27.057  0.00  0.00    +0.054 A 
ATOM      5  C   UNL     1       4.828  -0.851  27.099  0.00  0.00    +0.020 A 
ATOM      6  C   UNL     1       4.262  -1.836  26.295  0.00  0.00    +0.018 A 
ATOM      7  C   UNL     1       5.056  -2.631  25.439  0.00  0.00    +0.034 A 
ATOM      8  S   UNL     1       4.141  -3.804  24.472  0.00  0.00    -0.086 S 
ATOM      9  C   UNL     1       5.408  -4.610  23.533  0.00  0.00    +0.034 A 
ATOM     10  C   UNL     1       4.952  -5.572  22.610  0.00  0.00    +0.017 A 
ATOM     11  C   UNL     1       5.836  -6.275  21.800  0.00  0.00    +0.001 A 
ATOM     12  C   UNL     1       7.193  -6.057  21.942  0.00  0.00    +0.002 A 
ATOM     13  C   UNL     1       7.651  -5.124  22.879  0.00  0.00    +0.024 A 
ATOM     14  C   UNL     1       6.780  -4.325  23.661  0.00  0.00    +0.048 A 
ENDROOT
BRANCH   4  15
ATOM     15  C   UNL     1       6.812   0.358  27.874  0.00  0.00    +0.099 C 
ATOM     16  N   UNL     1       7.310   1.171  28.540  0.00  0.00    -0.191 NA
ENDBRANCH   4  15
BRANCH   1  17
ATOM     17  C   UNL     1       8.657  -2.829  24.225  0.00  0.00    +0.112 C 
BRANCH  17  18
ATOM     18  C   UNL     1       8.758  -1.862  23.035  0.00  0.00    +0.035 C 
BRANCH  18  19
ATOM     19  C   UNL     1       9.265  -0.471  23.412  0.00  0.00    +0.086 C 
BRANCH  19  23
ATOM     20  C   UNL     1       9.791   3.121  23.668  0.00  0.00    +0.117 C 
ATOM     21  C   UNL     1      10.446   2.233  22.610  0.00  0.00    +0.046 C 
ATOM     22  C   UNL     1       9.408   1.392  21.860  0.00  0.00    +0.087 C 
ATOM     23  N   UNL     1       8.528   0.617  22.754  0.00  0.00    -0.302 NA
ATOM     24  C   UNL     1       7.844   1.527  23.682  0.00  0.00    +0.087 C 
ATOM     25  C   UNL     1       8.809   2.344  24.541  0.00  0.00    +0.046 C 
BRANCH  20  26
ATOM     26  O   UNL     1       9.108   4.185  23.005  0.00  0.00    -0.392 OA
ATOM     27  H   UNL     1       9.745   4.904  22.857  0.00  0.00    +0.210 HD
ENDBRANCH  20  26
ENDBRANCH  19  23
ENDBRANCH  18  19
ENDBRANCH  17  18
ENDBRANCH   1  17
TORSDOF 6
ENDMDL
MODEL 6
REMARK VINA RESULT:      -5.8      1.640      1.940
REMARK  Name = 
REMARK  6 active torsions:
REMARK  status: ('A' for Active; 'I' for Inactive)
REMARK    1  A    between atoms: O_1  and  C_2
REMARK    2  A    between atoms: N_5  and  C_6
REMARK    3  A    between atoms: C_6  and  C_7
REMARK    4  A    between atoms: C_7  and  C_8
REMARK    5  A    between atoms: C_8  and  N_9
REMARK    6  A    between atoms: C_20  and  C_23
REMARK                            x       y       z     vdW  Elec       q    Type
REMARK                         _______ _______ _______ _____ _____    ______ ____
ROOT
ATOM      1  N   UNL     1       9.172  -1.029  25.224  0.00  0.00    -0.298 N 
ATOM      2  C   UNL     1       8.645  -2.344  25.023  0.00  0.00    +0.049 A 
ATOM      3  C   UNL     1       8.320  -3.217  26.091  0.00  0.00    +0.043 A 
ATOM      4  C   UNL     1       7.794  -4.509  25.898  0.00  0.00    +0.054 A 
ATOM      5  C   UNL     1       7.597  -4.986  24.613  0.00  0.00    +0.020 A 
ATOM      6  C   UNL     1       7.919  -4.167  23.535  0.00  0.00    +0.018 A 
ATOM      7  C   UNL     1       8.433  -2.866  23.729  0.00  0.00    +0.034 A 
ATOM      8  S   UNL     1       8.744  -1.971  22.229  0.00  0.00    -0.086 S 
ATOM      9  C   UNL     1       9.361  -0.419  22.821  0.00  0.00    +0.034 A 
ATOM     10  C   UNL     1       9.641   0.536  21.822  0.00  0.00    +0.017 A 
ATOM     11  C   UNL     1      10.122   1.800  22.145  0.00  0.00    +0.001 A 
ATOM     12  C   UNL     1      10.375   2.104  23.468  0.00  0.00    +0.002 A 
ATOM     13  C   UNL     1      10.127   1.147  24.459  0.00  0.00    +0.024 A 
ATOM     14  C   UNL     1       9.555  -0.120  24.182  0.00  0.00    +0.048 A 
ENDROOT
BRANCH   4  15
ATOM     15  C   UNL     1       7.465  -5.333  27.034  0.00  0.00    +0.099 C 
ATOM     16  N   UNL     1       7.195  -6.005  27.944  0.00  0.00    -0.191 NA
ENDBRANCH   4  15
BRANCH   1  17
ATOM     17  C   UNL     1       9.055  -0.420  26.577  0.00  0.00    +0.112 C 
BRANCH  17  18
ATOM     18  C   UNL     1       7.606  -0.100  26.977  0.00  0.00    +0.035 C 
BRANCH  18  19
ATOM     19  C   UNL     1       7.178   1.330  26.650  0.00  0.00    +0.086 C 
BRANCH  19  23
ATOM     20  C   UNL     1       4.506   3.782  26.948  0.00  0.00    +0.117 C 
ATOM     21  C   UNL     1       4.332   2.289  27.222  0.00  0.00    +0.046 C 
ATOM     22  C   UNL     1       5.377   1.773  28.217  0.00  0.00    +0.087 C 
ATOM     23  N   UNL     1       6.762   2.100  27.831  0.00  0.00    -0.302 NA
ATOM     24  C   UNL     1       6.903   3.554  27.680  0.00  0.00    +0.087 C 
ATOM     25  C   UNL     1       5.956   4.142  26.634  0.00  0.00    +0.046 C 
BRANCH  20  26
ATOM     26  O   UNL     1       4.067   4.507  28.097  0.00  0.00    -0.392 OA
ATOM     27  H   UNL     1       4.665   4.292  28.833  0.00  0.00    +0.210 HD
ENDBRANCH  20  26
ENDBRANCH  19  23
ENDBRANCH  18  19
ENDBRANCH  17  18
ENDBRANCH   1  17
TORSDOF 6
ENDMDL
MODEL 7
REMARK VINA RESULT:      -5.8      1.377      4.863
REMARK  Name = 
REMARK  6 active torsions:
REMARK  status: ('A' for Active; 'I' for Inactive)
REMARK    1  A    between atoms: O_1  and  C_2
REMARK    2  A    between atoms: N_5  and  C_6
REMARK    3  A    between atoms: C_6  and  C_7
REMARK    4  A    between atoms: C_7  and  C_8
REMARK    5  A    between atoms: C_8  and  N_9
REMARK    6  A    between atoms: C_20  and  C_23
REMARK                            x       y       z     vdW  Elec       q    Type
REMARK                         _______ _______ _______ _____ _____    ______ ____
ROOT
ATOM      1  N   UNL     1       8.721  -0.906  25.354  0.00  0.00    -0.298 N 
ATOM      2  C   UNL     1       9.138  -0.064  24.276  0.00  0.00    +0.049 A 
ATOM      3  C   UNL     1       9.394   1.321  24.433  0.00  0.00    +0.043 A 
ATOM      4  C   UNL     1       9.811   2.153  23.376  0.00  0.00    +0.054 A 
ATOM      5  C   UNL     1       9.964   1.625  22.104  0.00  0.00    +0.020 A 
ATOM      6  C   UNL     1       9.706   0.272  21.903  0.00  0.00    +0.018 A 
ATOM      7  C   UNL     1       9.302  -0.565  22.967  0.00  0.00    +0.034 A 
ATOM      8  S   UNL     1       9.060  -2.263  22.511  0.00  0.00    -0.086 S 
ATOM      9  C   UNL     1       8.575  -3.012  24.040  0.00  0.00    +0.034 A 
ATOM     10  C   UNL     1       8.371  -4.407  23.988  0.00  0.00    +0.017 A 
ATOM     11  C   UNL     1       7.997  -5.126  25.117  0.00  0.00    +0.001 A 
ATOM     12  C   UNL     1       7.774  -4.449  26.300  0.00  0.00    +0.002 A 
ATOM     13  C   UNL     1       7.946  -3.061  26.348  0.00  0.00    +0.024 A 
ATOM     14  C   UNL     1       8.410  -2.303  25.244  0.00  0.00    +0.048 A 
ENDROOT
BRANCH   4  15
ATOM     15  C   UNL     1      10.075   3.550  23.615  0.00  0.00    +0.099 C 
ATOM     16  N   UNL     1      10.290   4.674  23.818  0.00  0.00    -0.191 NA
ENDBRANCH   4  15
BRANCH   1  17
ATOM     17  C   UNL     1       8.892  -0.409  26.747  0.00  0.00    +0.112 C 
BRANCH  17  18
ATOM     18  C   UNL     1       7.568  -0.017  27.420  0.00  0.00    +0.035 C 
BRANCH  18  19
ATOM     19  C   UNL     1       7.135   1.421  27.140  0.00  0.00    +0.086 C 
BRANCH  19  23
ATOM     20  C   UNL     1       5.413   2.289  24.053  0.00  0.00    +0.117 C 
ATOM     21  C   UNL     1       5.724   0.857  24.487  0.00  0.00    +0.046 C 
ATOM     22  C   UNL     1       5.221   0.576  25.907  0.00  0.00    +0.087 C 
ATOM     23  N   UNL     1       5.692   1.560  26.898  0.00  0.00    -0.302 NA
ATOM     24  C   UNL     1       5.279   2.909  26.489  0.00  0.00    +0.087 C 
ATOM     25  C   UNL     1       5.816   3.310  25.115  0.00  0.00    +0.046 C 
BRANCH  20  26
ATOM     26  O   UNL     1       4.012   2.390  23.797  0.00  0.00    -0.392 OA
ATOM     27  H   UNL     1       3.595   2.808  24.569  0.00  0.00    +0.210 HD
ENDBRANCH  20  26
ENDBRANCH  19  23
ENDBRANCH  18  19
ENDBRANCH  17  18
ENDBRANCH   1  17
TORSDOF 6
ENDMDL
MODEL 8
REMARK VINA RESULT:      -5.7      3.205      5.624
REMARK  Name = 
REMARK  6 active torsions:
REMARK  status: ('A' for Active; 'I' for Inactive)
REMARK    1  A    between atoms: O_1  and  C_2
REMARK    2  A    between atoms: N_5  and  C_6
REMARK    3  A    between atoms: C_6  and  C_7
REMARK    4  A    between atoms: C_7  and  C_8
REMARK    5  A    between atoms: C_8  and  N_9
REMARK    6  A    between atoms: C_20  and  C_23
REMARK                            x       y       z     vdW  Elec       q    Type
REMARK                         _______ _______ _______ _____ _____    ______ ____
ROOT
ATOM      1  N   UNL     1       6.364  -3.622  25.271  0.00  0.00    -0.298 N 
ATOM      2  C   UNL     1       5.203  -3.115  25.935  0.00  0.00    +0.049 A 
ATOM      3  C   UNL     1       5.271  -2.270  27.070  0.00  0.00    +0.043 A 
ATOM      4  C   UNL     1       4.130  -1.763  27.723  0.00  0.00    +0.054 A 
ATOM      5  C   UNL     1       2.868  -2.110  27.270  0.00  0.00    +0.020 A 
ATOM      6  C   UNL     1       2.757  -2.951  26.168  0.00  0.00    +0.018 A 
ATOM      7  C   UNL     1       3.901  -3.448  25.504  0.00  0.00    +0.034 A 
ATOM      8  S   UNL     1       3.546  -4.474  24.101  0.00  0.00    -0.086 S 
ATOM      9  C   UNL     1       5.160  -4.910  23.518  0.00  0.00    +0.034 A 
ATOM     10  C   UNL     1       5.184  -5.692  22.345  0.00  0.00    +0.017 A 
ATOM     11  C   UNL     1       6.383  -6.099  21.770  0.00  0.00    +0.001 A 
ATOM     12  C   UNL     1       7.571  -5.769  22.393  0.00  0.00    +0.002 A 
ATOM     13  C   UNL     1       7.550  -5.019  23.575  0.00  0.00    +0.024 A 
ATOM     14  C   UNL     1       6.355  -4.511  24.144  0.00  0.00    +0.048 A 
ENDROOT
BRANCH   4  15
ATOM     15  C   UNL     1       4.276  -0.889  28.860  0.00  0.00    +0.099 C 
ATOM     16  N   UNL     1       4.396  -0.192  29.783  0.00  0.00    -0.191 NA
ENDBRANCH   4  15
BRANCH   1  17
ATOM     17  C   UNL     1       7.677  -2.977  25.551  0.00  0.00    +0.112 C 
BRANCH  17  18
ATOM     18  C   UNL     1       7.761  -1.527  25.052  0.00  0.00    +0.035 C 
BRANCH  18  19
ATOM     19  C   UNL     1       8.257  -1.398  23.613  0.00  0.00    +0.086 C 
BRANCH  19  23
ATOM     20  C   UNL     1       9.074   1.641  21.785  0.00  0.00    +0.117 C 
ATOM     21  C   UNL     1       8.634   1.614  23.248  0.00  0.00    +0.046 C 
ATOM     22  C   UNL     1       9.486   0.645  24.075  0.00  0.00    +0.087 C 
ATOM     23  N   UNL     1       9.552  -0.711  23.500  0.00  0.00    -0.302 NA
ATOM     24  C   UNL     1      10.077  -0.641  22.130  0.00  0.00    +0.087 C 
ATOM     25  C   UNL     1       9.231   0.237  21.207  0.00  0.00    +0.046 C 
BRANCH  20  26
ATOM     26  O   UNL     1      10.316   2.339  21.699  0.00  0.00    -0.392 OA
ATOM     27  H   UNL     1      10.314   2.855  20.875  0.00  0.00    +0.210 HD
ENDBRANCH  20  26
ENDBRANCH  19  23
ENDBRANCH  18  19
ENDBRANCH  17  18
ENDBRANCH   1  17
TORSDOF 6
ENDMDL
MODEL 9
REMARK VINA RESULT:      -5.7      2.507      6.380
REMARK  Name = 
REMARK  6 active torsions:
REMARK  status: ('A' for Active; 'I' for Inactive)
REMARK    1  A    between atoms: O_1  and  C_2
REMARK    2  A    between atoms: N_5  and  C_6
REMARK    3  A    between atoms: C_6  and  C_7
REMARK    4  A    between atoms: C_7  and  C_8
REMARK    5  A    between atoms: C_8  and  N_9
REMARK    6  A    between atoms: C_20  and  C_23
REMARK                            x       y       z     vdW  Elec       q    Type
REMARK                         _______ _______ _______ _____ _____    ______ ____
ROOT
ATOM      1  N   UNL     1       6.607  -2.078  24.799  0.00  0.00    -0.298 N 
ATOM      2  C   UNL     1       6.048  -0.773  24.976  0.00  0.00    +0.049 A 
ATOM      3  C   UNL     1       6.208   0.270  24.030  0.00  0.00    +0.043 A 
ATOM      4  C   UNL     1       5.654   1.554  24.196  0.00  0.00    +0.054 A 
ATOM      5  C   UNL     1       4.933   1.848  25.342  0.00  0.00    +0.020 A 
ATOM      6  C   UNL     1       4.766   0.856  26.304  0.00  0.00    +0.018 A 
ATOM      7  C   UNL     1       5.310  -0.436  26.130  0.00  0.00    +0.034 A 
ATOM      8  S   UNL     1       4.955  -1.564  27.453  0.00  0.00    -0.086 S 
ATOM      9  C   UNL     1       5.759  -3.050  26.924  0.00  0.00    +0.034 A 
ATOM     10  C   UNL     1       5.587  -4.161  27.775  0.00  0.00    +0.017 A 
ATOM     11  C   UNL     1       6.156  -5.395  27.479  0.00  0.00    +0.001 A 
ATOM     12  C   UNL     1       6.945  -5.516  26.351  0.00  0.00    +0.002 A 
ATOM     13  C   UNL     1       7.142  -4.407  25.521  0.00  0.00    +0.024 A 
ATOM     14  C   UNL     1       6.510  -3.157  25.740  0.00  0.00    +0.048 A 
ENDROOT
BRANCH   4  15
ATOM     15  C   UNL     1       5.839   2.559  23.180  0.00  0.00    +0.099 C 
ATOM     16  N   UNL     1       5.984   3.377  22.367  0.00  0.00    -0.191 NA
ENDBRANCH   4  15
BRANCH   1  17
ATOM     17  C   UNL     1       7.072  -2.469  23.440  0.00  0.00    +0.112 C 
BRANCH  17  18
ATOM     18  C   UNL     1       8.603  -2.503  23.306  0.00  0.00    +0.035 C 
BRANCH  18  19
ATOM     19  C   UNL     1       9.313  -1.389  24.073  0.00  0.00    +0.086 C 
BRANCH  19  23
ATOM     20  C   UNL     1       9.340   1.835  22.386  0.00  0.00    +0.117 C 
ATOM     21  C   UNL     1       9.783   1.623  23.833  0.00  0.00    +0.046 C 
ATOM     22  C   UNL     1      10.826   0.506  23.944  0.00  0.00    +0.087 C 
ATOM     23  N   UNL     1      10.400  -0.757  23.313  0.00  0.00    -0.302 NA
ATOM     24  C   UNL     1      10.085  -0.519  21.898  0.00  0.00    +0.087 C 
ATOM     25  C   UNL     1       8.982   0.521  21.696  0.00  0.00    +0.046 C 
BRANCH  20  26
ATOM     26  O   UNL     1      10.401   2.477  21.678  0.00  0.00    -0.392 OA
ATOM     27  H   UNL     1      10.027   2.872  20.872  0.00  0.00    +0.210 HD
ENDBRANCH  20  26
ENDBRANCH  19  23
ENDBRANCH  18  19
ENDBRANCH  17  18
ENDBRANCH   1  17
TORSDOF 6
ENDMDL
