MODEL 1
REMARK VINA RESULT:      -5.9      0.000      0.000
REMARK  Name = 
REMARK  7 active torsions:
REMARK  status: ('A' for Active; 'I' for Inactive)
REMARK    1  A    between atoms: O_1  and  C_2
REMARK    2  A    between atoms: C_2  and  C_4
REMARK    3  A    between atoms: C_4  and  C_5
REMARK    4  A    between atoms: C_5  and  O_6
REMARK    5  A    between atoms: O_6  and  N_7
REMARK    6  A    between atoms: C_8  and  C_9
REMARK    7  A    between atoms: C_10  and  C_15
REMARK                            x       y       z     vdW  Elec       q    Type
REMARK                         _______ _______ _______ _____ _____    ______ ____
ROOT
ATOM      1  C   UNL     1       6.835  -4.921  24.432  0.00  0.00    +0.008 A 
ATOM      2  C   UNL     1       6.503  -5.210  25.767  0.00  0.00    +0.010 A 
ATOM      3  C   UNL     1       5.468  -6.097  26.061  0.00  0.00    +0.001 A 
ATOM      4  C   UNL     1       4.765  -6.707  25.029  0.00  0.00    +0.001 A 
ATOM      5  C   UNL     1       5.103  -6.437  23.703  0.00  0.00    +0.013 A 
ATOM      6  C   UNL     1       6.146  -5.542  23.379  0.00  0.00    +0.063 A 
ENDROOT
BRANCH   6   7
ATOM      7  C   UNL     1       6.474  -5.363  21.919  0.00  0.00    +0.418 C 
ATOM      8  F   UNL     1       5.612  -6.047  21.117  0.00  0.00    -0.166 F 
ATOM      9  F   UNL     1       7.716  -5.834  21.612  0.00  0.00    -0.166 F 
ATOM     10  F   UNL     1       6.455  -4.082  21.465  0.00  0.00    -0.166 F 
ENDBRANCH   6   7
BRANCH   1  12
ATOM     11  N   UNL     1       9.167  -4.307  24.311  0.00  0.00    -0.093 NA
ATOM     12  C   UNL     1       7.926  -3.956  24.195  0.00  0.00    +0.161 C 
BRANCH  11  13
ATOM     13  O   UNL     1       9.991  -3.229  23.971  0.00  0.00    -0.393 OA
BRANCH  13  14
ATOM     14  C   UNL     1       9.231  -2.023  24.121  0.00  0.00    +0.274 C 
BRANCH  14  15
ATOM     15  C   UNL     1      10.099  -0.851  23.715  0.00  0.00    +0.164 C 
BRANCH  15  16
ATOM     16  C   UNL     1       9.991  -0.583  22.238  0.00  0.00    +0.308 C 
ATOM     17  O   UNL     1       9.936   0.539  21.758  0.00  0.00    -0.251 OA
BRANCH  16  18
ATOM     18  O   UNL     1      10.021  -1.696  21.473  0.00  0.00    -0.481 OA
ATOM     19  H   UNL     1      10.767  -1.698  20.835  0.00  0.00    +0.295 HD
ENDBRANCH  16  18
ENDBRANCH  15  16
ENDBRANCH  14  15
ENDBRANCH  13  14
ENDBRANCH  11  13
ENDBRANCH   1  12
TORSDOF 7
ENDMDL
MODEL 2
REMARK VINA RESULT:      -5.8      1.143      1.423
REMARK  Name = 
REMARK  7 active torsions:
REMARK  status: ('A' for Active; 'I' for Inactive)
REMARK    1  A    between atoms: O_1  and  C_2
REMARK    2  A    between atoms: C_2  and  C_4
REMARK    3  A    between atoms: C_4  and  C_5
REMARK    4  A    between atoms: C_5  and  O_6
REMARK    5  A    between atoms: O_6  and  N_7
REMARK    6  A    between atoms: C_8  and  C_9
REMARK    7  A    between atoms: C_10  and  C_15
REMARK                            x       y       z     vdW  Elec       q    Type
REMARK                         _______ _______ _______ _____ _____    ______ ____
ROOT
ATOM      1  C   UNL     1       7.092  -4.801  24.171  0.00  0.00    +0.008 A 
ATOM      2  C   UNL     1       6.895  -4.997  25.548  0.00  0.00    +0.010 A 
ATOM      3  C   UNL     1       5.846  -5.796  26.005  0.00  0.00    +0.001 A 
ATOM      4  C   UNL     1       4.996  -6.410  25.093  0.00  0.00    +0.001 A 
ATOM      5  C   UNL     1       5.199  -6.232  23.725  0.00  0.00    +0.013 A 
ATOM      6  C   UNL     1       6.252  -5.428  23.237  0.00  0.00    +0.063 A 
ENDROOT
BRANCH   6   7
ATOM      7  C   UNL     1       6.423  -5.347  21.742  0.00  0.00    +0.418 C 
ATOM      8  F   UNL     1       5.555  -6.165  21.086  0.00  0.00    -0.166 F 
ATOM      9  F   UNL     1       7.668  -5.739  21.348  0.00  0.00    -0.166 F 
ATOM     10  F   UNL     1       6.247  -4.115  21.195  0.00  0.00    -0.166 F 
ENDBRANCH   6   7
BRANCH   1  12
ATOM     11  N   UNL     1       9.326  -3.920  24.407  0.00  0.00    -0.093 NA
ATOM     12  C   UNL     1       8.206  -3.926  23.759  0.00  0.00    +0.161 C 
BRANCH  11  13
ATOM     13  O   UNL     1      10.227  -3.056  23.775  0.00  0.00    -0.393 OA
BRANCH  13  14
ATOM     14  C   UNL     1       9.472  -2.113  23.003  0.00  0.00    +0.274 C 
BRANCH  14  15
ATOM     15  C   UNL     1      10.130  -0.755  23.120  0.00  0.00    +0.164 C 
BRANCH  15  16
ATOM     16  C   UNL     1      10.194  -0.307  24.556  0.00  0.00    +0.308 C 
ATOM     17  O   UNL     1      10.959   0.556  24.960  0.00  0.00    -0.251 OA
BRANCH  16  18
ATOM     18  O   UNL     1       9.285  -0.902  25.359  0.00  0.00    -0.481 OA
ATOM     19  H   UNL     1       8.405  -0.992  24.934  0.00  0.00    +0.295 HD
ENDBRANCH  16  18
ENDBRANCH  15  16
ENDBRANCH  14  15
ENDBRANCH  13  14
ENDBRANCH  11  13
ENDBRANCH   1  12
TORSDOF 7
ENDMDL
MODEL 3
REMARK VINA RESULT:      -5.6      1.259      2.121
REMARK  Name = 
REMARK  7 active torsions:
REMARK  status: ('A' for Active; 'I' for Inactive)
REMARK    1  A    between atoms: O_1  and  C_2
REMARK    2  A    between atoms: C_2  and  C_4
REMARK    3  A    between atoms: C_4  and  C_5
REMARK    4  A    between atoms: C_5  and  O_6
REMARK    5  A    between atoms: O_6  and  N_7
REMARK    6  A    between atoms: C_8  and  C_9
REMARK    7  A    between atoms: C_10  and  C_15
REMARK                            x       y       z     vdW  Elec       q    Type
REMARK                         _______ _______ _______ _____ _____    ______ ____
ROOT
ATOM      1  C   UNL     1       7.901  -3.991  24.164  0.00  0.00    +0.008 A 
ATOM      2  C   UNL     1       8.224  -4.000  25.531  0.00  0.00    +0.010 A 
ATOM      3  C   UNL     1       7.473  -4.758  26.429  0.00  0.00    +0.001 A 
ATOM      4  C   UNL     1       6.404  -5.518  25.969  0.00  0.00    +0.001 A 
ATOM      5  C   UNL     1       6.090  -5.524  24.610  0.00  0.00    +0.013 A 
ATOM      6  C   UNL     1       6.834  -4.764  23.681  0.00  0.00    +0.063 A 
ENDROOT
BRANCH   6   7
ATOM      7  C   UNL     1       6.454  -4.886  22.227  0.00  0.00    +0.418 C 
ATOM      8  F   UNL     1       6.101  -3.684  21.693  0.00  0.00    -0.166 F 
ATOM      9  F   UNL     1       5.377  -5.701  22.046  0.00  0.00    -0.166 F 
ATOM     10  F   UNL     1       7.418  -5.380  21.407  0.00  0.00    -0.166 F 
ENDBRANCH   6   7
BRANCH   1  12
ATOM     11  N   UNL     1       9.889  -2.723  23.645  0.00  0.00    -0.093 NA
ATOM     12  C   UNL     1       8.724  -3.148  23.274  0.00  0.00    +0.161 C 
BRANCH  11  13
ATOM     13  O   UNL     1      10.479  -2.006  22.599  0.00  0.00    -0.393 OA
BRANCH  13  14
ATOM     14  C   UNL     1      10.116  -0.627  22.745  0.00  0.00    +0.274 C 
BRANCH  14  15
ATOM     15  C   UNL     1       9.509  -0.147  21.444  0.00  0.00    +0.164 C 
BRANCH  15  16
ATOM     16  C   UNL     1       9.091   1.296  21.542  0.00  0.00    +0.308 C 
ATOM     17  O   UNL     1       7.927   1.657  21.635  0.00  0.00    -0.251 OA
BRANCH  16  18
ATOM     18  O   UNL     1      10.123   2.167  21.578  0.00  0.00    -0.481 OA
ATOM     19  H   UNL     1      10.329   2.547  20.697  0.00  0.00    +0.295 HD
ENDBRANCH  16  18
ENDBRANCH  15  16
ENDBRANCH  14  15
ENDBRANCH  13  14
ENDBRANCH  11  13
ENDBRANCH   1  12
TORSDOF 7
ENDMDL
MODEL 4
REMARK VINA RESULT:      -5.6      2.854      3.840
REMARK  Name = 
REMARK  7 active torsions:
REMARK  status: ('A' for Active; 'I' for Inactive)
REMARK    1  A    between atoms: O_1  and  C_2
REMARK    2  A    between atoms: C_2  and  C_4
REMARK    3  A    between atoms: C_4  and  C_5
REMARK    4  A    between atoms: C_5  and  O_6
REMARK    5  A    between atoms: O_6  and  N_7
REMARK    6  A    between atoms: C_8  and  C_9
REMARK    7  A    between atoms: C_10  and  C_15
REMARK                            x       y       z     vdW  Elec       q    Type
REMARK                         _______ _______ _______ _____ _____    ______ ____
ROOT
ATOM      1  C   UNL     1       8.371  -2.988  23.318  0.00  0.00    +0.008 A 
ATOM      2  C   UNL     1       7.458  -2.664  22.301  0.00  0.00    +0.010 A 
ATOM      3  C   UNL     1       6.323  -3.449  22.093  0.00  0.00    +0.001 A 
ATOM      4  C   UNL     1       6.088  -4.554  22.902  0.00  0.00    +0.001 A 
ATOM      5  C   UNL     1       6.984  -4.869  23.924  0.00  0.00    +0.013 A 
ATOM      6  C   UNL     1       8.139  -4.091  24.154  0.00  0.00    +0.063 A 
ENDROOT
BRANCH   6   7
ATOM      7  C   UNL     1       9.012  -4.479  25.320  0.00  0.00    +0.418 C 
ATOM      8  F   UNL     1       8.590  -5.631  25.910  0.00  0.00    -0.166 F 
ATOM      9  F   UNL     1       9.001  -3.535  26.304  0.00  0.00    -0.166 F 
ATOM     10  F   UNL     1      10.325  -4.678  25.032  0.00  0.00    -0.166 F 
ENDBRANCH   6   7
BRANCH   1  12
ATOM     11  N   UNL     1       9.515  -0.867  23.176  0.00  0.00    -0.093 NA
ATOM     12  C   UNL     1       9.561  -2.128  23.466  0.00  0.00    +0.161 C 
BRANCH  11  13
ATOM     13  O   UNL     1      10.749  -0.276  23.465  0.00  0.00    -0.393 OA
BRANCH  13  14
ATOM     14  C   UNL     1      10.573   0.595  24.590  0.00  0.00    +0.274 C 
BRANCH  14  15
ATOM     15  C   UNL     1       9.742   1.783  24.156  0.00  0.00    +0.164 C 
BRANCH  15  16
ATOM     16  C   UNL     1      10.440   2.566  23.077  0.00  0.00    +0.308 C 
ATOM     17  O   UNL     1      11.196   3.500  23.302  0.00  0.00    -0.251 OA
BRANCH  16  18
ATOM     18  O   UNL     1      10.208   2.110  21.827  0.00  0.00    -0.481 OA
ATOM     19  H   UNL     1      10.837   1.406  21.557  0.00  0.00    +0.295 HD
ENDBRANCH  16  18
ENDBRANCH  15  16
ENDBRANCH  14  15
ENDBRANCH  13  14
ENDBRANCH  11  13
ENDBRANCH   1  12
TORSDOF 7
ENDMDL
MODEL 5
REMARK VINA RESULT:      -5.5      3.157      3.863
REMARK  Name = 
REMARK  7 active torsions:
REMARK  status: ('A' for Active; 'I' for Inactive)
REMARK    1  A    between atoms: O_1  and  C_2
REMARK    2  A    between atoms: C_2  and  C_4
REMARK    3  A    between atoms: C_4  and  C_5
REMARK    4  A    between atoms: C_5  and  O_6
REMARK    5  A    between atoms: O_6  and  N_7
REMARK    6  A    between atoms: C_8  and  C_9
REMARK    7  A    between atoms: C_10  and  C_15
REMARK                            x       y       z     vdW  Elec       q    Type
REMARK                         _______ _______ _______ _____ _____    ______ ____
ROOT
ATOM      1  C   UNL     1       7.533  -2.862  22.733  0.00  0.00    +0.008 A 
ATOM      2  C   UNL     1       6.428  -3.270  21.969  0.00  0.00    +0.010 A 
ATOM      3  C   UNL     1       6.022  -4.605  21.969  0.00  0.00    +0.001 A 
ATOM      4  C   UNL     1       6.709  -5.537  22.737  0.00  0.00    +0.001 A 
ATOM      5  C   UNL     1       7.797  -5.132  23.511  0.00  0.00    +0.013 A 
ATOM      6  C   UNL     1       8.227  -3.788  23.527  0.00  0.00    +0.063 A 
ENDROOT
BRANCH   6   7
ATOM      7  C   UNL     1       9.374  -3.441  24.442  0.00  0.00    +0.418 C 
ATOM      8  F   UNL     1      10.398  -2.846  23.769  0.00  0.00    -0.166 F 
ATOM      9  F   UNL     1       9.912  -4.546  25.030  0.00  0.00    -0.166 F 
ATOM     10  F   UNL     1       9.075  -2.600  25.467  0.00  0.00    -0.166 F 
ENDBRANCH   6   7
BRANCH   1  12
ATOM     11  N   UNL     1       7.392  -0.565  23.462  0.00  0.00    -0.093 NA
ATOM     12  C   UNL     1       7.921  -1.439  22.668  0.00  0.00    +0.161 C 
BRANCH  11  13
ATOM     13  O   UNL     1       7.977   0.685  23.236  0.00  0.00    -0.393 OA
BRANCH  13  14
ATOM     14  C   UNL     1       8.864   0.966  24.327  0.00  0.00    +0.274 C 
BRANCH  14  15
ATOM     15  C   UNL     1      10.269   1.108  23.782  0.00  0.00    +0.164 C 
BRANCH  15  16
ATOM     16  C   UNL     1      10.393   2.336  22.921  0.00  0.00    +0.308 C 
ATOM     17  O   UNL     1      10.828   3.404  23.326  0.00  0.00    -0.251 OA
BRANCH  16  18
ATOM     18  O   UNL     1      10.037   2.143  21.632  0.00  0.00    -0.481 OA
ATOM     19  H   UNL     1       9.068   2.034  21.519  0.00  0.00    +0.295 HD
ENDBRANCH  16  18
ENDBRANCH  15  16
ENDBRANCH  14  15
ENDBRANCH  13  14
ENDBRANCH  11  13
ENDBRANCH   1  12
TORSDOF 7
ENDMDL
MODEL 6
REMARK VINA RESULT:      -5.5      3.429      6.529
REMARK  Name = 
REMARK  7 active torsions:
REMARK  status: ('A' for Active; 'I' for Inactive)
REMARK    1  A    between atoms: O_1  and  C_2
REMARK    2  A    between atoms: C_2  and  C_4
REMARK    3  A    between atoms: C_4  and  C_5
REMARK    4  A    between atoms: C_5  and  O_6
REMARK    5  A    between atoms: O_6  and  N_7
REMARK    6  A    between atoms: C_8  and  C_9
REMARK    7  A    between atoms: C_10  and  C_15
REMARK                            x       y       z     vdW  Elec       q    Type
REMARK                         _______ _______ _______ _____ _____    ______ ____
ROOT
ATOM      1  C   UNL     1       9.045  -1.146  23.304  0.00  0.00    +0.008 A 
ATOM      2  C   UNL     1       9.529  -0.850  22.019  0.00  0.00    +0.010 A 
ATOM      3  C   UNL     1       9.756   0.472  21.637  0.00  0.00    +0.001 A 
ATOM      4  C   UNL     1       9.513   1.504  22.536  0.00  0.00    +0.001 A 
ATOM      5  C   UNL     1       9.049   1.212  23.819  0.00  0.00    +0.013 A 
ATOM      6  C   UNL     1       8.810  -0.117  24.229  0.00  0.00    +0.063 A 
ENDROOT
BRANCH   6   7
ATOM      7  C   UNL     1       8.367  -0.332  25.654  0.00  0.00    +0.418 C 
ATOM      8  F   UNL     1       8.047   0.841  26.268  0.00  0.00    -0.166 F 
ATOM      9  F   UNL     1       9.349  -0.891  26.416  0.00  0.00    -0.166 F 
ATOM     10  F   UNL     1       7.284  -1.136  25.819  0.00  0.00    -0.166 F 
ENDBRANCH   6   7
BRANCH   1  12
ATOM     11  N   UNL     1       9.736  -3.299  24.151  0.00  0.00    -0.093 NA
ATOM     12  C   UNL     1       8.805  -2.565  23.632  0.00  0.00    +0.161 C 
BRANCH  11  13
ATOM     13  O   UNL     1       9.231  -4.574  24.421  0.00  0.00    -0.393 OA
BRANCH  13  14
ATOM     14  C   UNL     1       7.800  -4.492  24.437  0.00  0.00    +0.274 C 
BRANCH  14  15
ATOM     15  C   UNL     1       7.270  -5.476  25.458  0.00  0.00    +0.164 C 
BRANCH  15  16
ATOM     16  C   UNL     1       7.704  -5.098  26.849  0.00  0.00    +0.308 C 
ATOM     17  O   UNL     1       7.497  -5.793  27.832  0.00  0.00    -0.251 OA
BRANCH  16  18
ATOM     18  O   UNL     1       8.402  -3.943  26.913  0.00  0.00    -0.481 OA
ATOM     19  H   UNL     1       9.307  -4.026  26.542  0.00  0.00    +0.295 HD
ENDBRANCH  16  18
ENDBRANCH  15  16
ENDBRANCH  14  15
ENDBRANCH  13  14
ENDBRANCH  11  13
ENDBRANCH   1  12
TORSDOF 7
ENDMDL
MODEL 7
REMARK VINA RESULT:      -5.4      3.373      6.383
REMARK  Name = 
REMARK  7 active torsions:
REMARK  status: ('A' for Active; 'I' for Inactive)
REMARK    1  A    between atoms: O_1  and  C_2
REMARK    2  A    between atoms: C_2  and  C_4
REMARK    3  A    between atoms: C_4  and  C_5
REMARK    4  A    between atoms: C_5  and  O_6
REMARK    5  A    between atoms: O_6  and  N_7
REMARK    6  A    between atoms: C_8  and  C_9
REMARK    7  A    between atoms: C_10  and  C_15
REMARK                            x       y       z     vdW  Elec       q    Type
REMARK                         _______ _______ _______ _____ _____    ______ ____
ROOT
ATOM      1  C   UNL     1       8.507  -0.428  24.635  0.00  0.00    +0.008 A 
ATOM      2  C   UNL     1       8.243   0.868  25.108  0.00  0.00    +0.010 A 
ATOM      3  C   UNL     1       9.111   1.919  24.811  0.00  0.00    +0.001 A 
ATOM      4  C   UNL     1      10.239   1.686  24.034  0.00  0.00    +0.001 A 
ATOM      5  C   UNL     1      10.496   0.404  23.549  0.00  0.00    +0.013 A 
ATOM      6  C   UNL     1       9.634  -0.676  23.836  0.00  0.00    +0.063 A 
ENDROOT
BRANCH   6   7
ATOM      7  C   UNL     1       9.966  -2.009  23.215  0.00  0.00    +0.418 C 
ATOM      8  F   UNL     1      11.060  -1.935  22.409  0.00  0.00    -0.166 F 
ATOM      9  F   UNL     1       8.956  -2.471  22.425  0.00  0.00    -0.166 F 
ATOM     10  F   UNL     1      10.225  -3.017  24.089  0.00  0.00    -0.166 F 
ENDBRANCH   6   7
BRANCH   1  12
ATOM     11  N   UNL     1       7.370  -1.821  26.246  0.00  0.00    -0.093 NA
ATOM     12  C   UNL     1       7.559  -1.496  25.007  0.00  0.00    +0.161 C 
BRANCH  11  13
ATOM     13  O   UNL     1       6.382  -2.808  26.324  0.00  0.00    -0.393 OA
BRANCH  13  14
ATOM     14  C   UNL     1       6.649  -3.787  25.312  0.00  0.00    +0.274 C 
BRANCH  14  15
ATOM     15  C   UNL     1       6.546  -5.164  25.933  0.00  0.00    +0.164 C 
BRANCH  15  16
ATOM     16  C   UNL     1       7.496  -5.307  27.091  0.00  0.00    +0.308 C 
ATOM     17  O   UNL     1       7.294  -6.047  28.042  0.00  0.00    -0.251 OA
BRANCH  16  18
ATOM     18  O   UNL     1       8.632  -4.588  26.964  0.00  0.00    -0.481 OA
ATOM     19  H   UNL     1       8.678  -3.837  27.595  0.00  0.00    +0.295 HD
ENDBRANCH  16  18
ENDBRANCH  15  16
ENDBRANCH  14  15
ENDBRANCH  13  14
ENDBRANCH  11  13
ENDBRANCH   1  12
TORSDOF 7
ENDMDL
MODEL 8
REMARK VINA RESULT:      -5.4      3.484      6.424
REMARK  Name = 
REMARK  7 active torsions:
REMARK  status: ('A' for Active; 'I' for Inactive)
REMARK    1  A    between atoms: O_1  and  C_2
REMARK    2  A    between atoms: C_2  and  C_4
REMARK    3  A    between atoms: C_4  and  C_5
REMARK    4  A    between atoms: C_5  and  O_6
REMARK    5  A    between atoms: O_6  and  N_7
REMARK    6  A    between atoms: C_8  and  C_9
REMARK    7  A    between atoms: C_10  and  C_15
REMARK                            x       y       z     vdW  Elec       q    Type
REMARK                         _______ _______ _______ _____ _____    ______ ____
ROOT
ATOM      1  C   UNL     1       8.556   0.108  24.266  0.00  0.00    +0.008 A 
ATOM      2  C   UNL     1       7.868   0.412  25.452  0.00  0.00    +0.010 A 
ATOM      3  C   UNL     1       7.676   1.738  25.839  0.00  0.00    +0.001 A 
ATOM      4  C   UNL     1       8.162   2.768  25.041  0.00  0.00    +0.001 A 
ATOM      5  C   UNL     1       8.831   2.471  23.854  0.00  0.00    +0.013 A 
ATOM      6  C   UNL     1       9.038   1.136  23.442  0.00  0.00    +0.063 A 
ENDROOT
BRANCH   6   7
ATOM      7  C   UNL     1       9.719   0.921  22.114  0.00  0.00    +0.418 C 
ATOM      8  F   UNL     1      10.703  -0.017  22.195  0.00  0.00    -0.166 F 
ATOM      9  F   UNL     1      10.324   2.054  21.660  0.00  0.00    -0.166 F 
ATOM     10  F   UNL     1       8.912   0.515  21.099  0.00  0.00    -0.166 F 
ENDBRANCH   6   7
BRANCH   1  12
ATOM     11  N   UNL     1       9.807  -1.956  24.295  0.00  0.00    -0.093 NA
ATOM     12  C   UNL     1       8.742  -1.318  23.932  0.00  0.00    +0.161 C 
BRANCH  11  13
ATOM     13  O   UNL     1       9.702  -3.297  23.910  0.00  0.00    -0.393 OA
BRANCH  13  14
ATOM     14  C   UNL     1       8.313  -3.602  23.736  0.00  0.00    +0.274 C 
BRANCH  14  15
ATOM     15  C   UNL     1       8.011  -4.904  24.447  0.00  0.00    +0.164 C 
BRANCH  15  16
ATOM     16  C   UNL     1       8.961  -5.126  25.594  0.00  0.00    +0.308 C 
ATOM     17  O   UNL     1       8.712  -4.810  26.748  0.00  0.00    -0.251 OA
BRANCH  16  18
ATOM     18  O   UNL     1      10.100  -5.766  25.249  0.00  0.00    -0.481 OA
ATOM     19  H   UNL     1      10.282  -6.546  25.816  0.00  0.00    +0.295 HD
ENDBRANCH  16  18
ENDBRANCH  15  16
ENDBRANCH  14  15
ENDBRANCH  13  14
ENDBRANCH  11  13
ENDBRANCH   1  12
TORSDOF 7
ENDMDL
MODEL 9
REMARK VINA RESULT:      -5.4      3.247      6.158
REMARK  Name = 
REMARK  7 active torsions:
REMARK  status: ('A' for Active; 'I' for Inactive)
REMARK    1  A    between atoms: O_1  and  C_2
REMARK    2  A    between atoms: C_2  and  C_4
REMARK    3  A    between atoms: C_4  and  C_5
REMARK    4  A    between atoms: C_5  and  O_6
REMARK    5  A    between atoms: O_6  and  N_7
REMARK    6  A    between atoms: C_8  and  C_9
REMARK    7  A    between atoms: C_10  and  C_15
REMARK                            x       y       z     vdW  Elec       q    Type
REMARK                         _______ _______ _______ _____ _____    ______ ____
ROOT
ATOM      1  C   UNL     1       9.501   0.154  24.241  0.00  0.00    +0.008 A 
ATOM      2  C   UNL     1       9.405   1.405  24.873  0.00  0.00    +0.010 A 
ATOM      3  C   UNL     1       9.463   2.581  24.126  0.00  0.00    +0.001 A 
ATOM      4  C   UNL     1       9.606   2.516  22.745  0.00  0.00    +0.001 A 
ATOM      5  C   UNL     1       9.685   1.276  22.112  0.00  0.00    +0.013 A 
ATOM      6  C   UNL     1       9.630   0.072  22.846  0.00  0.00    +0.063 A 
ENDROOT
BRANCH   6   7
ATOM      7  C   UNL     1       9.662  -1.217  22.065  0.00  0.00    +0.418 C 
ATOM      8  F   UNL     1      10.859  -1.855  22.186  0.00  0.00    -0.166 F 
ATOM      9  F   UNL     1       9.489  -1.009  20.728  0.00  0.00    -0.166 F 
ATOM     10  F   UNL     1       8.723  -2.137  22.408  0.00  0.00    -0.166 F 
ENDBRANCH   6   7
BRANCH   1  12
ATOM     11  N   UNL     1       8.381  -1.368  25.744  0.00  0.00    -0.093 NA
ATOM     12  C   UNL     1       9.456  -1.048  25.097  0.00  0.00    +0.161 C 
BRANCH  11  13
ATOM     13  O   UNL     1       8.586  -2.574  26.421  0.00  0.00    -0.393 OA
BRANCH  13  14
ATOM     14  C   UNL     1       7.468  -3.431  26.153  0.00  0.00    +0.274 C 
BRANCH  14  15
ATOM     15  C   UNL     1       7.980  -4.837  25.925  0.00  0.00    +0.164 C 
BRANCH  15  16
ATOM     16  C   UNL     1       8.770  -4.924  24.647  0.00  0.00    +0.308 C 
ATOM     17  O   UNL     1       8.284  -5.252  23.574  0.00  0.00    -0.251 OA
BRANCH  16  18
ATOM     18  O   UNL     1      10.062  -4.550  24.770  0.00  0.00    -0.481 OA
ATOM     19  H   UNL     1      10.571  -4.663  23.939  0.00  0.00    +0.295 HD
ENDBRANCH  16  18
ENDBRANCH  15  16
ENDBRANCH  14  15
ENDBRANCH  13  14
ENDBRANCH  11  13
ENDBRANCH   1  12
TORSDOF 7
ENDMDL
