MODEL 1
REMARK VINA RESULT:      -8.1      0.000      0.000
REMARK  Name = 
REMARK  2 active torsions:
REMARK  status: ('A' for Active; 'I' for Inactive)
REMARK    1  A    between atoms: C_13  and  S_16
REMARK    2  A    between atoms: S_16  and  N_19
REMARK                            x       y       z     vdW  Elec       q    Type
REMARK                         _______ _______ _______ _____ _____    ______ ____
ROOT
ATOM      1  O   UNL     1       7.310   0.846  26.060  0.00  0.00    -0.286 OA
ATOM      2  C   UNL     1       8.228   0.902  25.253  0.00  0.00    +0.200 A 
ATOM      3  C   UNL     1       8.823  -0.316  24.689  0.00  0.00    +0.066 A 
ATOM      4  C   UNL     1       8.357  -1.576  25.077  0.00  0.00    +0.044 A 
ATOM      5  C   UNL     1       8.942  -2.714  24.517  0.00  0.00    +0.113 A 
ATOM      6  C   UNL     1       9.988  -2.600  23.593  0.00  0.00    +0.033 A 
ATOM      7  C   UNL     1      10.442  -1.333  23.216  0.00  0.00    +0.049 A 
ATOM      8  C   UNL     1       9.859  -0.187  23.764  0.00  0.00    +0.139 A 
ATOM      9  O   UNL     1      10.364   1.020  23.344  0.00  0.00    -0.455 OA
ATOM     10  C   UNL     1       9.819   2.168  23.867  0.00  0.00    +0.139 A 
ATOM     11  C   UNL     1      10.356   3.377  23.418  0.00  0.00    +0.047 A 
ATOM     12  C   UNL     1       9.853   4.589  23.902  0.00  0.00    +0.004 A 
ATOM     13  C   UNL     1       8.815   4.596  24.834  0.00  0.00    +0.001 A 
ATOM     14  C   UNL     1       8.277   3.391  25.286  0.00  0.00    +0.015 A 
ATOM     15  C   UNL     1       8.782   2.183  24.797  0.00  0.00    +0.065 A 
ENDROOT
BRANCH   5  16
ATOM     16  S   UNL     1       8.392  -4.326  25.041  0.00  0.00    +0.102 S 
ATOM     17  O   UNL     1       7.051  -4.166  25.576  0.00  0.00    -0.146 OA
ATOM     18  O   UNL     1       9.439  -4.874  25.883  0.00  0.00    -0.146 OA
BRANCH  16  19
ATOM     19  N   UNL     1       8.334  -5.170  23.662  0.00  0.00    -0.089 NA
ATOM     20  C   UNL     1       7.340  -4.973  22.881  0.00  0.00    +0.260 A 
ATOM     21  N   UNL     1       6.273  -4.126  22.891  0.00  0.00    -0.224 N 
ATOM     22  H   UNL     1       6.235  -3.312  23.498  0.00  0.00    +0.194 HD
ATOM     23  N   UNL     1       5.530  -4.179  21.748  0.00  0.00    -0.047 NA
ATOM     24  N   UNL     1       6.016  -5.110  21.031  0.00  0.00    -0.047 NA
ATOM     25  N   UNL     1       7.092  -5.603  21.702  0.00  0.00    -0.224 N 
ATOM     26  H   UNL     1       7.698  -6.307  21.306  0.00  0.00    +0.194 HD
ENDBRANCH  16  19
ENDBRANCH   5  16
TORSDOF 2
ENDMDL
MODEL 2
REMARK VINA RESULT:      -8.0      2.353      3.093
REMARK  Name = 
REMARK  2 active torsions:
REMARK  status: ('A' for Active; 'I' for Inactive)
REMARK    1  A    between atoms: C_13  and  S_16
REMARK    2  A    between atoms: S_16  and  N_19
REMARK                            x       y       z     vdW  Elec       q    Type
REMARK                         _______ _______ _______ _____ _____    ______ ____
ROOT
ATOM      1  O   UNL     1       7.360   0.916  26.210  0.00  0.00    -0.286 OA
ATOM      2  C   UNL     1       8.247   0.967  25.368  0.00  0.00    +0.200 A 
ATOM      3  C   UNL     1       8.829  -0.256  24.798  0.00  0.00    +0.066 A 
ATOM      4  C   UNL     1       8.388  -1.513  25.222  0.00  0.00    +0.044 A 
ATOM      5  C   UNL     1       8.961  -2.655  24.657  0.00  0.00    +0.113 A 
ATOM      6  C   UNL     1       9.970  -2.546  23.692  0.00  0.00    +0.033 A 
ATOM      7  C   UNL     1      10.399  -1.281  23.280  0.00  0.00    +0.049 A 
ATOM      8  C   UNL     1       9.829  -0.132  23.833  0.00  0.00    +0.139 A 
ATOM      9  O   UNL     1      10.308   1.072  23.378  0.00  0.00    -0.455 OA
ATOM     10  C   UNL     1       9.774   2.224  23.904  0.00  0.00    +0.139 A 
ATOM     11  C   UNL     1      10.283   3.430  23.418  0.00  0.00    +0.047 A 
ATOM     12  C   UNL     1       9.790   4.645  23.903  0.00  0.00    +0.004 A 
ATOM     13  C   UNL     1       8.788   4.658  24.874  0.00  0.00    +0.001 A 
ATOM     14  C   UNL     1       8.277   3.456  25.363  0.00  0.00    +0.015 A 
ATOM     15  C   UNL     1       8.773   2.245  24.872  0.00  0.00    +0.065 A 
ENDROOT
BRANCH   5  16
ATOM     16  S   UNL     1       8.444  -4.263  25.224  0.00  0.00    +0.102 S 
ATOM     17  O   UNL     1       9.575  -4.854  25.919  0.00  0.00    -0.146 OA
ATOM     18  O   UNL     1       7.868  -4.947  24.082  0.00  0.00    -0.146 OA
BRANCH  16  19
ATOM     19  N   UNL     1       7.267  -3.927  26.282  0.00  0.00    -0.089 NA
ATOM     20  C   UNL     1       6.991  -4.808  27.169  0.00  0.00    +0.260 A 
ATOM     21  N   UNL     1       7.518  -6.017  27.510  0.00  0.00    -0.224 N 
ATOM     22  H   UNL     1       8.431  -6.319  27.183  0.00  0.00    +0.194 HD
ATOM     23  N   UNL     1       6.972  -6.546  28.642  0.00  0.00    -0.047 NA
ATOM     24  N   UNL     1       6.029  -5.769  28.998  0.00  0.00    -0.047 NA
ATOM     25  N   UNL     1       6.020  -4.732  28.118  0.00  0.00    -0.224 N 
ATOM     26  H   UNL     1       5.407  -3.938  28.228  0.00  0.00    +0.194 HD
ENDBRANCH  16  19
ENDBRANCH   5  16
TORSDOF 2
ENDMDL
MODEL 3
REMARK VINA RESULT:      -8.0      1.946      2.405
REMARK  Name = 
REMARK  2 active torsions:
REMARK  status: ('A' for Active; 'I' for Inactive)
REMARK    1  A    between atoms: C_13  and  S_16
REMARK    2  A    between atoms: S_16  and  N_19
REMARK                            x       y       z     vdW  Elec       q    Type
REMARK                         _______ _______ _______ _____ _____    ______ ____
ROOT
ATOM      1  O   UNL     1       6.579   1.946  22.098  0.00  0.00    -0.286 OA
ATOM      2  C   UNL     1       7.556   2.308  22.741  0.00  0.00    +0.200 A 
ATOM      3  C   UNL     1       8.416   1.339  23.433  0.00  0.00    +0.066 A 
ATOM      4  C   UNL     1       8.125  -0.028  23.382  0.00  0.00    +0.044 A 
ATOM      5  C   UNL     1       8.966  -0.923  24.047  0.00  0.00    +0.113 A 
ATOM      6  C   UNL     1      10.076  -0.462  24.766  0.00  0.00    +0.033 A 
ATOM      7  C   UNL     1      10.352   0.908  24.807  0.00  0.00    +0.049 A 
ATOM      8  C   UNL     1       9.522   1.812  24.139  0.00  0.00    +0.139 A 
ATOM      9  O   UNL     1       9.859   3.141  24.231  0.00  0.00    -0.455 OA
ATOM     10  C   UNL     1       9.062   4.059  23.592  0.00  0.00    +0.139 A 
ATOM     11  C   UNL     1       9.435   5.400  23.705  0.00  0.00    +0.047 A 
ATOM     12  C   UNL     1       8.674   6.394  23.082  0.00  0.00    +0.004 A 
ATOM     13  C   UNL     1       7.540   6.050  22.344  0.00  0.00    +0.001 A 
ATOM     14  C   UNL     1       7.163   4.713  22.229  0.00  0.00    +0.015 A 
ATOM     15  C   UNL     1       7.929   3.724  22.853  0.00  0.00    +0.065 A 
ENDROOT
BRANCH   5  16
ATOM     16  S   UNL     1       8.578  -2.662  24.032  0.00  0.00    +0.102 S 
ATOM     17  O   UNL     1       7.846  -2.946  25.254  0.00  0.00    -0.146 OA
ATOM     18  O   UNL     1       9.816  -3.366  23.758  0.00  0.00    -0.146 OA
BRANCH  16  19
ATOM     19  N   UNL     1       7.594  -2.816  22.756  0.00  0.00    -0.089 NA
ATOM     20  C   UNL     1       7.258  -3.998  22.400  0.00  0.00    +0.260 A 
ATOM     21  N   UNL     1       7.487  -5.246  22.897  0.00  0.00    -0.224 N 
ATOM     22  H   UNL     1       7.837  -5.396  23.839  0.00  0.00    +0.194 HD
ATOM     23  N   UNL     1       6.792  -6.223  22.246  0.00  0.00    -0.047 NA
ATOM     24  N   UNL     1       6.194  -5.668  21.270  0.00  0.00    -0.047 NA
ATOM     25  N   UNL     1       6.475  -4.339  21.342  0.00  0.00    -0.224 N 
ATOM     26  H   UNL     1       6.055  -3.665  20.718  0.00  0.00    +0.194 HD
ENDBRANCH  16  19
ENDBRANCH   5  16
TORSDOF 2
ENDMDL
MODEL 4
REMARK VINA RESULT:      -7.9      0.908      2.178
REMARK  Name = 
REMARK  2 active torsions:
REMARK  status: ('A' for Active; 'I' for Inactive)
REMARK    1  A    between atoms: C_13  and  S_16
REMARK    2  A    between atoms: S_16  and  N_19
REMARK                            x       y       z     vdW  Elec       q    Type
REMARK                         _______ _______ _______ _____ _____    ______ ____
ROOT
ATOM      1  O   UNL     1      10.613  -0.514  23.104  0.00  0.00    -0.286 OA
ATOM      2  C   UNL     1       9.777  -0.076  23.884  0.00  0.00    +0.200 A 
ATOM      3  C   UNL     1       8.951  -0.975  24.700  0.00  0.00    +0.066 A 
ATOM      4  C   UNL     1       9.095  -2.362  24.591  0.00  0.00    +0.044 A 
ATOM      5  C   UNL     1       8.296  -3.188  25.386  0.00  0.00    +0.113 A 
ATOM      6  C   UNL     1       7.356  -2.640  26.267  0.00  0.00    +0.033 A 
ATOM      7  C   UNL     1       7.226  -1.252  26.364  0.00  0.00    +0.049 A 
ATOM      8  C   UNL     1       8.024  -0.416  25.579  0.00  0.00    +0.139 A 
ATOM      9  O   UNL     1       7.832   0.937  25.730  0.00  0.00    -0.455 OA
ATOM     10  C   UNL     1       8.596   1.789  24.970  0.00  0.00    +0.139 A 
ATOM     11  C   UNL     1       8.375   3.157  25.150  0.00  0.00    +0.047 A 
ATOM     12  C   UNL     1       9.115   4.088  24.413  0.00  0.00    +0.004 A 
ATOM     13  C   UNL     1      10.074   3.655  23.498  0.00  0.00    +0.001 A 
ATOM     14  C   UNL     1      10.298   2.291  23.314  0.00  0.00    +0.015 A 
ATOM     15  C   UNL     1       9.556   1.365  24.055  0.00  0.00    +0.065 A 
ENDROOT
BRANCH   5  16
ATOM     16  S   UNL     1       8.433  -4.956  25.220  0.00  0.00    +0.102 S 
ATOM     17  O   UNL     1       7.239  -5.534  25.812  0.00  0.00    -0.146 OA
ATOM     18  O   UNL     1       9.739  -5.327  25.733  0.00  0.00    -0.146 OA
BRANCH  16  19
ATOM     19  N   UNL     1       8.416  -5.186  23.618  0.00  0.00    -0.089 NA
ATOM     20  C   UNL     1       7.290  -5.107  23.015  0.00  0.00    +0.260 A 
ATOM     21  N   UNL     1       6.021  -4.796  23.400  0.00  0.00    -0.224 N 
ATOM     22  H   UNL     1       5.821  -4.344  24.288  0.00  0.00    +0.194 HD
ATOM     23  N   UNL     1       5.147  -4.701  22.357  0.00  0.00    -0.047 NA
ATOM     24  N   UNL     1       5.780  -5.042  21.308  0.00  0.00    -0.047 NA
ATOM     25  N   UNL     1       7.061  -5.301  21.689  0.00  0.00    -0.224 N 
ATOM     26  H   UNL     1       7.786  -5.522  21.023  0.00  0.00    +0.194 HD
ENDBRANCH  16  19
ENDBRANCH   5  16
TORSDOF 2
ENDMDL
MODEL 5
REMARK VINA RESULT:      -7.8      5.325      7.815
REMARK  Name = 
REMARK  2 active torsions:
REMARK  status: ('A' for Active; 'I' for Inactive)
REMARK    1  A    between atoms: C_13  and  S_16
REMARK    2  A    between atoms: S_16  and  N_19
REMARK                            x       y       z     vdW  Elec       q    Type
REMARK                         _______ _______ _______ _____ _____    ______ ____
ROOT
ATOM      1  O   UNL     1       5.411  -1.510  24.369  0.00  0.00    -0.286 OA
ATOM      2  C   UNL     1       6.231  -2.022  23.618  0.00  0.00    +0.200 A 
ATOM      3  C   UNL     1       7.402  -1.273  23.143  0.00  0.00    +0.066 A 
ATOM      4  C   UNL     1       7.598   0.056  23.532  0.00  0.00    +0.044 A 
ATOM      5  C   UNL     1       8.725   0.737  23.065  0.00  0.00    +0.113 A 
ATOM      6  C   UNL     1       9.639   0.107  22.211  0.00  0.00    +0.033 A 
ATOM      7  C   UNL     1       9.428  -1.223  21.833  0.00  0.00    +0.049 A 
ATOM      8  C   UNL     1       8.308  -1.916  22.299  0.00  0.00    +0.139 A 
ATOM      9  O   UNL     1       8.171  -3.217  21.878  0.00  0.00    -0.455 OA
ATOM     10  C   UNL     1       7.078  -3.928  22.312  0.00  0.00    +0.139 A 
ATOM     11  C   UNL     1       6.971  -5.247  21.866  0.00  0.00    +0.047 A 
ATOM     12  C   UNL     1       5.888  -6.035  22.265  0.00  0.00    +0.004 A 
ATOM     13  C   UNL     1       4.910  -5.508  23.110  0.00  0.00    +0.001 A 
ATOM     14  C   UNL     1       5.012  -4.192  23.557  0.00  0.00    +0.015 A 
ATOM     15  C   UNL     1       6.099  -3.409  23.156  0.00  0.00    +0.065 A 
ENDROOT
BRANCH   5  16
ATOM     16  S   UNL     1       8.959   2.446  23.511  0.00  0.00    +0.102 S 
ATOM     17  O   UNL     1       8.690   2.555  24.935  0.00  0.00    -0.146 OA
ATOM     18  O   UNL     1       8.184   3.235  22.573  0.00  0.00    -0.146 OA
BRANCH  16  19
ATOM     19  N   UNL     1      10.533   2.695  23.231  0.00  0.00    -0.089 NA
ATOM     20  C   UNL     1      10.982   3.886  23.362  0.00  0.00    +0.260 A 
ATOM     21  N   UNL     1      10.443   5.070  23.766  0.00  0.00    -0.224 N 
ATOM     22  H   UNL     1       9.556   5.120  24.259  0.00  0.00    +0.194 HD
ATOM     23  N   UNL     1      11.363   6.071  23.883  0.00  0.00    -0.047 NA
ATOM     24  N   UNL     1      12.472   5.608  23.467  0.00  0.00    -0.047 NA
ATOM     25  N   UNL     1      12.257   4.305  23.139  0.00  0.00    -0.224 N 
ATOM     26  H   UNL     1      13.004   3.692  22.850  0.00  0.00    +0.194 HD
ENDBRANCH  16  19
ENDBRANCH   5  16
TORSDOF 2
ENDMDL
MODEL 6
REMARK VINA RESULT:      -7.8      3.062      3.918
REMARK  Name = 
REMARK  2 active torsions:
REMARK  status: ('A' for Active; 'I' for Inactive)
REMARK    1  A    between atoms: C_13  and  S_16
REMARK    2  A    between atoms: S_16  and  N_19
REMARK                            x       y       z     vdW  Elec       q    Type
REMARK                         _______ _______ _______ _____ _____    ______ ____
ROOT
ATOM      1  O   UNL     1       8.184  -0.171  26.023  0.00  0.00    -0.286 OA
ATOM      2  C   UNL     1       8.315  -0.357  24.821  0.00  0.00    +0.200 A 
ATOM      3  C   UNL     1       7.757  -1.550  24.169  0.00  0.00    +0.066 A 
ATOM      4  C   UNL     1       7.072  -2.511  24.918  0.00  0.00    +0.044 A 
ATOM      5  C   UNL     1       6.552  -3.631  24.266  0.00  0.00    +0.113 A 
ATOM      6  C   UNL     1       6.723  -3.799  22.886  0.00  0.00    +0.033 A 
ATOM      7  C   UNL     1       7.410  -2.828  22.152  0.00  0.00    +0.049 A 
ATOM      8  C   UNL     1       7.929  -1.700  22.793  0.00  0.00    +0.139 A 
ATOM      9  O   UNL     1       8.594  -0.795  22.001  0.00  0.00    -0.455 OA
ATOM     10  C   UNL     1       9.123   0.324  22.598  0.00  0.00    +0.139 A 
ATOM     11  C   UNL     1       9.792   1.223  21.764  0.00  0.00    +0.047 A 
ATOM     12  C   UNL     1      10.356   2.385  22.298  0.00  0.00    +0.004 A 
ATOM     13  C   UNL     1      10.255   2.652  23.664  0.00  0.00    +0.001 A 
ATOM     14  C   UNL     1       9.589   1.757  24.500  0.00  0.00    +0.015 A 
ATOM     15  C   UNL     1       9.025   0.597  23.961  0.00  0.00    +0.065 A 
ENDROOT
BRANCH   5  16
ATOM     16  S   UNL     1       5.721  -4.888  25.217  0.00  0.00    +0.102 S 
ATOM     17  O   UNL     1       5.513  -6.023  24.334  0.00  0.00    -0.146 OA
ATOM     18  O   UNL     1       4.581  -4.253  25.849  0.00  0.00    -0.146 OA
BRANCH  16  19
ATOM     19  N   UNL     1       6.804  -5.273  26.357  0.00  0.00    -0.089 NA
ATOM     20  C   UNL     1       6.422  -6.035  27.311  0.00  0.00    +0.260 A 
ATOM     21  N   UNL     1       5.268  -6.701  27.598  0.00  0.00    -0.224 N 
ATOM     22  H   UNL     1       4.542  -6.847  26.902  0.00  0.00    +0.194 HD
ATOM     23  N   UNL     1       5.373  -7.524  28.680  0.00  0.00    -0.047 NA
ATOM     24  N   UNL     1       6.530  -7.341  29.177  0.00  0.00    -0.047 NA
ATOM     25  N   UNL     1       7.164  -6.442  28.376  0.00  0.00    -0.224 N 
ATOM     26  H   UNL     1       8.130  -6.184  28.515  0.00  0.00    +0.194 HD
ENDBRANCH  16  19
ENDBRANCH   5  16
TORSDOF 2
ENDMDL
MODEL 7
REMARK VINA RESULT:      -7.8      2.304      3.461
REMARK  Name = 
REMARK  2 active torsions:
REMARK  status: ('A' for Active; 'I' for Inactive)
REMARK    1  A    between atoms: C_13  and  S_16
REMARK    2  A    between atoms: S_16  and  N_19
REMARK                            x       y       z     vdW  Elec       q    Type
REMARK                         _______ _______ _______ _____ _____    ______ ____
ROOT
ATOM      1  O   UNL     1      10.668  -0.414  23.137  0.00  0.00    -0.286 OA
ATOM      2  C   UNL     1       9.592   0.031  23.513  0.00  0.00    +0.200 A 
ATOM      3  C   UNL     1       8.452  -0.855  23.781  0.00  0.00    +0.066 A 
ATOM      4  C   UNL     1       8.570  -2.237  23.597  0.00  0.00    +0.044 A 
ATOM      5  C   UNL     1       7.467  -3.051  23.865  0.00  0.00    +0.113 A 
ATOM      6  C   UNL     1       6.257  -2.496  24.298  0.00  0.00    +0.033 A 
ATOM      7  C   UNL     1       6.156  -1.113  24.478  0.00  0.00    +0.049 A 
ATOM      8  C   UNL     1       7.254  -0.289  24.219  0.00  0.00    +0.139 A 
ATOM      9  O   UNL     1       7.072   1.058  24.416  0.00  0.00    -0.455 OA
ATOM     10  C   UNL     1       8.130   1.899  24.166  0.00  0.00    +0.139 A 
ATOM     11  C   UNL     1       7.910   3.262  24.378  0.00  0.00    +0.047 A 
ATOM     12  C   UNL     1       8.938   4.182  24.147  0.00  0.00    +0.004 A 
ATOM     13  C   UNL     1      10.186   3.742  23.704  0.00  0.00    +0.001 A 
ATOM     14  C   UNL     1      10.410   2.382  23.491  0.00  0.00    +0.015 A 
ATOM     15  C   UNL     1       9.379   1.468  23.725  0.00  0.00    +0.065 A 
ENDROOT
BRANCH   5  16
ATOM     16  S   UNL     1       7.590  -4.806  23.585  0.00  0.00    +0.102 S 
ATOM     17  O   UNL     1       8.852  -5.242  24.158  0.00  0.00    -0.146 OA
ATOM     18  O   UNL     1       7.328  -5.026  22.176  0.00  0.00    -0.146 OA
BRANCH  16  19
ATOM     19  N   UNL     1       6.360  -5.410  24.447  0.00  0.00    -0.089 NA
ATOM     20  C   UNL     1       6.578  -5.707  25.673  0.00  0.00    +0.260 A 
ATOM     21  N   UNL     1       7.644  -5.576  26.512  0.00  0.00    -0.224 N 
ATOM     22  H   UNL     1       8.433  -4.975  26.292  0.00  0.00    +0.194 HD
ATOM     23  N   UNL     1       7.361  -5.912  27.803  0.00  0.00    -0.047 NA
ATOM     24  N   UNL     1       6.170  -6.359  27.819  0.00  0.00    -0.047 NA
ATOM     25  N   UNL     1       5.694  -6.255  26.548  0.00  0.00    -0.224 N 
ATOM     26  H   UNL     1       4.738  -6.477  26.311  0.00  0.00    +0.194 HD
ENDBRANCH  16  19
ENDBRANCH   5  16
TORSDOF 2
ENDMDL
MODEL 8
REMARK VINA RESULT:      -7.8      2.598      3.420
REMARK  Name = 
REMARK  2 active torsions:
REMARK  status: ('A' for Active; 'I' for Inactive)
REMARK    1  A    between atoms: C_13  and  S_16
REMARK    2  A    between atoms: S_16  and  N_19
REMARK                            x       y       z     vdW  Elec       q    Type
REMARK                         _______ _______ _______ _____ _____    ______ ____
ROOT
ATOM      1  O   UNL     1       6.471   2.035  22.288  0.00  0.00    -0.286 OA
ATOM      2  C   UNL     1       7.506   2.397  22.831  0.00  0.00    +0.200 A 
ATOM      3  C   UNL     1       8.430   1.429  23.437  0.00  0.00    +0.066 A 
ATOM      4  C   UNL     1       8.134   0.062  23.419  0.00  0.00    +0.044 A 
ATOM      5  C   UNL     1       9.036  -0.831  24.001  0.00  0.00    +0.113 A 
ATOM      6  C   UNL     1      10.211  -0.369  24.606  0.00  0.00    +0.033 A 
ATOM      7  C   UNL     1      10.491   1.000  24.616  0.00  0.00    +0.049 A 
ATOM      8  C   UNL     1       9.600   1.903  24.030  0.00  0.00    +0.139 A 
ATOM      9  O   UNL     1       9.946   3.232  24.085  0.00  0.00    -0.455 OA
ATOM     10  C   UNL     1       9.090   4.149  23.524  0.00  0.00    +0.139 A 
ATOM     11  C   UNL     1       9.474   5.490  23.596  0.00  0.00    +0.047 A 
ATOM     12  C   UNL     1       8.656   6.483  23.047  0.00  0.00    +0.004 A 
ATOM     13  C   UNL     1       7.455   6.138  22.426  0.00  0.00    +0.001 A 
ATOM     14  C   UNL     1       7.067   4.801  22.352  0.00  0.00    +0.015 A 
ATOM     15  C   UNL     1       7.890   3.813  22.901  0.00  0.00    +0.065 A 
ENDROOT
BRANCH   5  16
ATOM     16  S   UNL     1       8.647  -2.570  24.030  0.00  0.00    +0.102 S 
ATOM     17  O   UNL     1       9.903  -3.286  24.167  0.00  0.00    -0.146 OA
ATOM     18  O   UNL     1       7.796  -2.829  22.884  0.00  0.00    -0.146 OA
BRANCH  16  19
ATOM     19  N   UNL     1       7.771  -2.737  25.381  0.00  0.00    -0.089 NA
ATOM     20  C   UNL     1       7.759  -3.884  25.948  0.00  0.00    +0.260 A 
ATOM     21  N   UNL     1       8.392  -5.069  25.718  0.00  0.00    -0.224 N 
ATOM     22  H   UNL     1       9.199  -5.140  25.105  0.00  0.00    +0.194 HD
ATOM     23  N   UNL     1       8.172  -5.998  26.692  0.00  0.00    -0.047 NA
ATOM     24  N   UNL     1       7.329  -5.495  27.502  0.00  0.00    -0.047 NA
ATOM     25  N   UNL     1       7.063  -4.235  27.062  0.00  0.00    -0.224 N 
ATOM     26  H   UNL     1       6.476  -3.597  27.578  0.00  0.00    +0.194 HD
ENDBRANCH  16  19
ENDBRANCH   5  16
TORSDOF 2
ENDMDL
MODEL 9
REMARK VINA RESULT:      -7.6      2.203      2.856
REMARK  Name = 
REMARK  2 active torsions:
REMARK  status: ('A' for Active; 'I' for Inactive)
REMARK    1  A    between atoms: C_13  and  S_16
REMARK    2  A    between atoms: S_16  and  N_19
REMARK                            x       y       z     vdW  Elec       q    Type
REMARK                         _______ _______ _______ _____ _____    ______ ____
ROOT
ATOM      1  O   UNL     1       6.401   1.141  23.272  0.00  0.00    -0.286 OA
ATOM      2  C   UNL     1       7.610   0.992  23.388  0.00  0.00    +0.200 A 
ATOM      3  C   UNL     1       8.214  -0.347  23.420  0.00  0.00    +0.066 A 
ATOM      4  C   UNL     1       7.410  -1.488  23.331  0.00  0.00    +0.044 A 
ATOM      5  C   UNL     1       8.018  -2.745  23.360  0.00  0.00    +0.113 A 
ATOM      6  C   UNL     1       9.406  -2.866  23.490  0.00  0.00    +0.033 A 
ATOM      7  C   UNL     1      10.195  -1.715  23.577  0.00  0.00    +0.049 A 
ATOM      8  C   UNL     1       9.599  -0.452  23.542  0.00  0.00    +0.139 A 
ATOM      9  O   UNL     1      10.443   0.629  23.637  0.00  0.00    -0.455 OA
ATOM     10  C   UNL     1       9.891   1.887  23.612  0.00  0.00    +0.139 A 
ATOM     11  C   UNL     1      10.777   2.962  23.709  0.00  0.00    +0.047 A 
ATOM     12  C   UNL     1      10.293   4.274  23.690  0.00  0.00    +0.004 A 
ATOM     13  C   UNL     1       8.923   4.514  23.573  0.00  0.00    +0.001 A 
ATOM     14  C   UNL     1       8.034   3.444  23.476  0.00  0.00    +0.015 A 
ATOM     15  C   UNL     1       8.525   2.135  23.494  0.00  0.00    +0.065 A 
ENDROOT
BRANCH   5  16
ATOM     16  S   UNL     1       7.001  -4.207  23.300  0.00  0.00    +0.102 S 
ATOM     17  O   UNL     1       7.075  -4.722  21.943  0.00  0.00    -0.146 OA
ATOM     18  O   UNL     1       5.713  -3.847  23.860  0.00  0.00    -0.146 OA
BRANCH  16  19
ATOM     19  N   UNL     1       7.746  -5.225  24.313  0.00  0.00    -0.089 NA
ATOM     20  C   UNL     1       7.500  -5.111  25.564  0.00  0.00    +0.260 A 
ATOM     21  N   UNL     1       6.663  -4.332  26.304  0.00  0.00    -0.224 N 
ATOM     22  H   UNL     1       5.894  -3.816  25.886  0.00  0.00    +0.194 HD
ATOM     23  N   UNL     1       6.640  -4.668  27.626  0.00  0.00    -0.047 NA
ATOM     24  N   UNL     1       7.516  -5.576  27.795  0.00  0.00    -0.047 NA
ATOM     25  N   UNL     1       8.048  -5.841  26.572  0.00  0.00    -0.224 N 
ATOM     26  H   UNL     1       8.718  -6.582  26.425  0.00  0.00    +0.194 HD
ENDBRANCH  16  19
ENDBRANCH   5  16
TORSDOF 2
ENDMDL
