MODEL 1
REMARK VINA RESULT:      -6.9      0.000      0.000
REMARK  Name = 
REMARK  12 active torsions:
REMARK  status: ('A' for Active; 'I' for Inactive)
REMARK    1  A    between atoms: C_1  and  C_2
REMARK    2  A    between atoms: C_3  and  C_4
REMARK    3  A    between atoms: C_4  and  C_5
REMARK    4  A    between atoms: C_12  and  O_13
REMARK    5  A    between atoms: O_13  and  C_14
REMARK    6  A    between atoms: C_14  and  C_15
REMARK    7  A    between atoms: C_15  and  C_16
REMARK    8  A    between atoms: C_16  and  P_17
REMARK    9  A    between atoms: P_17  and  O_18
REMARK   10  A    between atoms: P_17  and  O_19
REMARK   11  A    between atoms: N_22  and  C_23
REMARK   12  A    between atoms: C_23  and  C_24
REMARK                            x       y       z     vdW  Elec       q    Type
REMARK                         _______ _______ _______ _____ _____    ______ ____
ROOT
ATOM      1  C   UNL     1       8.318  -2.201  21.748  0.00  0.00    +0.064 C 
ATOM      2  C   UNL     1       7.888  -2.994  22.938  0.00  0.00    +0.021 A 
ATOM      3  N   UNL     1       8.610  -2.970  24.119  0.00  0.00    -0.339 N 
ATOM      4  C   UNL     1       7.973  -3.741  25.076  0.00  0.00    +0.050 A 
ATOM      5  C   UNL     1       8.261  -3.950  26.433  0.00  0.00    +0.030 A 
ATOM      6  C   UNL     1       7.491  -4.881  27.141  0.00  0.00    +0.048 A 
ATOM      7  C   UNL     1       6.469  -5.589  26.518  0.00  0.00    +0.121 A 
ATOM      8  C   UNL     1       6.191  -5.366  25.163  0.00  0.00    +0.056 A 
ATOM      9  C   UNL     1       6.925  -4.402  24.437  0.00  0.00    +0.007 A 
ATOM     10  C   UNL     1       6.820  -3.873  23.107  0.00  0.00    -0.010 A 
ENDROOT
BRANCH   3  11
ATOM     11  C   UNL     1       9.855  -2.229  24.348  0.00  0.00    +0.157 C 
BRANCH  11  12
ATOM     12  C   UNL     1       9.710  -0.725  24.506  0.00  0.00    -0.028 A 
ATOM     13  C   UNL     1      10.597   0.098  23.789  0.00  0.00    +0.005 A 
ATOM     14  C   UNL     1      10.446   1.488  23.774  0.00  0.00    +0.000 A 
ATOM     15  C   UNL     1       9.412   2.081  24.493  0.00  0.00    +0.000 A 
ATOM     16  C   UNL     1       8.553   1.286  25.248  0.00  0.00    +0.000 A 
ATOM     17  C   UNL     1       8.703  -0.106  25.261  0.00  0.00    +0.005 A 
ENDBRANCH  11  12
ENDBRANCH   3  11
BRANCH   7  18
ATOM     18  O   UNL     1       5.669  -6.523  27.124  0.00  0.00    -0.492 OA
BRANCH  18  19
ATOM     19  C   UNL     1       4.419  -6.046  27.624  0.00  0.00    +0.229 C 
BRANCH  19  20
ATOM     20  C   UNL     1       3.308  -6.935  27.083  0.00  0.00    +0.053 C 
BRANCH  20  21
ATOM     21  C   UNL     1       2.696  -6.399  25.793  0.00  0.00    +0.130 C 
BRANCH  21  22
ATOM     22  P   UNL     1       2.627  -7.639  24.506  0.00  0.00    +0.328 P 
ATOM     23  O   UNL     1       1.529  -7.444  23.516  0.00  0.00    -0.259 OA
BRANCH  22  24
ATOM     24  O   UNL     1       2.603  -9.034  25.294  0.00  0.00    -0.324 OA
ATOM     25  H   UNL     1       2.379  -8.985  26.241  0.00  0.00    +0.220 HD
ENDBRANCH  22  24
BRANCH  22  26
ATOM     26  O   UNL     1       4.102  -7.630  23.884  0.00  0.00    -0.324 OA
ATOM     27  H   UNL     1       4.487  -6.741  23.770  0.00  0.00    +0.220 HD
ENDBRANCH  22  26
ENDBRANCH  21  22
ENDBRANCH  20  21
ENDBRANCH  19  20
ENDBRANCH  18  19
ENDBRANCH   7  18
BRANCH  10  28
ATOM     28  C   UNL     1       5.791  -4.271  22.077  0.00  0.00    +0.133 C 
BRANCH  28  29
ATOM     29  C   UNL     1       6.032  -5.548  21.276  0.00  0.00    +0.215 C 
ATOM     30  O   UNL     1       6.018  -5.539  20.040  0.00  0.00    -0.276 OA
ATOM     31  N   UNL     1       6.241  -6.726  21.913  0.00  0.00    -0.329 N 
ATOM     32  H   UNL     1       6.466  -7.525  21.339  0.00  0.00    +0.145 HD
ATOM     33  H   UNL     1       6.439  -6.780  22.903  0.00  0.00    +0.145 HD
ENDBRANCH  28  29
ENDBRANCH  10  28
TORSDOF 11
ENDMDL
MODEL 2
REMARK VINA RESULT:      -6.9      3.875      6.611
REMARK  Name = 
REMARK  12 active torsions:
REMARK  status: ('A' for Active; 'I' for Inactive)
REMARK    1  A    between atoms: C_1  and  C_2
REMARK    2  A    between atoms: C_3  and  C_4
REMARK    3  A    between atoms: C_4  and  C_5
REMARK    4  A    between atoms: C_12  and  O_13
REMARK    5  A    between atoms: O_13  and  C_14
REMARK    6  A    between atoms: C_14  and  C_15
REMARK    7  A    between atoms: C_15  and  C_16
REMARK    8  A    between atoms: C_16  and  P_17
REMARK    9  A    between atoms: P_17  and  O_18
REMARK   10  A    between atoms: P_17  and  O_19
REMARK   11  A    between atoms: N_22  and  C_23
REMARK   12  A    between atoms: C_23  and  C_24
REMARK                            x       y       z     vdW  Elec       q    Type
REMARK                         _______ _______ _______ _____ _____    ______ ____
ROOT
ATOM      1  C   UNL     1       7.499   3.744  25.920  0.00  0.00    +0.064 C 
ATOM      2  C   UNL     1       7.831   2.552  25.083  0.00  0.00    +0.021 A 
ATOM      3  N   UNL     1       8.401   2.689  23.829  0.00  0.00    -0.339 N 
ATOM      4  C   UNL     1       8.660   1.441  23.290  0.00  0.00    +0.050 A 
ATOM      5  C   UNL     1       9.304   1.064  22.103  0.00  0.00    +0.030 A 
ATOM      6  C   UNL     1       9.328  -0.293  21.759  0.00  0.00    +0.048 A 
ATOM      7  C   UNL     1       8.723  -1.248  22.569  0.00  0.00    +0.121 A 
ATOM      8  C   UNL     1       8.087  -0.857  23.753  0.00  0.00    +0.056 A 
ATOM      9  C   UNL     1       8.085   0.501  24.144  0.00  0.00    +0.007 A 
ATOM     10  C   UNL     1       7.631   1.193  25.316  0.00  0.00    -0.010 A 
ENDROOT
BRANCH   3  11
ATOM     11  C   UNL     1       8.711   3.959  23.162  0.00  0.00    +0.157 C 
BRANCH  11  12
ATOM     12  C   UNL     1       9.993   4.642  23.603  0.00  0.00    -0.028 A 
ATOM     13  C   UNL     1      11.213   4.082  23.181  0.00  0.00    +0.005 A 
ATOM     14  C   UNL     1      12.430   4.722  23.430  0.00  0.00    +0.000 A 
ATOM     15  C   UNL     1      12.450   5.930  24.122  0.00  0.00    +0.000 A 
ATOM     16  C   UNL     1      11.257   6.477  24.589  0.00  0.00    +0.000 A 
ATOM     17  C   UNL     1      10.037   5.836  24.338  0.00  0.00    +0.005 A 
ENDBRANCH  11  12
ENDBRANCH   3  11
BRANCH   7  18
ATOM     18  O   UNL     1       8.688  -2.595  22.312  0.00  0.00    -0.492 OA
BRANCH  18  19
ATOM     19  C   UNL     1       7.438  -3.243  22.549  0.00  0.00    +0.229 C 
BRANCH  19  20
ATOM     20  C   UNL     1       7.709  -4.640  23.092  0.00  0.00    +0.053 C 
BRANCH  20  21
ATOM     21  C   UNL     1       7.269  -4.807  24.542  0.00  0.00    +0.130 C 
BRANCH  21  22
ATOM     22  P   UNL     1       8.639  -4.700  25.687  0.00  0.00    +0.328 P 
ATOM     23  O   UNL     1       8.883  -3.337  26.236  0.00  0.00    -0.259 OA
BRANCH  22  24
ATOM     24  O   UNL     1       9.872  -5.355  24.897  0.00  0.00    -0.324 OA
ATOM     25  H   UNL     1      10.361  -6.050  25.372  0.00  0.00    +0.220 HD
ENDBRANCH  22  24
BRANCH  22  26
ATOM     26  O   UNL     1       8.312  -5.819  26.784  0.00  0.00    -0.324 OA
ATOM     27  H   UNL     1       7.827  -6.592  26.440  0.00  0.00    +0.220 HD
ENDBRANCH  22  26
ENDBRANCH  21  22
ENDBRANCH  20  21
ENDBRANCH  19  20
ENDBRANCH  18  19
ENDBRANCH   7  18
BRANCH  10  28
ATOM     28  C   UNL     1       6.983   0.557  26.522  0.00  0.00    +0.133 C 
BRANCH  28  29
ATOM     29  C   UNL     1       7.863   0.243  27.730  0.00  0.00    +0.215 C 
ATOM     30  O   UNL     1       7.547   0.617  28.864  0.00  0.00    -0.276 OA
ATOM     31  N   UNL     1       9.025  -0.436  27.570  0.00  0.00    -0.329 N 
ATOM     32  H   UNL     1       9.533  -0.679  28.408  0.00  0.00    +0.145 HD
ATOM     33  H   UNL     1       9.259  -0.920  26.714  0.00  0.00    +0.145 HD
ENDBRANCH  28  29
ENDBRANCH  10  28
TORSDOF 11
ENDMDL
MODEL 3
REMARK VINA RESULT:      -6.6      2.561      4.057
REMARK  Name = 
REMARK  12 active torsions:
REMARK  status: ('A' for Active; 'I' for Inactive)
REMARK    1  A    between atoms: C_1  and  C_2
REMARK    2  A    between atoms: C_3  and  C_4
REMARK    3  A    between atoms: C_4  and  C_5
REMARK    4  A    between atoms: C_12  and  O_13
REMARK    5  A    between atoms: O_13  and  C_14
REMARK    6  A    between atoms: C_14  and  C_15
REMARK    7  A    between atoms: C_15  and  C_16
REMARK    8  A    between atoms: C_16  and  P_17
REMARK    9  A    between atoms: P_17  and  O_18
REMARK   10  A    between atoms: P_17  and  O_19
REMARK   11  A    between atoms: N_22  and  C_23
REMARK   12  A    between atoms: C_23  and  C_24
REMARK                            x       y       z     vdW  Elec       q    Type
REMARK                         _______ _______ _______ _____ _____    ______ ____
ROOT
ATOM      1  C   UNL     1       8.781  -0.923  26.772  0.00  0.00    +0.064 C 
ATOM      2  C   UNL     1       7.987  -1.797  25.857  0.00  0.00    +0.021 A 
ATOM      3  N   UNL     1       8.506  -2.241  24.653  0.00  0.00    -0.339 N 
ATOM      4  C   UNL     1       7.596  -3.074  24.027  0.00  0.00    +0.050 A 
ATOM      5  C   UNL     1       7.697  -3.831  22.850  0.00  0.00    +0.030 A 
ATOM      6  C   UNL     1       6.560  -4.509  22.395  0.00  0.00    +0.048 A 
ATOM      7  C   UNL     1       5.355  -4.432  23.085  0.00  0.00    +0.121 A 
ATOM      8  C   UNL     1       5.271  -3.676  24.261  0.00  0.00    +0.056 A 
ATOM      9  C   UNL     1       6.415  -3.017  24.765  0.00  0.00    +0.007 A 
ATOM     10  C   UNL     1       6.682  -2.275  25.963  0.00  0.00    -0.010 A 
ENDROOT
BRANCH   3  11
ATOM     11  C   UNL     1       9.829  -1.905  24.115  0.00  0.00    +0.157 C 
BRANCH  11  12
ATOM     12  C   UNL     1       9.931  -0.572  23.393  0.00  0.00    -0.028 A 
ATOM     13  C   UNL     1       9.361  -0.476  22.111  0.00  0.00    +0.005 A 
ATOM     14  C   UNL     1       9.294   0.746  21.436  0.00  0.00    +0.000 A 
ATOM     15  C   UNL     1       9.812   1.895  22.028  0.00  0.00    +0.000 A 
ATOM     16  C   UNL     1      10.423   1.811  23.277  0.00  0.00    +0.000 A 
ATOM     17  C   UNL     1      10.488   0.586  23.954  0.00  0.00    +0.005 A 
ENDBRANCH  11  12
ENDBRANCH   3  11
BRANCH   7  18
ATOM     18  O   UNL     1       4.190  -5.053  22.714  0.00  0.00    -0.492 OA
BRANCH  18  19
ATOM     19  C   UNL     1       3.469  -5.705  23.760  0.00  0.00    +0.229 C 
BRANCH  19  20
ATOM     20  C   UNL     1       4.325  -6.837  24.310  0.00  0.00    +0.053 C 
BRANCH  20  21
ATOM     21  C   UNL     1       3.937  -7.237  25.729  0.00  0.00    +0.130 C 
BRANCH  21  22
ATOM     22  P   UNL     1       4.909  -6.386  26.967  0.00  0.00    +0.328 P 
ATOM     23  O   UNL     1       4.292  -5.131  27.484  0.00  0.00    -0.259 OA
BRANCH  22  24
ATOM     24  O   UNL     1       6.354  -6.216  26.294  0.00  0.00    -0.324 OA
ATOM     25  H   UNL     1       7.107  -6.556  26.809  0.00  0.00    +0.220 HD
ENDBRANCH  22  24
BRANCH  22  26
ATOM     26  O   UNL     1       5.185  -7.506  28.076  0.00  0.00    -0.324 OA
ATOM     27  H   UNL     1       5.809  -8.203  27.800  0.00  0.00    +0.220 HD
ENDBRANCH  22  26
ENDBRANCH  21  22
ENDBRANCH  20  21
ENDBRANCH  19  20
ENDBRANCH  18  19
ENDBRANCH   7  18
BRANCH  10  28
ATOM     28  C   UNL     1       5.695  -2.004  27.073  0.00  0.00    +0.133 C 
BRANCH  28  29
ATOM     29  C   UNL     1       4.320  -1.459  26.696  0.00  0.00    +0.215 C 
ATOM     30  O   UNL     1       4.203  -0.419  26.039  0.00  0.00    -0.276 OA
ATOM     31  N   UNL     1       3.196  -2.099  27.103  0.00  0.00    -0.329 N 
ATOM     32  H   UNL     1       2.316  -1.737  26.768  0.00  0.00    +0.145 HD
ATOM     33  H   UNL     1       3.212  -3.034  27.487  0.00  0.00    +0.145 HD
ENDBRANCH  28  29
ENDBRANCH  10  28
TORSDOF 11
ENDMDL
MODEL 4
REMARK VINA RESULT:      -6.5      5.501      8.445
REMARK  Name = 
REMARK  12 active torsions:
REMARK  status: ('A' for Active; 'I' for Inactive)
REMARK    1  A    between atoms: C_1  and  C_2
REMARK    2  A    between atoms: C_3  and  C_4
REMARK    3  A    between atoms: C_4  and  C_5
REMARK    4  A    between atoms: C_12  and  O_13
REMARK    5  A    between atoms: O_13  and  C_14
REMARK    6  A    between atoms: C_14  and  C_15
REMARK    7  A    between atoms: C_15  and  C_16
REMARK    8  A    between atoms: C_16  and  P_17
REMARK    9  A    between atoms: P_17  and  O_18
REMARK   10  A    between atoms: P_17  and  O_19
REMARK   11  A    between atoms: N_22  and  C_23
REMARK   12  A    between atoms: C_23  and  C_24
REMARK                            x       y       z     vdW  Elec       q    Type
REMARK                         _______ _______ _______ _____ _____    ______ ____
ROOT
ATOM      1  C   UNL     1      10.114  -2.620  23.777  0.00  0.00    +0.064 C 
ATOM      2  C   UNL     1       9.048  -1.617  24.074  0.00  0.00    +0.021 A 
ATOM      3  N   UNL     1       7.810  -2.003  24.558  0.00  0.00    -0.339 N 
ATOM      4  C   UNL     1       7.030  -0.886  24.802  0.00  0.00    +0.050 A 
ATOM      5  C   UNL     1       5.756  -0.757  25.374  0.00  0.00    +0.030 A 
ATOM      6  C   UNL     1       5.161   0.510  25.397  0.00  0.00    +0.048 A 
ATOM      7  C   UNL     1       5.811   1.617  24.861  0.00  0.00    +0.121 A 
ATOM      8  C   UNL     1       7.084   1.473  24.297  0.00  0.00    +0.056 A 
ATOM      9  C   UNL     1       7.725   0.214  24.299  0.00  0.00    +0.007 A 
ATOM     10  C   UNL     1       9.032  -0.233  23.911  0.00  0.00    -0.010 A 
ENDROOT
BRANCH   3  11
ATOM     11  C   UNL     1       7.378  -3.383  24.803  0.00  0.00    +0.157 C 
BRANCH  11  12
ATOM     12  C   UNL     1       6.977  -4.180  23.573  0.00  0.00    -0.028 A 
ATOM     13  C   UNL     1       6.108  -3.569  22.652  0.00  0.00    +0.005 A 
ATOM     14  C   UNL     1       5.798  -4.178  21.432  0.00  0.00    +0.000 A 
ATOM     15  C   UNL     1       6.341  -5.422  21.121  0.00  0.00    +0.000 A 
ATOM     16  C   UNL     1       7.166  -6.064  22.041  0.00  0.00    +0.000 A 
ATOM     17  C   UNL     1       7.478  -5.452  23.261  0.00  0.00    +0.005 A 
ENDBRANCH  11  12
ENDBRANCH   3  11
BRANCH   7  18
ATOM     18  O   UNL     1       5.307   2.892  24.831  0.00  0.00    -0.492 OA
BRANCH  18  19
ATOM     19  C   UNL     1       4.306   3.145  23.845  0.00  0.00    +0.229 C 
BRANCH  19  20
ATOM     20  C   UNL     1       4.908   4.015  22.751  0.00  0.00    +0.053 C 
BRANCH  20  21
ATOM     21  C   UNL     1       5.923   5.019  23.285  0.00  0.00    +0.130 C 
BRANCH  21  22
ATOM     22  P   UNL     1       7.502   4.903  22.452  0.00  0.00    +0.328 P 
ATOM     23  O   UNL     1       8.681   4.855  23.362  0.00  0.00    -0.259 OA
BRANCH  22  24
ATOM     24  O   UNL     1       7.491   6.115  21.403  0.00  0.00    -0.324 OA
ATOM     25  H   UNL     1       7.164   5.904  20.510  0.00  0.00    +0.220 HD
ENDBRANCH  22  24
BRANCH  22  26
ATOM     26  O   UNL     1       7.338   3.630  21.495  0.00  0.00    -0.324 OA
ATOM     27  H   UNL     1       6.430   3.479  21.175  0.00  0.00    +0.220 HD
ENDBRANCH  22  26
ENDBRANCH  21  22
ENDBRANCH  20  21
ENDBRANCH  19  20
ENDBRANCH  18  19
ENDBRANCH   7  18
BRANCH  10  28
ATOM     28  C   UNL     1      10.133   0.636  23.353  0.00  0.00    +0.133 C 
BRANCH  28  29
ATOM     29  C   UNL     1       9.857   1.411  22.068  0.00  0.00    +0.215 C 
ATOM     30  O   UNL     1       9.111   0.956  21.195  0.00  0.00    -0.276 OA
ATOM     31  N   UNL     1      10.450   2.611  21.853  0.00  0.00    -0.329 N 
ATOM     32  H   UNL     1      10.179   3.114  21.021  0.00  0.00    +0.145 HD
ATOM     33  H   UNL     1      10.926   3.121  22.585  0.00  0.00    +0.145 HD
ENDBRANCH  28  29
ENDBRANCH  10  28
TORSDOF 11
ENDMDL
MODEL 5
REMARK VINA RESULT:      -6.5      5.562      8.568
REMARK  Name = 
REMARK  12 active torsions:
REMARK  status: ('A' for Active; 'I' for Inactive)
REMARK    1  A    between atoms: C_1  and  C_2
REMARK    2  A    between atoms: C_3  and  C_4
REMARK    3  A    between atoms: C_4  and  C_5
REMARK    4  A    between atoms: C_12  and  O_13
REMARK    5  A    between atoms: O_13  and  C_14
REMARK    6  A    between atoms: C_14  and  C_15
REMARK    7  A    between atoms: C_15  and  C_16
REMARK    8  A    between atoms: C_16  and  P_17
REMARK    9  A    between atoms: P_17  and  O_18
REMARK   10  A    between atoms: P_17  and  O_19
REMARK   11  A    between atoms: N_22  and  C_23
REMARK   12  A    between atoms: C_23  and  C_24
REMARK                            x       y       z     vdW  Elec       q    Type
REMARK                         _______ _______ _______ _____ _____    ______ ____
ROOT
ATOM      1  C   UNL     1      10.415  -1.851  22.992  0.00  0.00    +0.064 C 
ATOM      2  C   UNL     1       9.358  -0.998  23.614  0.00  0.00    +0.021 A 
ATOM      3  N   UNL     1       8.074  -1.474  23.816  0.00  0.00    -0.339 N 
ATOM      4  C   UNL     1       7.311  -0.513  24.455  0.00  0.00    +0.050 A 
ATOM      5  C   UNL     1       5.999  -0.556  24.949  0.00  0.00    +0.030 A 
ATOM      6  C   UNL     1       5.441   0.621  25.462  0.00  0.00    +0.048 A 
ATOM      7  C   UNL     1       6.164   1.809  25.478  0.00  0.00    +0.121 A 
ATOM      8  C   UNL     1       7.474   1.835  24.985  0.00  0.00    +0.056 A 
ATOM      9  C   UNL     1       8.075   0.652  24.501  0.00  0.00    +0.007 A 
ATOM     10  C   UNL     1       9.396   0.327  24.043  0.00  0.00    -0.010 A 
ENDROOT
BRANCH   3  11
ATOM     11  C   UNL     1       7.584  -2.804  23.436  0.00  0.00    +0.157 C 
BRANCH  11  12
ATOM     12  C   UNL     1       7.488  -3.821  24.560  0.00  0.00    -0.028 A 
ATOM     13  C   UNL     1       8.533  -3.858  25.500  0.00  0.00    +0.005 A 
ATOM     14  C   UNL     1       8.458  -4.669  26.637  0.00  0.00    +0.000 A 
ATOM     15  C   UNL     1       7.339  -5.472  26.843  0.00  0.00    +0.000 A 
ATOM     16  C   UNL     1       6.315  -5.484  25.899  0.00  0.00    +0.000 A 
ATOM     17  C   UNL     1       6.390  -4.670  24.762  0.00  0.00    +0.005 A 
ENDBRANCH  11  12
ENDBRANCH   3  11
BRANCH   7  18
ATOM     18  O   UNL     1       5.702   3.010  25.952  0.00  0.00    -0.492 OA
BRANCH  18  19
ATOM     19  C   UNL     1       4.945   3.795  25.030  0.00  0.00    +0.229 C 
BRANCH  19  20
ATOM     20  C   UNL     1       5.705   5.083  24.747  0.00  0.00    +0.053 C 
BRANCH  20  21
ATOM     21  C   UNL     1       5.741   5.436  23.265  0.00  0.00    +0.130 C 
BRANCH  21  22
ATOM     22  P   UNL     1       7.263   4.923  22.478  0.00  0.00    +0.328 P 
ATOM     23  O   UNL     1       7.244   3.534  21.937  0.00  0.00    -0.259 OA
BRANCH  22  24
ATOM     24  O   UNL     1       8.398   5.221  23.570  0.00  0.00    -0.324 OA
ATOM     25  H   UNL     1       9.078   5.868  23.312  0.00  0.00    +0.220 HD
ENDBRANCH  22  24
BRANCH  22  26
ATOM     26  O   UNL     1       7.536   6.064  21.389  0.00  0.00    -0.324 OA
ATOM     27  H   UNL     1       8.415   6.481  21.454  0.00  0.00    +0.220 HD
ENDBRANCH  22  26
ENDBRANCH  21  22
ENDBRANCH  20  21
ENDBRANCH  19  20
ENDBRANCH  18  19
ENDBRANCH   7  18
BRANCH  10  28
ATOM     28  C   UNL     1      10.564   1.281  23.967  0.00  0.00    +0.133 C 
BRANCH  28  29
ATOM     29  C   UNL     1      10.491   2.430  22.965  0.00  0.00    +0.215 C 
ATOM     30  O   UNL     1      10.870   3.566  23.268  0.00  0.00    -0.276 OA
ATOM     31  N   UNL     1       9.982   2.225  21.726  0.00  0.00    -0.329 N 
ATOM     32  H   UNL     1      10.022   2.999  21.080  0.00  0.00    +0.145 HD
ATOM     33  H   UNL     1       9.818   1.300  21.352  0.00  0.00    +0.145 HD
ENDBRANCH  28  29
ENDBRANCH  10  28
TORSDOF 11
ENDMDL
MODEL 6
REMARK VINA RESULT:      -6.5      4.623      8.343
REMARK  Name = 
REMARK  12 active torsions:
REMARK  status: ('A' for Active; 'I' for Inactive)
REMARK    1  A    between atoms: C_1  and  C_2
REMARK    2  A    between atoms: C_3  and  C_4
REMARK    3  A    between atoms: C_4  and  C_5
REMARK    4  A    between atoms: C_12  and  O_13
REMARK    5  A    between atoms: O_13  and  C_14
REMARK    6  A    between atoms: C_14  and  C_15
REMARK    7  A    between atoms: C_15  and  C_16
REMARK    8  A    between atoms: C_16  and  P_17
REMARK    9  A    between atoms: P_17  and  O_18
REMARK   10  A    between atoms: P_17  and  O_19
REMARK   11  A    between atoms: N_22  and  C_23
REMARK   12  A    between atoms: C_23  and  C_24
REMARK                            x       y       z     vdW  Elec       q    Type
REMARK                         _______ _______ _______ _____ _____    ______ ____
ROOT
ATOM      1  C   UNL     1       6.168  -3.360  27.091  0.00  0.00    +0.064 C 
ATOM      2  C   UNL     1       7.120  -2.631  26.200  0.00  0.00    +0.021 A 
ATOM      3  N   UNL     1       7.916  -3.305  25.290  0.00  0.00    -0.339 N 
ATOM      4  C   UNL     1       8.660  -2.400  24.553  0.00  0.00    +0.050 A 
ATOM      5  C   UNL     1       9.529  -2.587  23.469  0.00  0.00    +0.030 A 
ATOM      6  C   UNL     1      10.237  -1.481  22.984  0.00  0.00    +0.048 A 
ATOM      7  C   UNL     1      10.090  -0.225  23.564  0.00  0.00    +0.121 A 
ATOM      8  C   UNL     1       9.216  -0.054  24.644  0.00  0.00    +0.056 A 
ATOM      9  C   UNL     1       8.458  -1.145  25.126  0.00  0.00    +0.007 A 
ATOM     10  C   UNL     1       7.426  -1.275  26.114  0.00  0.00    -0.010 A 
ENDROOT
BRANCH   3  11
ATOM     11  C   UNL     1       7.964  -4.760  25.106  0.00  0.00    +0.157 C 
BRANCH  11  12
ATOM     12  C   UNL     1       7.173  -5.305  23.930  0.00  0.00    -0.028 A 
ATOM     13  C   UNL     1       5.779  -5.424  24.077  0.00  0.00    +0.005 A 
ATOM     14  C   UNL     1       4.964  -5.789  23.001  0.00  0.00    +0.000 A 
ATOM     15  C   UNL     1       5.535  -6.058  21.759  0.00  0.00    +0.000 A 
ATOM     16  C   UNL     1       6.917  -5.992  21.606  0.00  0.00    +0.000 A 
ATOM     17  C   UNL     1       7.733  -5.624  22.684  0.00  0.00    +0.005 A 
ENDBRANCH  11  12
ENDBRANCH   3  11
BRANCH   7  18
ATOM     18  O   UNL     1      10.744   0.912  23.165  0.00  0.00    -0.492 OA
BRANCH  18  19
ATOM     19  C   UNL     1      10.763   1.985  24.107  0.00  0.00    +0.229 C 
BRANCH  19  20
ATOM     20  C   UNL     1      10.575   3.296  23.355  0.00  0.00    +0.053 C 
BRANCH  20  21
ATOM     21  C   UNL     1       9.220   3.942  23.622  0.00  0.00    +0.130 C 
BRANCH  21  22
ATOM     22  P   UNL     1       7.914   3.216  22.639  0.00  0.00    +0.328 P 
ATOM     23  O   UNL     1       6.900   2.453  23.421  0.00  0.00    -0.259 OA
BRANCH  22  24
ATOM     24  O   UNL     1       8.682   2.380  21.507  0.00  0.00    -0.324 OA
ATOM     25  H   UNL     1       8.256   2.356  20.632  0.00  0.00    +0.220 HD
ENDBRANCH  22  24
BRANCH  22  26
ATOM     26  O   UNL     1       7.329   4.451  21.805  0.00  0.00    -0.324 OA
ATOM     27  H   UNL     1       7.115   4.246  20.876  0.00  0.00    +0.220 HD
ENDBRANCH  22  26
ENDBRANCH  21  22
ENDBRANCH  20  21
ENDBRANCH  19  20
ENDBRANCH  18  19
ENDBRANCH   7  18
BRANCH  10  28
ATOM     28  C   UNL     1       6.858  -0.153  26.950  0.00  0.00    +0.133 C 
BRANCH  28  29
ATOM     29  C   UNL     1       5.813   0.760  26.315  0.00  0.00    +0.215 C 
ATOM     30  O   UNL     1       4.860   0.295  25.680  0.00  0.00    -0.276 OA
ATOM     31  N   UNL     1       5.929   2.106  26.417  0.00  0.00    -0.329 N 
ATOM     32  H   UNL     1       5.175   2.662  26.041  0.00  0.00    +0.145 HD
ATOM     33  H   UNL     1       6.572   2.549  27.059  0.00  0.00    +0.145 HD
ENDBRANCH  28  29
ENDBRANCH  10  28
TORSDOF 11
ENDMDL
MODEL 7
REMARK VINA RESULT:      -6.5      3.741      6.123
REMARK  Name = 
REMARK  12 active torsions:
REMARK  status: ('A' for Active; 'I' for Inactive)
REMARK    1  A    between atoms: C_1  and  C_2
REMARK    2  A    between atoms: C_3  and  C_4
REMARK    3  A    between atoms: C_4  and  C_5
REMARK    4  A    between atoms: C_12  and  O_13
REMARK    5  A    between atoms: O_13  and  C_14
REMARK    6  A    between atoms: C_14  and  C_15
REMARK    7  A    between atoms: C_15  and  C_16
REMARK    8  A    between atoms: C_16  and  P_17
REMARK    9  A    between atoms: P_17  and  O_18
REMARK   10  A    between atoms: P_17  and  O_19
REMARK   11  A    between atoms: N_22  and  C_23
REMARK   12  A    between atoms: C_23  and  C_24
REMARK                            x       y       z     vdW  Elec       q    Type
REMARK                         _______ _______ _______ _____ _____    ______ ____
ROOT
ATOM      1  C   UNL     1       7.101   3.625  25.639  0.00  0.00    +0.064 C 
ATOM      2  C   UNL     1       7.772   2.373  25.177  0.00  0.00    +0.021 A 
ATOM      3  N   UNL     1       8.594   2.365  24.063  0.00  0.00    -0.339 N 
ATOM      4  C   UNL     1       9.132   1.102  23.884  0.00  0.00    +0.050 A 
ATOM      5  C   UNL     1      10.078   0.625  22.965  0.00  0.00    +0.030 A 
ATOM      6  C   UNL     1      10.358  -0.747  22.949  0.00  0.00    +0.048 A 
ATOM      7  C   UNL     1       9.712  -1.621  23.818  0.00  0.00    +0.121 A 
ATOM      8  C   UNL     1       8.773  -1.128  24.732  0.00  0.00    +0.056 A 
ATOM      9  C   UNL     1       8.503   0.257  24.797  0.00  0.00    +0.007 A 
ATOM     10  C   UNL     1       7.702   1.070  25.667  0.00  0.00    -0.010 A 
ENDROOT
BRANCH   3  11
ATOM     11  C   UNL     1       8.881   3.517  23.201  0.00  0.00    +0.157 C 
BRANCH  11  12
ATOM     12  C   UNL     1      10.010   4.423  23.662  0.00  0.00    -0.028 A 
ATOM     13  C   UNL     1      11.319   4.088  23.271  0.00  0.00    +0.005 A 
ATOM     14  C   UNL     1      12.396   4.938  23.538  0.00  0.00    +0.000 A 
ATOM     15  C   UNL     1      12.183   6.135  24.218  0.00  0.00    +0.000 A 
ATOM     16  C   UNL     1      10.901   6.461  24.655  0.00  0.00    +0.000 A 
ATOM     17  C   UNL     1       9.822   5.610  24.385  0.00  0.00    +0.005 A 
ENDBRANCH  11  12
ENDBRANCH   3  11
BRANCH   7  18
ATOM     18  O   UNL     1       9.913  -2.976  23.871  0.00  0.00    -0.492 OA
BRANCH  18  19
ATOM     19  C   UNL     1       9.122  -3.689  24.822  0.00  0.00    +0.229 C 
BRANCH  19  20
ATOM     20  C   UNL     1       8.170  -4.609  24.071  0.00  0.00    +0.053 C 
BRANCH  20  21
ATOM     21  C   UNL     1       6.707  -4.217  24.244  0.00  0.00    +0.130 C 
BRANCH  21  22
ATOM     22  P   UNL     1       6.062  -3.347  22.820  0.00  0.00    +0.328 P 
ATOM     23  O   UNL     1       4.918  -4.025  22.146  0.00  0.00    -0.259 OA
BRANCH  22  24
ATOM     24  O   UNL     1       7.345  -3.082  21.898  0.00  0.00    -0.324 OA
ATOM     25  H   UNL     1       7.222  -3.228  20.943  0.00  0.00    +0.220 HD
ENDBRANCH  22  24
BRANCH  22  26
ATOM     26  O   UNL     1       5.740  -1.881  23.378  0.00  0.00    -0.324 OA
ATOM     27  H   UNL     1       6.233  -1.639  24.184  0.00  0.00    +0.220 HD
ENDBRANCH  22  26
ENDBRANCH  21  22
ENDBRANCH  20  21
ENDBRANCH  19  20
ENDBRANCH  18  19
ENDBRANCH   7  18
BRANCH  10  28
ATOM     28  C   UNL     1       6.882   0.574  26.833  0.00  0.00    +0.133 C 
BRANCH  28  29
ATOM     29  C   UNL     1       5.380   0.390  26.629  0.00  0.00    +0.215 C 
ATOM     30  O   UNL     1       4.942  -0.389  25.776  0.00  0.00    -0.276 OA
ATOM     31  N   UNL     1       4.497   1.103  27.370  0.00  0.00    -0.329 N 
ATOM     32  H   UNL     1       3.518   0.893  27.247  0.00  0.00    +0.145 HD
ATOM     33  H   UNL     1       4.773   1.620  28.195  0.00  0.00    +0.145 HD
ENDBRANCH  28  29
ENDBRANCH  10  28
TORSDOF 11
ENDMDL
MODEL 8
REMARK VINA RESULT:      -6.4      2.975      3.809
REMARK  Name = 
REMARK  12 active torsions:
REMARK  status: ('A' for Active; 'I' for Inactive)
REMARK    1  A    between atoms: C_1  and  C_2
REMARK    2  A    between atoms: C_3  and  C_4
REMARK    3  A    between atoms: C_4  and  C_5
REMARK    4  A    between atoms: C_12  and  O_13
REMARK    5  A    between atoms: O_13  and  C_14
REMARK    6  A    between atoms: C_14  and  C_15
REMARK    7  A    between atoms: C_15  and  C_16
REMARK    8  A    between atoms: C_16  and  P_17
REMARK    9  A    between atoms: P_17  and  O_18
REMARK   10  A    between atoms: P_17  and  O_19
REMARK   11  A    between atoms: N_22  and  C_23
REMARK   12  A    between atoms: C_23  and  C_24
REMARK                            x       y       z     vdW  Elec       q    Type
REMARK                         _______ _______ _______ _____ _____    ______ ____
ROOT
ATOM      1  C   UNL     1       8.137  -2.486  22.120  0.00  0.00    +0.064 C 
ATOM      2  C   UNL     1       7.332  -2.365  23.372  0.00  0.00    +0.021 A 
ATOM      3  N   UNL     1       6.746  -1.165  23.740  0.00  0.00    -0.339 N 
ATOM      4  C   UNL     1       6.014  -1.335  24.902  0.00  0.00    +0.050 A 
ATOM      5  C   UNL     1       5.182  -0.452  25.605  0.00  0.00    +0.030 A 
ATOM      6  C   UNL     1       4.646  -0.873  26.828  0.00  0.00    +0.048 A 
ATOM      7  C   UNL     1       4.935  -2.133  27.342  0.00  0.00    +0.121 A 
ATOM      8  C   UNL     1       5.765  -3.004  26.627  0.00  0.00    +0.056 A 
ATOM      9  C   UNL     1       6.284  -2.621  25.370  0.00  0.00    +0.007 A 
ATOM     10  C   UNL     1       7.052  -3.300  24.366  0.00  0.00    -0.010 A 
ENDROOT
BRANCH   3  11
ATOM     11  C   UNL     1       6.857   0.102  23.009  0.00  0.00    +0.157 C 
BRANCH  11  12
ATOM     12  C   UNL     1       8.188   0.824  23.133  0.00  0.00    -0.028 A 
ATOM     13  C   UNL     1       8.781   0.888  24.406  0.00  0.00    +0.005 A 
ATOM     14  C   UNL     1      10.064   1.415  24.583  0.00  0.00    +0.000 A 
ATOM     15  C   UNL     1      10.770   1.903  23.487  0.00  0.00    +0.000 A 
ATOM     16  C   UNL     1      10.180   1.892  22.225  0.00  0.00    +0.000 A 
ATOM     17  C   UNL     1       8.896   1.362  22.049  0.00  0.00    +0.005 A 
ENDBRANCH  11  12
ENDBRANCH   3  11
BRANCH   7  18
ATOM     18  O   UNL     1       4.465  -2.628  28.531  0.00  0.00    -0.492 OA
BRANCH  18  19
ATOM     19  C   UNL     1       3.630  -3.783  28.440  0.00  0.00    +0.229 C 
BRANCH  19  20
ATOM     20  C   UNL     1       3.934  -4.697  29.619  0.00  0.00    +0.053 C 
BRANCH  20  21
ATOM     21  C   UNL     1       5.362  -5.231  29.601  0.00  0.00    +0.130 C 
BRANCH  21  22
ATOM     22  P   UNL     1       5.527  -6.703  28.597  0.00  0.00    +0.328 P 
ATOM     23  O   UNL     1       5.775  -6.441  27.151  0.00  0.00    -0.259 OA
BRANCH  22  24
ATOM     24  O   UNL     1       4.213  -7.561  28.925  0.00  0.00    -0.324 OA
ATOM     25  H   UNL     1       4.043  -7.736  29.868  0.00  0.00    +0.220 HD
ENDBRANCH  22  24
BRANCH  22  26
ATOM     26  O   UNL     1       6.671  -7.545  29.335  0.00  0.00    -0.324 OA
ATOM     27  H   UNL     1       6.360  -8.067  30.097  0.00  0.00    +0.220 HD
ENDBRANCH  22  26
ENDBRANCH  21  22
ENDBRANCH  20  21
ENDBRANCH  19  20
ENDBRANCH  18  19
ENDBRANCH   7  18
BRANCH  10  28
ATOM     28  C   UNL     1       7.527  -4.731  24.436  0.00  0.00    +0.133 C 
BRANCH  28  29
ATOM     29  C   UNL     1       8.760  -5.040  25.282  0.00  0.00    +0.215 C 
ATOM     30  O   UNL     1       9.892  -4.732  24.895  0.00  0.00    -0.276 OA
ATOM     31  N   UNL     1       8.632  -5.684  26.468  0.00  0.00    -0.329 N 
ATOM     32  H   UNL     1       9.469  -5.800  27.019  0.00  0.00    +0.145 HD
ATOM     33  H   UNL     1       7.739  -5.808  26.925  0.00  0.00    +0.145 HD
ENDBRANCH  28  29
ENDBRANCH  10  28
TORSDOF 11
ENDMDL
MODEL 9
REMARK VINA RESULT:      -6.3      4.152      6.819
REMARK  Name = 
REMARK  12 active torsions:
REMARK  status: ('A' for Active; 'I' for Inactive)
REMARK    1  A    between atoms: C_1  and  C_2
REMARK    2  A    between atoms: C_3  and  C_4
REMARK    3  A    between atoms: C_4  and  C_5
REMARK    4  A    between atoms: C_12  and  O_13
REMARK    5  A    between atoms: O_13  and  C_14
REMARK    6  A    between atoms: C_14  and  C_15
REMARK    7  A    between atoms: C_15  and  C_16
REMARK    8  A    between atoms: C_16  and  P_17
REMARK    9  A    between atoms: P_17  and  O_18
REMARK   10  A    between atoms: P_17  and  O_19
REMARK   11  A    between atoms: N_22  and  C_23
REMARK   12  A    between atoms: C_23  and  C_24
REMARK                            x       y       z     vdW  Elec       q    Type
REMARK                         _______ _______ _______ _____ _____    ______ ____
ROOT
ATOM      1  C   UNL     1       6.622   4.756  25.633  0.00  0.00    +0.064 C 
ATOM      2  C   UNL     1       7.370   3.486  25.389  0.00  0.00    +0.021 A 
ATOM      3  N   UNL     1       8.422   3.430  24.491  0.00  0.00    -0.339 N 
ATOM      4  C   UNL     1       8.977   2.163  24.493  0.00  0.00    +0.050 A 
ATOM      5  C   UNL     1      10.101   1.647  23.833  0.00  0.00    +0.030 A 
ATOM      6  C   UNL     1      10.367   0.277  23.941  0.00  0.00    +0.048 A 
ATOM      7  C   UNL     1       9.536  -0.559  24.680  0.00  0.00    +0.121 A 
ATOM      8  C   UNL     1       8.419  -0.028  25.337  0.00  0.00    +0.056 A 
ATOM      9  C   UNL     1       8.152   1.358  25.278  0.00  0.00    +0.007 A 
ATOM     10  C   UNL     1       7.182   2.207  25.909  0.00  0.00    -0.010 A 
ENDROOT
BRANCH   3  11
ATOM     11  C   UNL     1       8.904   4.544  23.665  0.00  0.00    +0.157 C 
BRANCH  11  12
ATOM     12  C   UNL     1      10.065   5.338  24.238  0.00  0.00    -0.028 A 
ATOM     13  C   UNL     1      11.338   5.135  23.675  0.00  0.00    +0.005 A 
ATOM     14  C   UNL     1      12.431   5.921  24.052  0.00  0.00    +0.000 A 
ATOM     15  C   UNL     1      12.272   6.915  25.014  0.00  0.00    +0.000 A 
ATOM     16  C   UNL     1      11.030   7.099  25.617  0.00  0.00    +0.000 A 
ATOM     17  C   UNL     1       9.935   6.313  25.237  0.00  0.00    +0.005 A 
ENDBRANCH  11  12
ENDBRANCH   3  11
BRANCH   7  18
ATOM     18  O   UNL     1       9.710  -1.910  24.837  0.00  0.00    -0.492 OA
BRANCH  18  19
ATOM     19  C   UNL     1       9.466  -2.710  23.681  0.00  0.00    +0.229 C 
BRANCH  19  20
ATOM     20  C   UNL     1       8.198  -3.521  23.908  0.00  0.00    +0.053 C 
BRANCH  20  21
ATOM     21  C   UNL     1       8.469  -4.875  24.556  0.00  0.00    +0.130 C 
BRANCH  21  22
ATOM     22  P   UNL     1       8.094  -4.881  26.304  0.00  0.00    +0.328 P 
ATOM     23  O   UNL     1       7.201  -5.992  26.742  0.00  0.00    -0.259 OA
BRANCH  22  24
ATOM     24  O   UNL     1       7.551  -3.403  26.603  0.00  0.00    -0.324 OA
ATOM     25  H   UNL     1       8.230  -2.723  26.763  0.00  0.00    +0.220 HD
ENDBRANCH  22  24
BRANCH  22  26
ATOM     26  O   UNL     1       9.533  -4.859  27.006  0.00  0.00    -0.324 OA
ATOM     27  H   UNL     1      10.223  -5.353  26.527  0.00  0.00    +0.220 HD
ENDBRANCH  22  26
ENDBRANCH  21  22
ENDBRANCH  20  21
ENDBRANCH  19  20
ENDBRANCH  18  19
ENDBRANCH   7  18
BRANCH  10  28
ATOM     28  C   UNL     1       6.117   1.761  26.880  0.00  0.00    +0.133 C 
BRANCH  28  29
ATOM     29  C   UNL     1       4.797   1.244  26.314  0.00  0.00    +0.215 C 
ATOM     30  O   UNL     1       4.759   0.236  25.602  0.00  0.00    -0.276 OA
ATOM     31  N   UNL     1       3.640   1.905  26.565  0.00  0.00    -0.329 N 
ATOM     32  H   UNL     1       2.788   1.482  26.227  0.00  0.00    +0.145 HD
ATOM     33  H   UNL     1       3.567   2.624  27.272  0.00  0.00    +0.145 HD
ENDBRANCH  28  29
ENDBRANCH  10  28
TORSDOF 11
ENDMDL
