MODEL 1
REMARK VINA RESULT:      -5.7      0.000      0.000
REMARK  Name = 
REMARK  5 active torsions:
REMARK  status: ('A' for Active; 'I' for Inactive)
REMARK    1  A    between atoms: N_6  and  C1*_9
REMARK    2  A    between atoms: C4*_12  and  C5*_14
REMARK    3  A    between atoms: C5*_14  and  O5*_15
REMARK    4  A    between atoms: C3*_16  and  O3*_18
REMARK    5  A    between atoms: C2*_19  and  O2*_21
REMARK                            x       y       z     vdW  Elec       q    Type
REMARK                         _______ _______ _______ _____ _____    ______ ____
ROOT
ATOM      1  C1* UNL     1       8.181  -1.175  24.343  0.00  0.00    +0.256 C 
ATOM      2  C2* UNL     1       9.585  -0.854  24.908  0.00  0.00    +0.195 C 
ATOM      3  C3* UNL     1      10.301  -0.085  23.795  0.00  0.00    +0.178 C 
ATOM      4  C4* UNL     1       9.219   0.212  22.765  0.00  0.00    +0.177 C 
ATOM      5  O4* UNL     1       7.951  -0.109  23.391  0.00  0.00    -0.346 OA
ENDROOT
BRANCH   1  12
ATOM      6  N   UNL     1       7.033  -5.700  21.594  0.00  0.00    -0.327 N 
ATOM      7  H   UNL     1       6.092  -5.752  21.227  0.00  0.00    +0.145 HD
ATOM      8  H   UNL     1       7.399  -6.574  21.947  0.00  0.00    +0.145 HD
ATOM      9  C   UNL     1       7.240  -4.652  22.423  0.00  0.00    +0.218 A 
ATOM     10  N   UNL     1       6.435  -3.572  22.263  0.00  0.00    -0.205 NA
ATOM     11  C   UNL     1       6.816  -2.499  22.854  0.00  0.00    +0.209 A 
ATOM     12  N   UNL     1       7.924  -2.420  23.644  0.00  0.00    -0.253 N 
ATOM     13  C   UNL     1       8.334  -3.628  24.132  0.00  0.00    +0.355 A 
ATOM     14  O   UNL     1       8.828  -3.740  25.246  0.00  0.00    -0.244 OA
ATOM     15  N   UNL     1       8.155  -4.715  23.324  0.00  0.00    -0.159 NA
ENDBRANCH   1  12
BRANCH   2  16
ATOM     16  O2* UNL     1       9.486  -0.002  26.074  0.00  0.00    -0.385 OA
ATOM     17  H2* UNL     1      10.136   0.719  25.998  0.00  0.00    +0.210 HD
ENDBRANCH   2  16
BRANCH   3  18
ATOM     18  O3* UNL     1      10.877   1.143  24.252  0.00  0.00    -0.386 OA
ATOM     19  H3* UNL     1      11.690   0.916  24.744  0.00  0.00    +0.210 HD
ENDBRANCH   3  18
BRANCH   4  20
ATOM     20  C5* UNL     1       9.425  -0.623  21.491  0.00  0.00    +0.190 C 
BRANCH  20  21
ATOM     21  O5* UNL     1      10.486  -1.554  21.669  0.00  0.00    -0.392 OA
ATOM     22  H5* UNL     1      10.308  -2.309  21.080  0.00  0.00    +0.210 HD
ENDBRANCH  20  21
ENDBRANCH   4  20
TORSDOF 5
ENDMDL
MODEL 2
REMARK VINA RESULT:      -5.7      2.420      4.926
REMARK  Name = 
REMARK  5 active torsions:
REMARK  status: ('A' for Active; 'I' for Inactive)
REMARK    1  A    between atoms: N_6  and  C1*_9
REMARK    2  A    between atoms: C4*_12  and  C5*_14
REMARK    3  A    between atoms: C5*_14  and  O5*_15
REMARK    4  A    between atoms: C3*_16  and  O3*_18
REMARK    5  A    between atoms: C2*_19  and  O2*_21
REMARK                            x       y       z     vdW  Elec       q    Type
REMARK                         _______ _______ _______ _____ _____    ______ ____
ROOT
ATOM      1  C1* UNL     1       8.313  -4.557  24.346  0.00  0.00    +0.256 C 
ATOM      2  C2* UNL     1       9.043  -4.866  25.673  0.00  0.00    +0.195 C 
ATOM      3  C3* UNL     1       7.944  -4.909  26.738  0.00  0.00    +0.178 C 
ATOM      4  C4* UNL     1       6.638  -4.873  25.954  0.00  0.00    +0.177 C 
ATOM      5  O4* UNL     1       6.984  -5.088  24.563  0.00  0.00    -0.346 OA
ENDROOT
BRANCH   1  12
ATOM      6  N   UNL     1       7.441   0.480  22.553  0.00  0.00    -0.327 N 
ATOM      7  H   UNL     1       6.742   0.562  21.825  0.00  0.00    +0.145 HD
ATOM      8  H   UNL     1       8.241   1.088  22.442  0.00  0.00    +0.145 HD
ATOM      9  C   UNL     1       7.768  -0.796  22.855  0.00  0.00    +0.218 A 
ATOM     10  N   UNL     1       6.838  -1.749  22.596  0.00  0.00    -0.205 NA
ATOM     11  C   UNL     1       7.046  -2.894  23.136  0.00  0.00    +0.209 A 
ATOM     12  N   UNL     1       8.144  -3.191  23.886  0.00  0.00    -0.253 N 
ATOM     13  C   UNL     1       9.207  -2.366  23.649  0.00  0.00    +0.355 A 
ATOM     14  O   UNL     1      10.361  -2.772  23.689  0.00  0.00    -0.244 OA
ATOM     15  N   UNL     1       8.925  -1.063  23.349  0.00  0.00    -0.159 NA
ENDBRANCH   1  12
BRANCH   2  16
ATOM     16  O2* UNL     1       9.687  -6.161  25.615  0.00  0.00    -0.385 OA
ATOM     17  H2* UNL     1       9.183  -6.741  25.016  0.00  0.00    +0.210 HD
ENDBRANCH   2  16
BRANCH   3  18
ATOM     18  O3* UNL     1       7.991  -6.096  27.536  0.00  0.00    -0.386 OA
ATOM     19  H3* UNL     1       7.091  -6.476  27.543  0.00  0.00    +0.210 HD
ENDBRANCH   3  18
BRANCH   4  20
ATOM     20  C5* UNL     1       5.922  -3.525  26.137  0.00  0.00    +0.190 C 
BRANCH  20  21
ATOM     21  O5* UNL     1       6.702  -2.648  26.942  0.00  0.00    -0.392 OA
ATOM     22  H5* UNL     1       6.481  -2.837  27.871  0.00  0.00    +0.210 HD
ENDBRANCH  20  21
ENDBRANCH   4  20
TORSDOF 5
ENDMDL
MODEL 3
REMARK VINA RESULT:      -5.6      2.832      5.120
REMARK  Name = 
REMARK  5 active torsions:
REMARK  status: ('A' for Active; 'I' for Inactive)
REMARK    1  A    between atoms: N_6  and  C1*_9
REMARK    2  A    between atoms: C4*_12  and  C5*_14
REMARK    3  A    between atoms: C5*_14  and  O5*_15
REMARK    4  A    between atoms: C3*_16  and  O3*_18
REMARK    5  A    between atoms: C2*_19  and  O2*_21
REMARK                            x       y       z     vdW  Elec       q    Type
REMARK                         _______ _______ _______ _____ _____    ______ ____
ROOT
ATOM      1  C1* UNL     1       9.715  -1.565  23.063  0.00  0.00    +0.256 C 
ATOM      2  C2* UNL     1       9.397  -2.416  24.315  0.00  0.00    +0.195 C 
ATOM      3  C3* UNL     1       7.885  -2.646  24.272  0.00  0.00    +0.178 C 
ATOM      4  C4* UNL     1       7.451  -2.144  22.900  0.00  0.00    +0.177 C 
ATOM      5  O4* UNL     1       8.663  -1.924  22.136  0.00  0.00    -0.346 OA
ENDROOT
BRANCH   1  12
ATOM      6  N   UNL     1       9.766   3.852  23.050  0.00  0.00    -0.327 N 
ATOM      7  H   UNL     1      10.108   4.276  22.197  0.00  0.00    +0.145 HD
ATOM      8  H   UNL     1      10.044   4.325  23.899  0.00  0.00    +0.145 HD
ATOM      9  C   UNL     1       9.930   2.511  23.098  0.00  0.00    +0.218 A 
ATOM     10  N   UNL     1      10.008   1.857  21.912  0.00  0.00    -0.205 NA
ATOM     11  C   UNL     1       9.884   0.581  21.969  0.00  0.00    +0.209 A 
ATOM     12  N   UNL     1       9.734  -0.116  23.130  0.00  0.00    -0.253 N 
ATOM     13  C   UNL     1      10.178   0.557  24.232  0.00  0.00    +0.355 A 
ATOM     14  O   UNL     1      10.703  -0.021  25.174  0.00  0.00    -0.244 OA
ATOM     15  N   UNL     1      10.023   1.915  24.234  0.00  0.00    -0.159 NA
ENDBRANCH   1  12
BRANCH   2  16
ATOM     16  O2* UNL     1      10.066  -3.698  24.247  0.00  0.00    -0.385 OA
ATOM     17  H2* UNL     1       9.403  -4.408  24.325  0.00  0.00    +0.210 HD
ENDBRANCH   2  16
BRANCH   3  18
ATOM     18  O3* UNL     1       7.529  -4.026  24.410  0.00  0.00    -0.386 OA
ATOM     19  H3* UNL     1       8.234  -4.550  23.984  0.00  0.00    +0.210 HD
ENDBRANCH   3  18
BRANCH   4  20
ATOM     20  C5* UNL     1       6.639  -0.844  23.021  0.00  0.00    +0.190 C 
BRANCH  20  21
ATOM     21  O5* UNL     1       5.673  -0.950  24.060  0.00  0.00    -0.392 OA
ATOM     22  H5* UNL     1       4.803  -0.767  23.664  0.00  0.00    +0.210 HD
ENDBRANCH  20  21
ENDBRANCH   4  20
TORSDOF 5
ENDMDL
MODEL 4
REMARK VINA RESULT:      -5.6      2.020      3.560
REMARK  Name = 
REMARK  5 active torsions:
REMARK  status: ('A' for Active; 'I' for Inactive)
REMARK    1  A    between atoms: N_6  and  C1*_9
REMARK    2  A    between atoms: C4*_12  and  C5*_14
REMARK    3  A    between atoms: C5*_14  and  O5*_15
REMARK    4  A    between atoms: C3*_16  and  O3*_18
REMARK    5  A    between atoms: C2*_19  and  O2*_21
REMARK                            x       y       z     vdW  Elec       q    Type
REMARK                         _______ _______ _______ _____ _____    ______ ____
ROOT
ATOM      1  C1* UNL     1       9.733   0.689  23.203  0.00  0.00    +0.256 C 
ATOM      2  C2* UNL     1       9.377   1.549  21.969  0.00  0.00    +0.195 C 
ATOM      3  C3* UNL     1       8.130   2.339  22.374  0.00  0.00    +0.178 C 
ATOM      4  C4* UNL     1       7.978   2.091  23.870  0.00  0.00    +0.177 C 
ATOM      5  O4* UNL     1       9.205   1.456  24.311  0.00  0.00    -0.346 OA
ENDROOT
BRANCH   1  12
ATOM      6  N   UNL     1       7.880  -4.339  23.999  0.00  0.00    -0.327 N 
ATOM      7  H   UNL     1       8.319  -4.843  24.758  0.00  0.00    +0.145 HD
ATOM      8  H   UNL     1       7.669  -4.900  23.184  0.00  0.00    +0.145 HD
ATOM      9  C   UNL     1       8.478  -3.163  23.706  0.00  0.00    +0.218 A 
ATOM     10  N   UNL     1       9.177  -2.562  24.701  0.00  0.00    -0.205 NA
ATOM     11  C   UNL     1       9.497  -1.337  24.498  0.00  0.00    +0.209 A 
ATOM     12  N   UNL     1       9.218  -0.660  23.349  0.00  0.00    -0.253 N 
ATOM     13  C   UNL     1       8.996  -1.474  22.275  0.00  0.00    +0.355 A 
ATOM     14  O   UNL     1       9.338  -1.159  21.143  0.00  0.00    -0.244 OA
ATOM     15  N   UNL     1       8.384  -2.671  22.521  0.00  0.00    -0.159 NA
ENDBRANCH   1  12
BRANCH   2  16
ATOM     16  O2* UNL     1      10.442   2.482  21.668  0.00  0.00    -0.385 OA
ATOM     17  H2* UNL     1      10.794   2.289  20.781  0.00  0.00    +0.210 HD
ENDBRANCH   2  16
BRANCH   3  18
ATOM     18  O3* UNL     1       8.261   3.744  22.132  0.00  0.00    -0.386 OA
ATOM     19  H3* UNL     1       7.841   4.207  22.883  0.00  0.00    +0.210 HD
ENDBRANCH   3  18
BRANCH   4  20
ATOM     20  C5* UNL     1       6.764   1.195  24.160  0.00  0.00    +0.190 C 
BRANCH  20  21
ATOM     21  O5* UNL     1       6.109   0.831  22.951  0.00  0.00    -0.392 OA
ATOM     22  H5* UNL     1       6.666   1.143  22.216  0.00  0.00    +0.210 HD
ENDBRANCH  20  21
ENDBRANCH   4  20
TORSDOF 5
ENDMDL
MODEL 5
REMARK VINA RESULT:      -5.6      2.038      2.756
REMARK  Name = 
REMARK  5 active torsions:
REMARK  status: ('A' for Active; 'I' for Inactive)
REMARK    1  A    between atoms: N_6  and  C1*_9
REMARK    2  A    between atoms: C4*_12  and  C5*_14
REMARK    3  A    between atoms: C5*_14  and  O5*_15
REMARK    4  A    between atoms: C3*_16  and  O3*_18
REMARK    5  A    between atoms: C2*_19  and  O2*_21
REMARK                            x       y       z     vdW  Elec       q    Type
REMARK                         _______ _______ _______ _____ _____    ______ ____
ROOT
ATOM      1  C1* UNL     1       6.917  -1.770  23.895  0.00  0.00    +0.256 C 
ATOM      2  C2* UNL     1       6.846  -0.356  24.517  0.00  0.00    +0.195 C 
ATOM      3  C3* UNL     1       7.877   0.474  23.748  0.00  0.00    +0.178 C 
ATOM      4  C4* UNL     1       8.302  -0.410  22.582  0.00  0.00    +0.177 C 
ATOM      5  O4* UNL     1       7.370  -1.520  22.543  0.00  0.00    -0.346 OA
ENDROOT
BRANCH   1  12
ATOM      6  N   UNL     1      10.200  -5.676  25.716  0.00  0.00    -0.327 N 
ATOM      7  H   UNL     1      10.162  -6.545  25.198  0.00  0.00    +0.145 HD
ATOM      8  H   UNL     1      10.299  -5.783  26.716  0.00  0.00    +0.145 HD
ATOM      9  C   UNL     1       9.249  -4.784  25.357  0.00  0.00    +0.218 A 
ATOM     10  N   UNL     1       8.748  -4.889  24.101  0.00  0.00    -0.205 NA
ATOM     11  C   UNL     1       8.065  -3.885  23.687  0.00  0.00    +0.209 A 
ATOM     12  N   UNL     1       7.794  -2.786  24.446  0.00  0.00    -0.253 N 
ATOM     13  C   UNL     1       7.892  -3.013  25.789  0.00  0.00    +0.355 A 
ATOM     14  O   UNL     1       7.153  -2.460  26.593  0.00  0.00    -0.244 OA
ATOM     15  N   UNL     1       8.847  -3.900  26.200  0.00  0.00    -0.159 NA
ENDBRANCH   1  12
BRANCH   2  16
ATOM     16  O2* UNL     1       5.536   0.227  24.318  0.00  0.00    -0.385 OA
ATOM     17  H2* UNL     1       4.860  -0.466  24.420  0.00  0.00    +0.210 HD
ENDBRANCH   2  16
BRANCH   3  18
ATOM     18  O3* UNL     1       7.337   1.701  23.246  0.00  0.00    -0.386 OA
ATOM     19  H3* UNL     1       7.074   2.239  24.018  0.00  0.00    +0.210 HD
ENDBRANCH   3  18
BRANCH   4  20
ATOM     20  C5* UNL     1       9.743  -0.913  22.769  0.00  0.00    +0.190 C 
BRANCH  20  21
ATOM     21  O5* UNL     1      10.186  -1.608  21.608  0.00  0.00    -0.392 OA
ATOM     22  H5* UNL     1       9.535  -1.436  20.905  0.00  0.00    +0.210 HD
ENDBRANCH  20  21
ENDBRANCH   4  20
TORSDOF 5
ENDMDL
MODEL 6
REMARK VINA RESULT:      -5.6      2.416      4.640
REMARK  Name = 
REMARK  5 active torsions:
REMARK  status: ('A' for Active; 'I' for Inactive)
REMARK    1  A    between atoms: N_6  and  C1*_9
REMARK    2  A    between atoms: C4*_12  and  C5*_14
REMARK    3  A    between atoms: C5*_14  and  O5*_15
REMARK    4  A    between atoms: C3*_16  and  O3*_18
REMARK    5  A    between atoms: C2*_19  and  O2*_21
REMARK                            x       y       z     vdW  Elec       q    Type
REMARK                         _______ _______ _______ _____ _____    ______ ____
ROOT
ATOM      1  C1* UNL     1       8.266  -2.590  23.777  0.00  0.00    +0.256 C 
ATOM      2  C2* UNL     1       9.224  -3.514  24.565  0.00  0.00    +0.195 C 
ATOM      3  C3* UNL     1       9.055  -3.111  26.032  0.00  0.00    +0.178 C 
ATOM      4  C4* UNL     1       7.855  -2.172  26.046  0.00  0.00    +0.177 C 
ATOM      5  O4* UNL     1       7.232  -2.277  24.741  0.00  0.00    -0.346 OA
ENDROOT
BRANCH   1  12
ATOM      6  N   UNL     1       9.733   2.216  21.752  0.00  0.00    -0.327 N 
ATOM      7  H   UNL     1       9.014   2.697  21.226  0.00  0.00    +0.145 HD
ATOM      8  H   UNL     1      10.666   2.305  21.373  0.00  0.00    +0.145 HD
ATOM      9  C   UNL     1       9.405   0.949  22.091  0.00  0.00    +0.218 A 
ATOM     10  N   UNL     1       8.083   0.659  22.185  0.00  0.00    -0.205 NA
ATOM     11  C   UNL     1       7.794  -0.446  22.770  0.00  0.00    +0.209 A 
ATOM     12  N   UNL     1       8.726  -1.325  23.235  0.00  0.00    -0.253 N 
ATOM     13  C   UNL     1       9.949  -1.187  22.644  0.00  0.00    +0.355 A 
ATOM     14  O   UNL     1      10.673  -2.150  22.425  0.00  0.00    -0.244 OA
ATOM     15  N   UNL     1      10.329   0.077  22.292  0.00  0.00    -0.159 NA
ENDBRANCH   1  12
BRANCH   2  16
ATOM     16  O2* UNL     1       8.838  -4.901  24.415  0.00  0.00    -0.385 OA
ATOM     17  H2* UNL     1       9.638  -5.443  24.298  0.00  0.00    +0.210 HD
ENDBRANCH   2  16
BRANCH   3  18
ATOM     18  O3* UNL     1       8.797  -4.230  26.888  0.00  0.00    -0.386 OA
ATOM     19  H3* UNL     1       7.828  -4.342  26.933  0.00  0.00    +0.210 HD
ENDBRANCH   3  18
BRANCH   4  20
ATOM     20  C5* UNL     1       8.290  -0.726  26.329  0.00  0.00    +0.190 C 
BRANCH  20  21
ATOM     21  O5* UNL     1       9.162  -0.675  27.452  0.00  0.00    -0.392 OA
ATOM     22  H5* UNL     1       8.609  -0.520  28.239  0.00  0.00    +0.210 HD
ENDBRANCH  20  21
ENDBRANCH   4  20
TORSDOF 5
ENDMDL
MODEL 7
REMARK VINA RESULT:      -5.6      2.376      4.676
REMARK  Name = 
REMARK  5 active torsions:
REMARK  status: ('A' for Active; 'I' for Inactive)
REMARK    1  A    between atoms: N_6  and  C1*_9
REMARK    2  A    between atoms: C4*_12  and  C5*_14
REMARK    3  A    between atoms: C5*_14  and  O5*_15
REMARK    4  A    between atoms: C3*_16  and  O3*_18
REMARK    5  A    between atoms: C2*_19  and  O2*_21
REMARK                            x       y       z     vdW  Elec       q    Type
REMARK                         _______ _______ _______ _____ _____    ______ ____
ROOT
ATOM      1  C1* UNL     1       9.216  -2.812  24.137  0.00  0.00    +0.256 C 
ATOM      2  C2* UNL     1       8.363  -3.008  25.412  0.00  0.00    +0.195 C 
ATOM      3  C3* UNL     1       6.992  -3.469  24.913  0.00  0.00    +0.178 C 
ATOM      4  C4* UNL     1       7.190  -3.751  23.428  0.00  0.00    +0.177 C 
ATOM      5  O4* UNL     1       8.620  -3.729  23.190  0.00  0.00    -0.346 OA
ENDROOT
BRANCH   1  12
ATOM      6  N   UNL     1       9.519   1.880  21.446  0.00  0.00    -0.327 N 
ATOM      7  H   UNL     1      10.044   1.846  20.581  0.00  0.00    +0.145 HD
ATOM      8  H   UNL     1       9.644   2.727  21.984  0.00  0.00    +0.145 HD
ATOM      9  C   UNL     1       9.608   0.752  22.184  0.00  0.00    +0.218 A 
ATOM     10  N   UNL     1       9.890  -0.398  21.522  0.00  0.00    -0.205 NA
ATOM     11  C   UNL     1       9.698  -1.483  22.178  0.00  0.00    +0.209 A 
ATOM     12  N   UNL     1       9.288  -1.521  23.477  0.00  0.00    -0.253 N 
ATOM     13  C   UNL     1       9.535  -0.366  24.162  0.00  0.00    +0.355 A 
ATOM     14  O   UNL     1       9.835  -0.370  25.349  0.00  0.00    -0.244 OA
ATOM     15  N   UNL     1       9.446   0.802  23.459  0.00  0.00    -0.159 NA
ENDBRANCH   1  12
BRANCH   2  16
ATOM     16  O2* UNL     1       8.926  -4.045  26.251  0.00  0.00    -0.385 OA
ATOM     17  H2* UNL     1       9.536  -3.639  26.893  0.00  0.00    +0.210 HD
ENDBRANCH   2  16
BRANCH   3  18
ATOM     18  O3* UNL     1       6.533  -4.656  25.568  0.00  0.00    -0.386 OA
ATOM     19  H3* UNL     1       6.560  -4.484  26.530  0.00  0.00    +0.210 HD
ENDBRANCH   3  18
BRANCH   4  20
ATOM     20  C5* UNL     1       6.476  -2.697  22.567  0.00  0.00    +0.190 C 
BRANCH  20  21
ATOM     21  O5* UNL     1       5.415  -3.290  21.826  0.00  0.00    -0.392 OA
ATOM     22  H5* UNL     1       4.611  -2.774  22.011  0.00  0.00    +0.210 HD
ENDBRANCH  20  21
ENDBRANCH   4  20
TORSDOF 5
ENDMDL
MODEL 8
REMARK VINA RESULT:      -5.5      3.035      5.290
REMARK  Name = 
REMARK  5 active torsions:
REMARK  status: ('A' for Active; 'I' for Inactive)
REMARK    1  A    between atoms: N_6  and  C1*_9
REMARK    2  A    between atoms: C4*_12  and  C5*_14
REMARK    3  A    between atoms: C5*_14  and  O5*_15
REMARK    4  A    between atoms: C3*_16  and  O3*_18
REMARK    5  A    between atoms: C2*_19  and  O2*_21
REMARK                            x       y       z     vdW  Elec       q    Type
REMARK                         _______ _______ _______ _____ _____    ______ ____
ROOT
ATOM      1  C1* UNL     1       7.559  -0.671  23.880  0.00  0.00    +0.256 C 
ATOM      2  C2* UNL     1       6.916  -1.489  22.736  0.00  0.00    +0.195 C 
ATOM      3  C3* UNL     1       7.948  -2.561  22.379  0.00  0.00    +0.178 C 
ATOM      4  C4* UNL     1       9.003  -2.470  23.475  0.00  0.00    +0.177 C 
ATOM      5  O4* UNL     1       8.452  -1.619  24.511  0.00  0.00    -0.346 OA
ENDROOT
BRANCH   1  12
ATOM      6  N   UNL     1      10.623   3.721  23.056  0.00  0.00    -0.327 N 
ATOM      7  H   UNL     1      11.012   4.135  23.893  0.00  0.00    +0.145 HD
ATOM      8  H   UNL     1      10.320   4.384  22.356  0.00  0.00    +0.145 HD
ATOM      9  C   UNL     1       9.723   2.742  23.299  0.00  0.00    +0.218 A 
ATOM     10  N   UNL     1       9.828   2.088  24.483  0.00  0.00    -0.205 NA
ATOM     11  C   UNL     1       9.160   0.997  24.580  0.00  0.00    +0.209 A 
ATOM     12  N   UNL     1       8.344   0.517  23.600  0.00  0.00    -0.253 N 
ATOM     13  C   UNL     1       7.927   1.474  22.719  0.00  0.00    +0.355 A 
ATOM     14  O   UNL     1       6.813   1.447  22.214  0.00  0.00    -0.244 OA
ATOM     15  N   UNL     1       8.808   2.479  22.434  0.00  0.00    -0.159 NA
ENDBRANCH   1  12
BRANCH   2  16
ATOM     16  O2* UNL     1       5.705  -2.140  23.189  0.00  0.00    -0.385 OA
ATOM     17  H2* UNL     1       4.977  -1.917  22.581  0.00  0.00    +0.210 HD
ENDBRANCH   2  16
BRANCH   3  18
ATOM     18  O3* UNL     1       7.392  -3.881  22.358  0.00  0.00    -0.386 OA
ATOM     19  H3* UNL     1       8.000  -4.442  21.840  0.00  0.00    +0.210 HD
ENDBRANCH   3  18
BRANCH   4  20
ATOM     20  C5* UNL     1      10.316  -1.887  22.929  0.00  0.00    +0.190 C 
BRANCH  20  21
ATOM     21  O5* UNL     1      10.193  -1.583  21.544  0.00  0.00    -0.392 OA
ATOM     22  H5* UNL     1       9.241  -1.517  21.348  0.00  0.00    +0.210 HD
ENDBRANCH  20  21
ENDBRANCH   4  20
TORSDOF 5
ENDMDL
MODEL 9
REMARK VINA RESULT:      -5.5      2.847      4.933
REMARK  Name = 
REMARK  5 active torsions:
REMARK  status: ('A' for Active; 'I' for Inactive)
REMARK    1  A    between atoms: N_6  and  C1*_9
REMARK    2  A    between atoms: C4*_12  and  C5*_14
REMARK    3  A    between atoms: C5*_14  and  O5*_15
REMARK    4  A    between atoms: C3*_16  and  O3*_18
REMARK    5  A    between atoms: C2*_19  and  O2*_21
REMARK                            x       y       z     vdW  Elec       q    Type
REMARK                         _______ _______ _______ _____ _____    ______ ____
ROOT
ATOM      1  C1* UNL     1       7.351  -3.060  25.836  0.00  0.00    +0.256 C 
ATOM      2  C2* UNL     1       6.154  -4.039  25.819  0.00  0.00    +0.195 C 
ATOM      3  C3* UNL     1       6.775  -5.436  25.886  0.00  0.00    +0.178 C 
ATOM      4  C4* UNL     1       8.250  -5.195  26.184  0.00  0.00    +0.177 C 
ATOM      5  O4* UNL     1       8.377  -3.796  26.542  0.00  0.00    -0.346 OA
ENDROOT
BRANCH   1  12
ATOM      6  N   UNL     1       9.816  -1.279  21.352  0.00  0.00    -0.327 N 
ATOM      7  H   UNL     1      10.606  -0.667  21.511  0.00  0.00    +0.145 HD
ATOM      8  H   UNL     1       9.238  -1.027  20.562  0.00  0.00    +0.145 HD
ATOM      9  C   UNL     1       9.112  -1.564  22.470  0.00  0.00    +0.218 A 
ATOM     10  N   UNL     1       9.772  -1.481  23.652  0.00  0.00    -0.205 NA
ATOM     11  C   UNL     1       9.184  -2.015  24.660  0.00  0.00    +0.209 A 
ATOM     12  N   UNL     1       7.950  -2.592  24.600  0.00  0.00    -0.253 N 
ATOM     13  C   UNL     1       7.200  -2.168  23.541  0.00  0.00    +0.355 A 
ATOM     14  O   UNL     1       5.985  -2.039  23.620  0.00  0.00    -0.244 OA
ATOM     15  N   UNL     1       7.868  -1.878  22.385  0.00  0.00    -0.159 NA
ENDBRANCH   1  12
BRANCH   2  16
ATOM     16  O2* UNL     1       5.316  -3.845  26.984  0.00  0.00    -0.385 OA
ATOM     17  H2* UNL     1       4.388  -3.765  26.699  0.00  0.00    +0.210 HD
ENDBRANCH   2  16
BRANCH   3  18
ATOM     18  O3* UNL     1       6.205  -6.248  26.918  0.00  0.00    -0.386 OA
ATOM     19  H3* UNL     1       5.241  -6.279  26.762  0.00  0.00    +0.210 HD
ENDBRANCH   3  18
BRANCH   4  20
ATOM     20  C5* UNL     1       9.121  -5.528  24.962  0.00  0.00    +0.190 C 
BRANCH  20  21
ATOM     21  O5* UNL     1      10.492  -5.263  25.237  0.00  0.00    -0.392 OA
ATOM     22  H5* UNL     1      10.710  -4.411  24.819  0.00  0.00    +0.210 HD
ENDBRANCH  20  21
ENDBRANCH   4  20
TORSDOF 5
ENDMDL
