MODEL 1
REMARK VINA RESULT:      -7.0      0.000      0.000
REMARK  Name = 
REMARK  12 active torsions:
REMARK  status: ('A' for Active; 'I' for Inactive)
REMARK    1  A    between atoms: C_2  and  N_3
REMARK    2  A    between atoms: C_2  and  C_4
REMARK    3  A    between atoms: C_2  and  C_11
REMARK    4  A    between atoms: C_4  and  C_5
REMARK    5  A    between atoms: C_17  and  C_19
REMARK    6  A    between atoms: N_21  and  C_22
REMARK    7  A    between atoms: C_22  and  C_24
REMARK    8  A    between atoms: C_22  and  C_33
REMARK    9  A    between atoms: C_24  and  C_25
REMARK   10  A    between atoms: C_25  and  C_26
REMARK   11  A    between atoms: C_26  and  N_27
REMARK   12  A    between atoms: C_33  and  C_35
REMARK                            x       y       z     vdW  Elec       q    Type
REMARK                         _______ _______ _______ _____ _____    ______ ____
ROOT
ATOM      1  C   UNL     1       8.451  -0.110  25.381  0.00  0.00    +0.234 C 
ATOM      2  N   UNL     1       8.384   1.089  24.701  0.00  0.00    -0.304 N 
ATOM      3  H   UNL     1       8.741   1.099  23.749  0.00  0.00    +0.149 HD
ATOM      4  O   UNL     1       7.931  -0.258  26.485  0.00  0.00    -0.274 OA
ENDROOT
BRANCH   1   7
ATOM      5  C   UNL     1       8.877  -3.582  24.826  0.00  0.00    +0.233 C 
ATOM      6  N   UNL     1       8.925  -2.339  24.202  0.00  0.00    -0.289 N 
ATOM      7  C   UNL     1       9.474  -1.119  24.817  0.00  0.00    +0.162 C 
ATOM      8  C   UNL     1      10.239  -0.419  23.676  0.00  0.00    +0.033 C 
ATOM      9  C   UNL     1      10.213  -1.379  22.494  0.00  0.00    +0.021 C 
ATOM     10  C   UNL     1       9.015  -2.268  22.755  0.00  0.00    +0.108 C 
ATOM     11  O   UNL     1       9.004  -4.623  24.172  0.00  0.00    -0.274 OA
BRANCH   5  12
ATOM     12  C   UNL     1       8.638  -3.692  26.357  0.00  0.00    +0.142 C 
BRANCH  12  13
ATOM     13  N   UNL     1       9.334  -4.877  26.905  0.00  0.00    -0.320 NA
ATOM     14  H   UNL     1       8.874  -5.126  27.781  0.00  0.00    +0.119 HD
ATOM     15  H   UNL     1       9.169  -5.660  26.269  0.00  0.00    +0.119 HD
ENDBRANCH  12  13
BRANCH  12  16
ATOM     16  C   UNL     1       7.141  -3.614  26.704  0.00  0.00    +0.063 C 
BRANCH  16  17
ATOM     17  C   UNL     1       6.172  -4.222  25.708  0.00  0.00    -0.045 A 
ATOM     18  C   UNL     1       5.423  -3.383  24.866  0.00  0.00    +0.004 A 
ATOM     19  C   UNL     1       4.421  -3.902  24.042  0.00  0.00    +0.000 A 
ATOM     20  C   UNL     1       4.158  -5.268  24.041  0.00  0.00    +0.000 A 
ATOM     21  C   UNL     1       4.910  -6.117  24.849  0.00  0.00    +0.000 A 
ATOM     22  C   UNL     1       5.910  -5.599  25.680  0.00  0.00    +0.004 A 
ENDBRANCH  16  17
ENDBRANCH  12  16
ENDBRANCH   5  12
ENDBRANCH   1   7
BRANCH   2  23
ATOM     23  C   UNL     1       7.587   2.231  25.153  0.00  0.00    +0.141 C 
BRANCH  23  24
ATOM     24  C   UNL     1       6.280   2.210  24.344  0.00  0.00    +0.168 C 
ATOM     25  O   UNL     1       5.475   1.278  24.466  0.00  0.00    -0.294 OA
BRANCH  24  26
ATOM     26  C   UNL     1       6.039   3.333  23.365  0.00  0.00    +0.184 C 
ATOM     27 CL   UNL     1       6.822   2.941  21.827  0.00  0.00    -0.117 Cl
ENDBRANCH  24  26
ENDBRANCH  23  24
BRANCH  23  28
ATOM     28  C   UNL     1       8.329   3.575  24.995  0.00  0.00    +0.033 C 
BRANCH  28  29
ATOM     29  C   UNL     1       9.578   3.477  24.114  0.00  0.00    +0.039 C 
BRANCH  29  30
ATOM     30  C   UNL     1      10.153   4.840  23.734  0.00  0.00    +0.196 C 
BRANCH  30  31
ATOM     31  N   UNL     1      11.523   4.661  23.216  0.00  0.00    -0.279 N 
ATOM     32  H   UNL     1      11.670   3.939  22.521  0.00  0.00    +0.258 HD
ATOM     33  C   UNL     1      12.594   5.376  23.582  0.00  0.00    +0.341 C 
ATOM     34  N   UNL     1      13.783   5.095  23.036  0.00  0.00    -0.292 N 
ATOM     35  H   UNL     1      14.613   5.613  23.285  0.00  0.00    +0.255 HD
ATOM     36  H   UNL     1      13.893   4.359  22.350  0.00  0.00    +0.255 HD
ATOM     37  N   UNL     1      12.517   6.365  24.475  0.00  0.00    -0.292 N 
ATOM     38  H   UNL     1      13.330   6.899  24.748  0.00  0.00    +0.255 HD
ATOM     39  H   UNL     1      11.637   6.602  24.912  0.00  0.00    +0.255 HD
ENDBRANCH  30  31
ENDBRANCH  29  30
ENDBRANCH  28  29
ENDBRANCH  23  28
ENDBRANCH   2  23
TORSDOF 12
ENDMDL
MODEL 2
REMARK VINA RESULT:      -6.9      3.323      7.053
REMARK  Name = 
REMARK  12 active torsions:
REMARK  status: ('A' for Active; 'I' for Inactive)
REMARK    1  A    between atoms: C_2  and  N_3
REMARK    2  A    between atoms: C_2  and  C_4
REMARK    3  A    between atoms: C_2  and  C_11
REMARK    4  A    between atoms: C_4  and  C_5
REMARK    5  A    between atoms: C_17  and  C_19
REMARK    6  A    between atoms: N_21  and  C_22
REMARK    7  A    between atoms: C_22  and  C_24
REMARK    8  A    between atoms: C_22  and  C_33
REMARK    9  A    between atoms: C_24  and  C_25
REMARK   10  A    between atoms: C_25  and  C_26
REMARK   11  A    between atoms: C_26  and  N_27
REMARK   12  A    between atoms: C_33  and  C_35
REMARK                            x       y       z     vdW  Elec       q    Type
REMARK                         _______ _______ _______ _____ _____    ______ ____
ROOT
ATOM      1  C   UNL     1       8.723  -1.487  22.543  0.00  0.00    +0.234 C 
ATOM      2  N   UNL     1       7.580  -2.260  22.498  0.00  0.00    -0.304 N 
ATOM      3  H   UNL     1       6.749  -1.830  22.099  0.00  0.00    +0.149 HD
ATOM      4  O   UNL     1       9.807  -1.956  22.885  0.00  0.00    -0.274 OA
ENDROOT
BRANCH   1   7
ATOM      5  C   UNL     1       7.452   1.218  24.442  0.00  0.00    +0.233 C 
ATOM      6  N   UNL     1       8.557   0.789  23.714  0.00  0.00    -0.289 N 
ATOM      7  C   UNL     1       8.481   0.033  22.452  0.00  0.00    +0.162 C 
ATOM      8  C   UNL     1       9.598   0.632  21.573  0.00  0.00    +0.033 C 
ATOM      9  C   UNL     1      10.155   1.823  22.343  0.00  0.00    +0.021 C 
ATOM     10  C   UNL     1       9.797   1.539  23.787  0.00  0.00    +0.108 C 
ATOM     11  O   UNL     1       7.485   2.279  25.076  0.00  0.00    -0.274 OA
BRANCH   5  12
ATOM     12  C   UNL     1       6.158   0.361  24.497  0.00  0.00    +0.142 C 
BRANCH  12  13
ATOM     13  N   UNL     1       4.965   1.231  24.600  0.00  0.00    -0.320 NA
ATOM     14  H   UNL     1       4.806   1.645  23.681  0.00  0.00    +0.119 HD
ATOM     15  H   UNL     1       4.156   0.634  24.782  0.00  0.00    +0.119 HD
ENDBRANCH  12  13
BRANCH  12  16
ATOM     16  C   UNL     1       6.246  -0.731  25.578  0.00  0.00    +0.063 C 
BRANCH  16  17
ATOM     17  C   UNL     1       5.001  -1.565  25.815  0.00  0.00    -0.045 A 
ATOM     18  C   UNL     1       4.267  -1.396  27.001  0.00  0.00    +0.004 A 
ATOM     19  C   UNL     1       3.204  -2.247  27.314  0.00  0.00    +0.000 A 
ATOM     20  C   UNL     1       2.852  -3.272  26.443  0.00  0.00    +0.000 A 
ATOM     21  C   UNL     1       3.552  -3.436  25.249  0.00  0.00    +0.000 A 
ATOM     22  C   UNL     1       4.622  -2.590  24.937  0.00  0.00    +0.004 A 
ENDBRANCH  16  17
ENDBRANCH  12  16
ENDBRANCH   5  12
ENDBRANCH   1   7
BRANCH   2  23
ATOM     23  C   UNL     1       7.575  -3.709  22.711  0.00  0.00    +0.141 C 
BRANCH  23  24
ATOM     24  C   UNL     1       6.387  -4.272  21.914  0.00  0.00    +0.168 C 
ATOM     25  O   UNL     1       5.570  -3.515  21.375  0.00  0.00    -0.294 OA
BRANCH  24  26
ATOM     26  C   UNL     1       6.224  -5.772  21.857  0.00  0.00    +0.184 C 
ATOM     27 CL   UNL     1       5.048  -6.276  23.079  0.00  0.00    -0.117 Cl
ENDBRANCH  24  26
ENDBRANCH  23  24
BRANCH  23  28
ATOM     28  C   UNL     1       7.486  -4.091  24.203  0.00  0.00    +0.033 C 
BRANCH  28  29
ATOM     29  C   UNL     1       8.747  -4.787  24.726  0.00  0.00    +0.039 C 
BRANCH  29  30
ATOM     30  C   UNL     1       8.905  -4.683  26.241  0.00  0.00    +0.196 C 
BRANCH  30  31
ATOM     31  N   UNL     1       8.109  -5.746  26.886  0.00  0.00    -0.279 N 
ATOM     32  H   UNL     1       8.469  -6.691  26.843  0.00  0.00    +0.258 HD
ATOM     33  C   UNL     1       6.949  -5.568  27.530  0.00  0.00    +0.341 C 
ATOM     34  N   UNL     1       6.329  -6.629  28.059  0.00  0.00    -0.292 N 
ATOM     35  H   UNL     1       5.453  -6.535  28.553  0.00  0.00    +0.255 HD
ATOM     36  H   UNL     1       6.714  -7.562  27.987  0.00  0.00    +0.255 HD
ATOM     37  N   UNL     1       6.389  -4.364  27.667  0.00  0.00    -0.292 N 
ATOM     38  H   UNL     1       5.512  -4.238  28.153  0.00  0.00    +0.255 HD
ATOM     39  H   UNL     1       6.827  -3.541  27.276  0.00  0.00    +0.255 HD
ENDBRANCH  30  31
ENDBRANCH  29  30
ENDBRANCH  28  29
ENDBRANCH  23  28
ENDBRANCH   2  23
TORSDOF 12
ENDMDL
MODEL 3
REMARK VINA RESULT:      -6.8      2.882      4.489
REMARK  Name = 
REMARK  12 active torsions:
REMARK  status: ('A' for Active; 'I' for Inactive)
REMARK    1  A    between atoms: C_2  and  N_3
REMARK    2  A    between atoms: C_2  and  C_4
REMARK    3  A    between atoms: C_2  and  C_11
REMARK    4  A    between atoms: C_4  and  C_5
REMARK    5  A    between atoms: C_17  and  C_19
REMARK    6  A    between atoms: N_21  and  C_22
REMARK    7  A    between atoms: C_22  and  C_24
REMARK    8  A    between atoms: C_22  and  C_33
REMARK    9  A    between atoms: C_24  and  C_25
REMARK   10  A    between atoms: C_25  and  C_26
REMARK   11  A    between atoms: C_26  and  N_27
REMARK   12  A    between atoms: C_33  and  C_35
REMARK                            x       y       z     vdW  Elec       q    Type
REMARK                         _______ _______ _______ _____ _____    ______ ____
ROOT
ATOM      1  C   UNL     1       7.401  -3.240  22.910  0.00  0.00    +0.234 C 
ATOM      2  N   UNL     1       8.371  -2.549  23.609  0.00  0.00    -0.304 N 
ATOM      3  H   UNL     1       9.152  -3.092  23.969  0.00  0.00    +0.149 HD
ATOM      4  O   UNL     1       6.488  -2.659  22.326  0.00  0.00    -0.274 OA
ENDROOT
BRANCH   1   7
ATOM      5  C   UNL     1       6.450  -5.569  25.402  0.00  0.00    +0.233 C 
ATOM      6  N   UNL     1       6.284  -5.243  24.060  0.00  0.00    -0.289 N 
ATOM      7  C   UNL     1       7.363  -4.758  23.181  0.00  0.00    +0.162 C 
ATOM      8  C   UNL     1       7.115  -5.467  21.834  0.00  0.00    +0.033 C 
ATOM      9  C   UNL     1       5.980  -6.454  22.075  0.00  0.00    +0.021 C 
ATOM     10  C   UNL     1       5.252  -5.906  23.284  0.00  0.00    +0.108 C 
ATOM     11  O   UNL     1       5.792  -6.480  25.917  0.00  0.00    -0.274 OA
BRANCH   5  12
ATOM     12  C   UNL     1       7.447  -4.779  26.293  0.00  0.00    +0.142 C 
BRANCH  12  13
ATOM     13  N   UNL     1       7.906  -5.616  27.424  0.00  0.00    -0.320 NA
ATOM     14  H   UNL     1       7.458  -6.529  27.332  0.00  0.00    +0.119 HD
ATOM     15  H   UNL     1       8.908  -5.781  27.305  0.00  0.00    +0.119 HD
ENDBRANCH  12  13
BRANCH  12  16
ATOM     16  C   UNL     1       6.879  -3.409  26.703  0.00  0.00    +0.063 C 
BRANCH  16  17
ATOM     17  C   UNL     1       5.390  -3.339  26.985  0.00  0.00    -0.045 A 
ATOM     18  C   UNL     1       4.552  -2.620  26.117  0.00  0.00    +0.004 A 
ATOM     19  C   UNL     1       3.204  -2.416  26.426  0.00  0.00    +0.000 A 
ATOM     20  C   UNL     1       2.673  -2.934  27.602  0.00  0.00    +0.000 A 
ATOM     21  C   UNL     1       3.484  -3.673  28.461  0.00  0.00    +0.000 A 
ATOM     22  C   UNL     1       4.835  -3.873  28.157  0.00  0.00    +0.004 A 
ENDBRANCH  16  17
ENDBRANCH  12  16
ENDBRANCH   5  12
ENDBRANCH   1   7
BRANCH   2  23
ATOM     23  C   UNL     1       8.484  -1.090  23.606  0.00  0.00    +0.141 C 
BRANCH  23  24
ATOM     24  C   UNL     1       9.986  -0.760  23.597  0.00  0.00    +0.168 C 
ATOM     25  O   UNL     1      10.730  -1.218  22.721  0.00  0.00    -0.294 OA
BRANCH  24  26
ATOM     26  C   UNL     1      10.526   0.094  24.718  0.00  0.00    +0.184 C 
ATOM     27 CL   UNL     1      10.932   1.697  24.086  0.00  0.00    -0.117 Cl
ENDBRANCH  24  26
ENDBRANCH  23  24
BRANCH  23  28
ATOM     28  C   UNL     1       7.768  -0.433  24.805  0.00  0.00    +0.033 C 
BRANCH  28  29
ATOM     29  C   UNL     1       6.508   0.341  24.407  0.00  0.00    +0.039 C 
BRANCH  29  30
ATOM     30  C   UNL     1       6.567   0.894  22.985  0.00  0.00    +0.196 C 
BRANCH  30  31
ATOM     31  N   UNL     1       7.075   2.279  23.024  0.00  0.00    -0.279 N 
ATOM     32  H   UNL     1       6.642   2.917  23.681  0.00  0.00    +0.258 HD
ATOM     33  C   UNL     1       8.066   2.768  22.269  0.00  0.00    +0.341 C 
ATOM     34  N   UNL     1       8.415   4.052  22.403  0.00  0.00    -0.292 N 
ATOM     35  H   UNL     1       9.158   4.457  21.851  0.00  0.00    +0.255 HD
ATOM     36  H   UNL     1       7.952   4.664  23.063  0.00  0.00    +0.255 HD
ATOM     37  N   UNL     1       8.722   2.014  21.383  0.00  0.00    -0.292 N 
ATOM     38  H   UNL     1       9.467   2.391  20.815  0.00  0.00    +0.255 HD
ATOM     39  H   UNL     1       8.482   1.041  21.252  0.00  0.00    +0.255 HD
ENDBRANCH  30  31
ENDBRANCH  29  30
ENDBRANCH  28  29
ENDBRANCH  23  28
ENDBRANCH   2  23
TORSDOF 12
ENDMDL
MODEL 4
REMARK VINA RESULT:      -6.8      2.207      2.670
REMARK  Name = 
REMARK  12 active torsions:
REMARK  status: ('A' for Active; 'I' for Inactive)
REMARK    1  A    between atoms: C_2  and  N_3
REMARK    2  A    between atoms: C_2  and  C_4
REMARK    3  A    between atoms: C_2  and  C_11
REMARK    4  A    between atoms: C_4  and  C_5
REMARK    5  A    between atoms: C_17  and  C_19
REMARK    6  A    between atoms: N_21  and  C_22
REMARK    7  A    between atoms: C_22  and  C_24
REMARK    8  A    between atoms: C_22  and  C_33
REMARK    9  A    between atoms: C_24  and  C_25
REMARK   10  A    between atoms: C_25  and  C_26
REMARK   11  A    between atoms: C_26  and  N_27
REMARK   12  A    between atoms: C_33  and  C_35
REMARK                            x       y       z     vdW  Elec       q    Type
REMARK                         _______ _______ _______ _____ _____    ______ ____
ROOT
ATOM      1  C   UNL     1       8.193   0.002  26.283  0.00  0.00    +0.234 C 
ATOM      2  N   UNL     1       7.834   1.147  25.601  0.00  0.00    -0.304 N 
ATOM      3  H   UNL     1       8.131   1.216  24.631  0.00  0.00    +0.149 HD
ATOM      4  O   UNL     1       7.774  -0.235  27.414  0.00  0.00    -0.274 OA
ENDROOT
BRANCH   1   7
ATOM      5  C   UNL     1       9.012  -3.167  24.932  0.00  0.00    +0.233 C 
ATOM      6  N   UNL     1       9.050  -1.801  24.671  0.00  0.00    -0.289 N 
ATOM      7  C   UNL     1       9.380  -0.772  25.672  0.00  0.00    +0.162 C 
ATOM      8  C   UNL     1      10.257   0.243  24.910  0.00  0.00    +0.033 C 
ATOM      9  C   UNL     1      10.509  -0.360  23.534  0.00  0.00    +0.021 C 
ATOM     10  C   UNL     1       9.369  -1.335  23.334  0.00  0.00    +0.108 C 
ATOM     11  O   UNL     1       9.336  -3.985  24.063  0.00  0.00    -0.274 OA
BRANCH   5  12
ATOM     12  C   UNL     1       8.537  -3.699  26.311  0.00  0.00    +0.142 C 
BRANCH  12  13
ATOM     13  N   UNL     1       9.137  -5.023  26.590  0.00  0.00    -0.320 NA
ATOM     14  H   UNL     1       9.740  -4.921  27.407  0.00  0.00    +0.119 HD
ATOM     15  H   UNL     1       8.384  -5.654  26.874  0.00  0.00    +0.119 HD
ENDBRANCH  12  13
BRANCH  12  16
ATOM     16  C   UNL     1       7.004  -3.654  26.439  0.00  0.00    +0.063 C 
BRANCH  16  17
ATOM     17  C   UNL     1       6.201  -4.201  25.274  0.00  0.00    -0.045 A 
ATOM     18  C   UNL     1       5.581  -3.313  24.379  0.00  0.00    +0.004 A 
ATOM     19  C   UNL     1       4.719  -3.782  23.385  0.00  0.00    +0.000 A 
ATOM     20  C   UNL     1       4.470  -5.145  23.264  0.00  0.00    +0.000 A 
ATOM     21  C   UNL     1       5.098  -6.041  24.125  0.00  0.00    +0.000 A 
ATOM     22  C   UNL     1       5.957  -5.574  25.126  0.00  0.00    +0.004 A 
ENDBRANCH  16  17
ENDBRANCH  12  16
ENDBRANCH   5  12
ENDBRANCH   1   7
BRANCH   2  23
ATOM     23  C   UNL     1       6.833   2.097  26.088  0.00  0.00    +0.141 C 
BRANCH  23  24
ATOM     24  C   UNL     1       5.480   1.657  25.505  0.00  0.00    +0.168 C 
ATOM     25  O   UNL     1       5.251   1.753  24.293  0.00  0.00    -0.294 OA
BRANCH  24  26
ATOM     26  C   UNL     1       4.428   1.157  26.465  0.00  0.00    +0.184 C 
ATOM     27 CL   UNL     1       4.504  -0.609  26.545  0.00  0.00    -0.117 Cl
ENDBRANCH  24  26
ENDBRANCH  23  24
BRANCH  23  28
ATOM     28  C   UNL     1       7.163   3.557  25.710  0.00  0.00    +0.033 C 
BRANCH  28  29
ATOM     29  C   UNL     1       8.480   3.699  24.940  0.00  0.00    +0.039 C 
BRANCH  29  30
ATOM     30  C   UNL     1       8.285   4.185  23.506  0.00  0.00    +0.196 C 
BRANCH  30  31
ATOM     31  N   UNL     1       8.875   3.201  22.577  0.00  0.00    -0.279 N 
ATOM     32  H   UNL     1       9.879   3.219  22.452  0.00  0.00    +0.258 HD
ATOM     33  C   UNL     1       8.195   2.279  21.884  0.00  0.00    +0.341 C 
ATOM     34  N   UNL     1       8.861   1.456  21.066  0.00  0.00    -0.292 N 
ATOM     35  H   UNL     1       8.384   0.747  20.528  0.00  0.00    +0.255 HD
ATOM     36  H   UNL     1       9.866   1.510  20.959  0.00  0.00    +0.255 HD
ATOM     37  N   UNL     1       6.870   2.149  21.983  0.00  0.00    -0.292 N 
ATOM     38  H   UNL     1       6.364   1.453  21.456  0.00  0.00    +0.255 HD
ATOM     39  H   UNL     1       6.333   2.757  22.588  0.00  0.00    +0.255 HD
ENDBRANCH  30  31
ENDBRANCH  29  30
ENDBRANCH  28  29
ENDBRANCH  23  28
ENDBRANCH   2  23
TORSDOF 12
ENDMDL
MODEL 5
REMARK VINA RESULT:      -6.7      3.006      5.220
REMARK  Name = 
REMARK  12 active torsions:
REMARK  status: ('A' for Active; 'I' for Inactive)
REMARK    1  A    between atoms: C_2  and  N_3
REMARK    2  A    between atoms: C_2  and  C_4
REMARK    3  A    between atoms: C_2  and  C_11
REMARK    4  A    between atoms: C_4  and  C_5
REMARK    5  A    between atoms: C_17  and  C_19
REMARK    6  A    between atoms: N_21  and  C_22
REMARK    7  A    between atoms: C_22  and  C_24
REMARK    8  A    between atoms: C_22  and  C_33
REMARK    9  A    between atoms: C_24  and  C_25
REMARK   10  A    between atoms: C_25  and  C_26
REMARK   11  A    between atoms: C_26  and  N_27
REMARK   12  A    between atoms: C_33  and  C_35
REMARK                            x       y       z     vdW  Elec       q    Type
REMARK                         _______ _______ _______ _____ _____    ______ ____
ROOT
ATOM      1  C   UNL     1       7.629  -1.141  26.519  0.00  0.00    +0.234 C 
ATOM      2  N   UNL     1       6.960  -0.039  26.028  0.00  0.00    -0.304 N 
ATOM      3  H   UNL     1       6.023  -0.194  25.665  0.00  0.00    +0.149 HD
ATOM      4  O   UNL     1       8.711  -1.038  27.095  0.00  0.00    -0.274 OA
ENDROOT
BRANCH   1   7
ATOM      5  C   UNL     1       8.456  -3.773  24.299  0.00  0.00    +0.233 C 
ATOM      6  N   UNL     1       8.106  -3.495  25.616  0.00  0.00    -0.289 N 
ATOM      7  C   UNL     1       7.097  -2.500  26.018  0.00  0.00    +0.162 C 
ATOM      8  C   UNL     1       6.340  -3.164  27.185  0.00  0.00    +0.033 C 
ATOM      9  C   UNL     1       6.869  -4.590  27.280  0.00  0.00    +0.021 C 
ATOM     10  C   UNL     1       8.232  -4.531  26.625  0.00  0.00    +0.108 C 
ATOM     11  O   UNL     1       8.784  -4.917  23.960  0.00  0.00    -0.274 OA
BRANCH   5  12
ATOM     12  C   UNL     1       8.468  -2.649  23.227  0.00  0.00    +0.142 C 
BRANCH  12  13
ATOM     13  N   UNL     1       7.842  -3.124  21.973  0.00  0.00    -0.320 NA
ATOM     14  H   UNL     1       6.974  -2.603  21.846  0.00  0.00    +0.119 HD
ATOM     15  H   UNL     1       8.449  -2.851  21.197  0.00  0.00    +0.119 HD
ENDBRANCH  12  13
BRANCH  12  16
ATOM     16  C   UNL     1       9.874  -2.049  23.050  0.00  0.00    +0.063 C 
BRANCH  16  17
ATOM     17  C   UNL     1       9.985  -0.537  23.093  0.00  0.00    -0.045 A 
ATOM     18  C   UNL     1       9.674   0.215  21.947  0.00  0.00    +0.004 A 
ATOM     19  C   UNL     1       9.905   1.593  21.909  0.00  0.00    +0.000 A 
ATOM     20  C   UNL     1      10.440   2.241  23.017  0.00  0.00    +0.000 A 
ATOM     21  C   UNL     1      10.728   1.515  24.170  0.00  0.00    +0.000 A 
ATOM     22  C   UNL     1      10.505   0.134  24.209  0.00  0.00    +0.004 A 
ENDBRANCH  16  17
ENDBRANCH  12  16
ENDBRANCH   5  12
ENDBRANCH   1   7
BRANCH   2  23
ATOM     23  C   UNL     1       7.392   1.340  26.264  0.00  0.00    +0.141 C 
BRANCH  23  24
ATOM     24  C   UNL     1       6.559   1.873  27.441  0.00  0.00    +0.168 C 
ATOM     25  O   UNL     1       7.102   2.447  28.393  0.00  0.00    -0.294 OA
BRANCH  24  26
ATOM     26  C   UNL     1       5.070   1.626  27.419  0.00  0.00    +0.184 C 
ATOM     27 CL   UNL     1       4.682   0.303  28.528  0.00  0.00    -0.117 Cl
ENDBRANCH  24  26
ENDBRANCH  23  24
BRANCH  23  28
ATOM     28  C   UNL     1       7.242   2.233  25.014  0.00  0.00    +0.033 C 
BRANCH  28  29
ATOM     29  C   UNL     1       7.796   3.648  25.212  0.00  0.00    +0.039 C 
BRANCH  29  30
ATOM     30  C   UNL     1       6.792   4.741  24.853  0.00  0.00    +0.196 C 
BRANCH  30  31
ATOM     31  N   UNL     1       7.307   5.515  23.707  0.00  0.00    -0.279 N 
ATOM     32  H   UNL     1       7.956   6.267  23.904  0.00  0.00    +0.258 HD
ATOM     33  C   UNL     1       6.995   5.306  22.422  0.00  0.00    +0.341 C 
ATOM     34  N   UNL     1       7.530   6.096  21.484  0.00  0.00    -0.292 N 
ATOM     35  H   UNL     1       7.320   5.969  20.504  0.00  0.00    +0.255 HD
ATOM     36  H   UNL     1       8.168   6.846  21.720  0.00  0.00    +0.255 HD
ATOM     37  N   UNL     1       6.165   4.331  22.041  0.00  0.00    -0.292 N 
ATOM     38  H   UNL     1       5.933   4.181  21.070  0.00  0.00    +0.255 HD
ATOM     39  H   UNL     1       5.739   3.718  22.722  0.00  0.00    +0.255 HD
ENDBRANCH  30  31
ENDBRANCH  29  30
ENDBRANCH  28  29
ENDBRANCH  23  28
ENDBRANCH   2  23
TORSDOF 12
ENDMDL
MODEL 6
REMARK VINA RESULT:      -6.7      3.737      8.139
REMARK  Name = 
REMARK  12 active torsions:
REMARK  status: ('A' for Active; 'I' for Inactive)
REMARK    1  A    between atoms: C_2  and  N_3
REMARK    2  A    between atoms: C_2  and  C_4
REMARK    3  A    between atoms: C_2  and  C_11
REMARK    4  A    between atoms: C_4  and  C_5
REMARK    5  A    between atoms: C_17  and  C_19
REMARK    6  A    between atoms: N_21  and  C_22
REMARK    7  A    between atoms: C_22  and  C_24
REMARK    8  A    between atoms: C_22  and  C_33
REMARK    9  A    between atoms: C_24  and  C_25
REMARK   10  A    between atoms: C_25  and  C_26
REMARK   11  A    between atoms: C_26  and  N_27
REMARK   12  A    between atoms: C_33  and  C_35
REMARK                            x       y       z     vdW  Elec       q    Type
REMARK                         _______ _______ _______ _____ _____    ______ ____
ROOT
ATOM      1  C   UNL     1       5.448  -1.960  25.782  0.00  0.00    +0.234 C 
ATOM      2  N   UNL     1       6.529  -2.814  25.878  0.00  0.00    -0.304 N 
ATOM      3  H   UNL     1       7.176  -2.651  26.645  0.00  0.00    +0.149 HD
ATOM      4  O   UNL     1       4.543  -2.152  24.972  0.00  0.00    -0.274 OA
ENDROOT
BRANCH   1   7
ATOM      5  C   UNL     1       7.588   0.858  25.904  0.00  0.00    +0.233 C 
ATOM      6  N   UNL     1       6.260   0.473  25.756  0.00  0.00    -0.289 N 
ATOM      7  C   UNL     1       5.618  -0.614  26.515  0.00  0.00    +0.162 C 
ATOM      8  C   UNL     1       4.209  -0.079  26.843  0.00  0.00    +0.033 C 
ATOM      9  C   UNL     1       4.184   1.371  26.376  0.00  0.00    +0.021 C 
ATOM     10  C   UNL     1       5.274   1.450  25.329  0.00  0.00    +0.108 C 
ATOM     11  O   UNL     1       7.923   2.041  25.766  0.00  0.00    -0.274 OA
BRANCH   5  12
ATOM     12  C   UNL     1       8.688  -0.192  26.220  0.00  0.00    +0.142 C 
BRANCH  12  13
ATOM     13  N   UNL     1       8.904  -0.291  27.681  0.00  0.00    -0.320 NA
ATOM     14  H   UNL     1       8.978   0.659  28.046  0.00  0.00    +0.119 HD
ATOM     15  H   UNL     1       8.057  -0.686  28.096  0.00  0.00    +0.119 HD
ENDBRANCH  12  13
BRANCH  12  16
ATOM     16  C   UNL     1       9.966   0.061  25.402  0.00  0.00    +0.063 C 
BRANCH  16  17
ATOM     17  C   UNL     1       9.852  -0.056  23.893  0.00  0.00    -0.045 A 
ATOM     18  C   UNL     1       9.956   1.096  23.097  0.00  0.00    +0.004 A 
ATOM     19  C   UNL     1       9.712   1.043  21.722  0.00  0.00    +0.000 A 
ATOM     20  C   UNL     1       9.370  -0.164  21.122  0.00  0.00    +0.000 A 
ATOM     21  C   UNL     1       9.290  -1.322  21.892  0.00  0.00    +0.000 A 
ATOM     22  C   UNL     1       9.527  -1.270  23.271  0.00  0.00    +0.004 A 
ENDBRANCH  16  17
ENDBRANCH  12  16
ENDBRANCH   5  12
ENDBRANCH   1   7
BRANCH   2  23
ATOM     23  C   UNL     1       6.630  -4.075  25.142  0.00  0.00    +0.141 C 
BRANCH  23  24
ATOM     24  C   UNL     1       7.375  -5.064  26.053  0.00  0.00    +0.168 C 
ATOM     25  O   UNL     1       6.870  -6.155  26.350  0.00  0.00    -0.294 OA
BRANCH  24  26
ATOM     26  C   UNL     1       8.710  -4.639  26.612  0.00  0.00    +0.184 C 
ATOM     27 CL   UNL     1       9.994  -5.151  25.507  0.00  0.00    -0.117 Cl
ENDBRANCH  24  26
ENDBRANCH  23  24
BRANCH  23  28
ATOM     28  C   UNL     1       7.340  -3.915  23.781  0.00  0.00    +0.033 C 
BRANCH  28  29
ATOM     29  C   UNL     1       7.308  -5.188  22.928  0.00  0.00    +0.039 C 
BRANCH  29  30
ATOM     30  C   UNL     1       6.105  -5.251  21.991  0.00  0.00    +0.196 C 
BRANCH  30  31
ATOM     31  N   UNL     1       5.144  -6.248  22.503  0.00  0.00    -0.279 N 
ATOM     32  H   UNL     1       5.368  -7.226  22.368  0.00  0.00    +0.258 HD
ATOM     33  C   UNL     1       3.998  -5.971  23.139  0.00  0.00    +0.341 C 
ATOM     34  N   UNL     1       3.215  -6.980  23.539  0.00  0.00    -0.292 N 
ATOM     35  H   UNL     1       2.344  -6.811  24.022  0.00  0.00    +0.255 HD
ATOM     36  H   UNL     1       3.467  -7.946  23.377  0.00  0.00    +0.255 HD
ATOM     37  N   UNL     1       3.609  -4.719  23.390  0.00  0.00    -0.292 N 
ATOM     38  H   UNL     1       2.742  -4.518  23.868  0.00  0.00    +0.255 HD
ATOM     39  H   UNL     1       4.173  -3.933  23.098  0.00  0.00    +0.255 HD
ENDBRANCH  30  31
ENDBRANCH  29  30
ENDBRANCH  28  29
ENDBRANCH  23  28
ENDBRANCH   2  23
TORSDOF 12
ENDMDL
MODEL 7
REMARK VINA RESULT:      -6.7      2.561      3.015
REMARK  Name = 
REMARK  12 active torsions:
REMARK  status: ('A' for Active; 'I' for Inactive)
REMARK    1  A    between atoms: C_2  and  N_3
REMARK    2  A    between atoms: C_2  and  C_4
REMARK    3  A    between atoms: C_2  and  C_11
REMARK    4  A    between atoms: C_4  and  C_5
REMARK    5  A    between atoms: C_17  and  C_19
REMARK    6  A    between atoms: N_21  and  C_22
REMARK    7  A    between atoms: C_22  and  C_24
REMARK    8  A    between atoms: C_22  and  C_33
REMARK    9  A    between atoms: C_24  and  C_25
REMARK   10  A    between atoms: C_25  and  C_26
REMARK   11  A    between atoms: C_26  and  N_27
REMARK   12  A    between atoms: C_33  and  C_35
REMARK                            x       y       z     vdW  Elec       q    Type
REMARK                         _______ _______ _______ _____ _____    ______ ____
ROOT
ATOM      1  C   UNL     1       8.727  -1.021  25.438  0.00  0.00    +0.234 C 
ATOM      2  N   UNL     1       7.981   0.049  24.987  0.00  0.00    -0.304 N 
ATOM      3  H   UNL     1       7.629  -0.005  24.035  0.00  0.00    +0.149 HD
ATOM      4  O   UNL     1       9.086  -1.111  26.610  0.00  0.00    -0.274 OA
ENDROOT
BRANCH   1   7
ATOM      5  C   UNL     1       8.621  -4.328  24.175  0.00  0.00    +0.233 C 
ATOM      6  N   UNL     1       8.489  -2.991  23.812  0.00  0.00    -0.289 N 
ATOM      7  C   UNL     1       9.336  -1.901  24.326  0.00  0.00    +0.162 C 
ATOM      8  C   UNL     1       9.591  -0.998  23.103  0.00  0.00    +0.033 C 
ATOM      9  C   UNL     1       8.993  -1.724  21.904  0.00  0.00    +0.021 C 
ATOM     10  C   UNL     1       7.959  -2.654  22.503  0.00  0.00    +0.108 C 
ATOM     11  O   UNL     1       8.379  -5.230  23.364  0.00  0.00    -0.274 OA
BRANCH   5  12
ATOM     12  C   UNL     1       9.049  -4.720  25.616  0.00  0.00    +0.142 C 
BRANCH  12  13
ATOM     13  N   UNL     1      10.254  -5.579  25.582  0.00  0.00    -0.320 NA
ATOM     14  H   UNL     1      10.555  -5.648  24.609  0.00  0.00    +0.119 HD
ATOM     15  H   UNL     1      11.003  -5.086  26.073  0.00  0.00    +0.119 HD
ENDBRANCH  12  13
BRANCH  12  16
ATOM     16  C   UNL     1       7.872  -5.303  26.418  0.00  0.00    +0.063 C 
BRANCH  16  17
ATOM     17  C   UNL     1       6.535  -4.598  26.290  0.00  0.00    -0.045 A 
ATOM     18  C   UNL     1       6.338  -3.362  26.928  0.00  0.00    +0.004 A 
ATOM     19  C   UNL     1       5.078  -2.759  26.949  0.00  0.00    +0.000 A 
ATOM     20  C   UNL     1       3.999  -3.377  26.325  0.00  0.00    +0.000 A 
ATOM     21  C   UNL     1       4.184  -4.588  25.663  0.00  0.00    +0.000 A 
ATOM     22  C   UNL     1       5.443  -5.198  25.646  0.00  0.00    +0.004 A 
ENDBRANCH  16  17
ENDBRANCH  12  16
ENDBRANCH   5  12
ENDBRANCH   1   7
BRANCH   2  23
ATOM     23  C   UNL     1       7.438   1.084  25.869  0.00  0.00    +0.141 C 
BRANCH  23  24
ATOM     24  C   UNL     1       5.914   0.883  25.906  0.00  0.00    +0.168 C 
ATOM     25  O   UNL     1       5.318   0.382  24.945  0.00  0.00    -0.294 OA
BRANCH  24  26
ATOM     26  C   UNL     1       5.170   1.365  27.127  0.00  0.00    +0.184 C 
ATOM     27 CL   UNL     1       5.718   0.454  28.542  0.00  0.00    -0.117 Cl
ENDBRANCH  24  26
ENDBRANCH  23  24
BRANCH  23  28
ATOM     28  C   UNL     1       7.809   2.510  25.412  0.00  0.00    +0.033 C 
BRANCH  28  29
ATOM     29  C   UNL     1       8.636   2.537  24.123  0.00  0.00    +0.039 C 
BRANCH  29  30
ATOM     30  C   UNL     1       7.786   2.726  22.869  0.00  0.00    +0.196 C 
BRANCH  30  31
ATOM     31  N   UNL     1       8.059   4.058  22.294  0.00  0.00    -0.279 N 
ATOM     32  H   UNL     1       9.019   4.278  22.058  0.00  0.00    +0.258 HD
ATOM     33  C   UNL     1       7.144   5.004  22.051  0.00  0.00    +0.341 C 
ATOM     34  N   UNL     1       7.537   6.175  21.537  0.00  0.00    -0.292 N 
ATOM     35  H   UNL     1       6.876   6.912  21.339  0.00  0.00    +0.255 HD
ATOM     36  H   UNL     1       8.508   6.363  21.323  0.00  0.00    +0.255 HD
ATOM     37  N   UNL     1       5.846   4.819  22.304  0.00  0.00    -0.292 N 
ATOM     38  H   UNL     1       5.161   5.539  22.121  0.00  0.00    +0.255 HD
ATOM     39  H   UNL     1       5.513   3.949  22.698  0.00  0.00    +0.255 HD
ENDBRANCH  30  31
ENDBRANCH  29  30
ENDBRANCH  28  29
ENDBRANCH  23  28
ENDBRANCH   2  23
TORSDOF 12
ENDMDL
MODEL 8
REMARK VINA RESULT:      -6.6      2.889      5.589
REMARK  Name = 
REMARK  12 active torsions:
REMARK  status: ('A' for Active; 'I' for Inactive)
REMARK    1  A    between atoms: C_2  and  N_3
REMARK    2  A    between atoms: C_2  and  C_4
REMARK    3  A    between atoms: C_2  and  C_11
REMARK    4  A    between atoms: C_4  and  C_5
REMARK    5  A    between atoms: C_17  and  C_19
REMARK    6  A    between atoms: N_21  and  C_22
REMARK    7  A    between atoms: C_22  and  C_24
REMARK    8  A    between atoms: C_22  and  C_33
REMARK    9  A    between atoms: C_24  and  C_25
REMARK   10  A    between atoms: C_25  and  C_26
REMARK   11  A    between atoms: C_26  and  N_27
REMARK   12  A    between atoms: C_33  and  C_35
REMARK                            x       y       z     vdW  Elec       q    Type
REMARK                         _______ _______ _______ _____ _____    ______ ____
ROOT
ATOM      1  C   UNL     1       7.214   0.619  24.463  0.00  0.00    +0.234 C 
ATOM      2  N   UNL     1       6.682   0.019  25.586  0.00  0.00    -0.304 N 
ATOM      3  H   UNL     1       7.331  -0.214  26.334  0.00  0.00    +0.149 HD
ATOM      4  O   UNL     1       6.499   1.056  23.563  0.00  0.00    -0.274 OA
ENDROOT
BRANCH   1   7
ATOM      5  C   UNL     1       9.519  -1.406  22.694  0.00  0.00    +0.233 C 
ATOM      6  N   UNL     1       9.170  -0.085  22.959  0.00  0.00    -0.289 N 
ATOM      7  C   UNL     1       8.731   0.412  24.274  0.00  0.00    +0.162 C 
ATOM      8  C   UNL     1       9.411   1.790  24.415  0.00  0.00    +0.033 C 
ATOM      9  C   UNL     1      10.341   1.930  23.216  0.00  0.00    +0.021 C 
ATOM     10  C   UNL     1       9.769   0.984  22.182  0.00  0.00    +0.108 C 
ATOM     11  O   UNL     1      10.401  -1.673  21.869  0.00  0.00    -0.274 OA
BRANCH   5  12
ATOM     12  C   UNL     1       8.792  -2.577  23.409  0.00  0.00    +0.142 C 
BRANCH  12  13
ATOM     13  N   UNL     1       9.748  -3.357  24.226  0.00  0.00    -0.320 NA
ATOM     14  H   UNL     1       9.428  -4.327  24.232  0.00  0.00    +0.119 HD
ATOM     15  H   UNL     1      10.647  -3.361  23.738  0.00  0.00    +0.119 HD
ENDBRANCH  12  13
BRANCH  12  16
ATOM     16  C   UNL     1       7.963  -3.417  22.422  0.00  0.00    +0.063 C 
BRANCH  16  17
ATOM     17  C   UNL     1       6.676  -4.025  22.948  0.00  0.00    -0.045 A 
ATOM     18  C   UNL     1       5.545  -3.211  23.123  0.00  0.00    +0.004 A 
ATOM     19  C   UNL     1       4.393  -3.707  23.738  0.00  0.00    +0.000 A 
ATOM     20  C   UNL     1       4.351  -5.025  24.180  0.00  0.00    +0.000 A 
ATOM     21  C   UNL     1       5.455  -5.854  23.989  0.00  0.00    +0.000 A 
ATOM     22  C   UNL     1       6.612  -5.358  23.379  0.00  0.00    +0.004 A 
ENDBRANCH  16  17
ENDBRANCH  12  16
ENDBRANCH   5  12
ENDBRANCH   1   7
BRANCH   2  23
ATOM     23  C   UNL     1       5.248  -0.027  25.875  0.00  0.00    +0.141 C 
BRANCH  23  24
ATOM     24  C   UNL     1       4.951   1.125  26.849  0.00  0.00    +0.168 C 
ATOM     25  O   UNL     1       5.681   1.332  27.826  0.00  0.00    -0.294 OA
BRANCH  24  26
ATOM     26  C   UNL     1       3.715   1.956  26.602  0.00  0.00    +0.184 C 
ATOM     27 CL   UNL     1       3.791   2.643  24.973  0.00  0.00    -0.117 Cl
ENDBRANCH  24  26
ENDBRANCH  23  24
BRANCH  23  28
ATOM     28  C   UNL     1       4.800  -1.386  26.453  0.00  0.00    +0.033 C 
BRANCH  28  29
ATOM     29  C   UNL     1       5.889  -2.081  27.277  0.00  0.00    +0.039 C 
BRANCH  29  30
ATOM     30  C   UNL     1       6.014  -3.571  26.969  0.00  0.00    +0.196 C 
BRANCH  30  31
ATOM     31  N   UNL     1       7.412  -3.874  26.604  0.00  0.00    -0.279 N 
ATOM     32  H   UNL     1       7.939  -3.151  26.130  0.00  0.00    +0.258 HD
ATOM     33  C   UNL     1       8.050  -5.025  26.852  0.00  0.00    +0.341 C 
ATOM     34  N   UNL     1       9.319  -5.166  26.452  0.00  0.00    -0.292 N 
ATOM     35  H   UNL     1       9.834  -6.019  26.621  0.00  0.00    +0.255 HD
ATOM     36  H   UNL     1       9.811  -4.424  25.971  0.00  0.00    +0.255 HD
ATOM     37  N   UNL     1       7.462  -6.042  27.487  0.00  0.00    -0.292 N 
ATOM     38  H   UNL     1       7.949  -6.908  27.668  0.00  0.00    +0.255 HD
ATOM     39  H   UNL     1       6.503  -5.972  27.799  0.00  0.00    +0.255 HD
ENDBRANCH  30  31
ENDBRANCH  29  30
ENDBRANCH  28  29
ENDBRANCH  23  28
ENDBRANCH   2  23
TORSDOF 12
ENDMDL
MODEL 9
REMARK VINA RESULT:      -6.5      3.260      8.128
REMARK  Name = 
REMARK  12 active torsions:
REMARK  status: ('A' for Active; 'I' for Inactive)
REMARK    1  A    between atoms: C_2  and  N_3
REMARK    2  A    between atoms: C_2  and  C_4
REMARK    3  A    between atoms: C_2  and  C_11
REMARK    4  A    between atoms: C_4  and  C_5
REMARK    5  A    between atoms: C_17  and  C_19
REMARK    6  A    between atoms: N_21  and  C_22
REMARK    7  A    between atoms: C_22  and  C_24
REMARK    8  A    between atoms: C_22  and  C_33
REMARK    9  A    between atoms: C_24  and  C_25
REMARK   10  A    between atoms: C_25  and  C_26
REMARK   11  A    between atoms: C_26  and  N_27
REMARK   12  A    between atoms: C_33  and  C_35
REMARK                            x       y       z     vdW  Elec       q    Type
REMARK                         _______ _______ _______ _____ _____    ______ ____
ROOT
ATOM      1  C   UNL     1       8.121  -3.459  25.376  0.00  0.00    +0.234 C 
ATOM      2  N   UNL     1       7.502  -2.924  24.264  0.00  0.00    -0.304 N 
ATOM      3  H   UNL     1       6.848  -2.161  24.425  0.00  0.00    +0.149 HD
ATOM      4  O   UNL     1       9.019  -4.293  25.277  0.00  0.00    -0.274 OA
ENDROOT
BRANCH   1   7
ATOM      5  C   UNL     1       6.341  -0.915  27.079  0.00  0.00    +0.233 C 
ATOM      6  N   UNL     1       6.271  -2.244  26.673  0.00  0.00    -0.289 N 
ATOM      7  C   UNL     1       7.401  -3.188  26.713  0.00  0.00    +0.162 C 
ATOM      8  C   UNL     1       6.779  -4.518  27.187  0.00  0.00    +0.033 C 
ATOM      9  C   UNL     1       5.331  -4.207  27.546  0.00  0.00    +0.021 C 
ATOM     10  C   UNL     1       5.008  -2.954  26.761  0.00  0.00    +0.108 C 
ATOM     11  O   UNL     1       5.366  -0.360  27.599  0.00  0.00    -0.274 OA
BRANCH   5  12
ATOM     12  C   UNL     1       7.638  -0.088  26.865  0.00  0.00    +0.142 C 
BRANCH  12  13
ATOM     13  N   UNL     1       8.215   0.316  28.167  0.00  0.00    -0.320 NA
ATOM     14  H   UNL     1       7.444   0.404  28.830  0.00  0.00    +0.119 HD
ATOM     15  H   UNL     1       8.791  -0.456  28.507  0.00  0.00    +0.119 HD
ENDBRANCH  12  13
BRANCH  12  16
ATOM     16  C   UNL     1       7.415   1.072  25.878  0.00  0.00    +0.063 C 
BRANCH  16  17
ATOM     17  C   UNL     1       8.604   1.497  25.037  0.00  0.00    -0.045 A 
ATOM     18  C   UNL     1       9.735   0.667  24.964  0.00  0.00    +0.004 A 
ATOM     19  C   UNL     1      10.898   1.095  24.317  0.00  0.00    +0.000 A 
ATOM     20  C   UNL     1      10.944   2.353  23.727  0.00  0.00    +0.000 A 
ATOM     21  C   UNL     1       9.822   3.177  23.766  0.00  0.00    +0.000 A 
ATOM     22  C   UNL     1       8.658   2.754  24.419  0.00  0.00    +0.004 A 
ENDBRANCH  16  17
ENDBRANCH  12  16
ENDBRANCH   5  12
ENDBRANCH   1   7
BRANCH   2  23
ATOM     23  C   UNL     1       7.940  -3.184  22.892  0.00  0.00    +0.141 C 
BRANCH  23  24
ATOM     24  C   UNL     1       8.834  -2.004  22.478  0.00  0.00    +0.168 C 
ATOM     25  O   UNL     1      10.064  -2.125  22.437  0.00  0.00    -0.294 OA
BRANCH  24  26
ATOM     26  C   UNL     1       8.165  -0.684  22.177  0.00  0.00    +0.184 C 
ATOM     27 CL   UNL     1       9.269   0.328  21.235  0.00  0.00    -0.117 Cl
ENDBRANCH  24  26
ENDBRANCH  23  24
BRANCH  23  28
ATOM     28  C   UNL     1       6.760  -3.369  21.915  0.00  0.00    +0.033 C 
BRANCH  28  29
ATOM     29  C   UNL     1       5.536  -4.026  22.561  0.00  0.00    +0.039 C 
BRANCH  29  30
ATOM     30  C   UNL     1       5.615  -5.551  22.581  0.00  0.00    +0.196 C 
BRANCH  30  31
ATOM     31  N   UNL     1       5.410  -6.029  23.962  0.00  0.00    -0.279 N 
ATOM     32  H   UNL     1       6.104  -5.774  24.654  0.00  0.00    +0.258 HD
ATOM     33  C   UNL     1       4.377  -6.769  24.386  0.00  0.00    +0.341 C 
ATOM     34  N   UNL     1       4.326  -7.142  25.669  0.00  0.00    -0.292 N 
ATOM     35  H   UNL     1       3.563  -7.700  26.026  0.00  0.00    +0.255 HD
ATOM     36  H   UNL     1       5.045  -6.877  26.330  0.00  0.00    +0.255 HD
ATOM     37  N   UNL     1       3.392  -7.148  23.568  0.00  0.00    -0.292 N 
ATOM     38  H   UNL     1       2.618  -7.709  23.894  0.00  0.00    +0.255 HD
ATOM     39  H   UNL     1       3.401  -6.889  22.591  0.00  0.00    +0.255 HD
ENDBRANCH  30  31
ENDBRANCH  29  30
ENDBRANCH  28  29
ENDBRANCH  23  28
ENDBRANCH   2  23
TORSDOF 12
ENDMDL
