MODEL 1
REMARK VINA RESULT:      -6.6      0.000      0.000
REMARK  Name = 
REMARK  11 active torsions:
REMARK  status: ('A' for Active; 'I' for Inactive)
REMARK    1  A    between atoms: C_2  and  C_3
REMARK    2  A    between atoms: C_2  and  P_19
REMARK    3  A    between atoms: C_2  and  S_23
REMARK    4  A    between atoms: C_3  and  C_4
REMARK    5  A    between atoms: C_4  and  C_5
REMARK    6  A    between atoms: C_5  and  C_6
REMARK    7  A    between atoms: C_10  and  O_11
REMARK    8  A    between atoms: O_11  and  C_12
REMARK    9  A    between atoms: P_19  and  O_20
REMARK   10  A    between atoms: P_19  and  O_21
REMARK   11  A    between atoms: S_23  and  O_24
REMARK                            x       y       z     vdW  Elec       q    Type
REMARK                         _______ _______ _______ _____ _____    ______ ____
ROOT
ATOM      1  C   UNL     1       8.326  -3.642  23.715  0.00  0.00    +0.007 C 
ENDROOT
BRANCH   1   2
ATOM      2  C   UNL     1       6.841  -3.809  24.021  0.00  0.00    +0.041 C 
BRANCH   2   3
ATOM      3  C   UNL     1       6.427  -5.219  24.424  0.00  0.00    +0.272 C 
BRANCH   3   4
ATOM      4  S   UNL     1       5.486  -5.352  25.918  0.00  0.00    +0.094 S 
ATOM      5  O   UNL     1       5.845  -4.267  26.797  0.00  0.00    -0.147 OA
ATOM      6  O   UNL     1       5.529  -6.727  26.387  0.00  0.00    -0.147 OA
BRANCH   4   7
ATOM      7  O   UNL     1       3.994  -5.080  25.365  0.00  0.00    -0.253 OA
ATOM      8  H   UNL     1       3.536  -4.385  25.896  0.00  0.00    +0.244 HD
ENDBRANCH   4   7
ENDBRANCH   3   4
BRANCH   3   9
ATOM      9  P   UNL     1       5.315  -5.913  23.251  0.00  0.00    +0.354 P 
ATOM     10  O   UNL     1       4.319  -4.991  22.622  0.00  0.00    -0.257 OA
BRANCH   9  11
ATOM     11  O   UNL     1       4.666  -7.250  23.863  0.00  0.00    -0.323 OA
ATOM     12  H   UNL     1       3.930  -7.073  24.500  0.00  0.00    +0.220 HD
ENDBRANCH   9  11
BRANCH   9  13
ATOM     13  O   UNL     1       6.327  -6.532  22.166  0.00  0.00    -0.323 OA
ATOM     14  H   UNL     1       5.977  -6.513  21.255  0.00  0.00    +0.220 HD
ENDBRANCH   9  13
ENDBRANCH   3   9
ENDBRANCH   2   3
ENDBRANCH   1   2
BRANCH   1  15
ATOM     15  C   UNL     1       8.920  -2.433  24.451  0.00  0.00    +0.035 C 
BRANCH  15  16
ATOM     16  C   UNL     1       9.147  -1.202  23.600  0.00  0.00    -0.044 A 
ATOM     17  C   UNL     1       9.741  -0.059  24.143  0.00  0.00    +0.050 A 
ATOM     18  C   UNL     1      10.250   0.951  23.329  0.00  0.00    +0.129 A 
ATOM     19  C   UNL     1       9.964   0.938  21.969  0.00  0.00    +0.046 A 
ATOM     20  C   UNL     1       9.267  -0.142  21.421  0.00  0.00    +0.004 A 
ATOM     21  C   UNL     1       8.898  -1.227  22.225  0.00  0.00    +0.004 A 
BRANCH  18  22
ATOM     22  O   UNL     1      11.061   1.947  23.831  0.00  0.00    -0.456 OA
BRANCH  22  23
ATOM     23  C   UNL     1      10.598   3.255  23.803  0.00  0.00    +0.128 A 
ATOM     24  C   UNL     1      11.543   4.240  23.515  0.00  0.00    +0.046 A 
ATOM     25  C   UNL     1      11.161   5.584  23.443  0.00  0.00    +0.004 A 
ATOM     26  C   UNL     1       9.828   5.948  23.635  0.00  0.00    +0.000 A 
ATOM     27  C   UNL     1       8.881   4.975  23.935  0.00  0.00    +0.004 A 
ATOM     28  C   UNL     1       9.274   3.641  24.062  0.00  0.00    +0.046 A 
ENDBRANCH  22  23
ENDBRANCH  18  22
ENDBRANCH  15  16
ENDBRANCH   1  15
TORSDOF 11
ENDMDL
MODEL 2
REMARK VINA RESULT:      -6.5      2.200      2.825
REMARK  Name = 
REMARK  11 active torsions:
REMARK  status: ('A' for Active; 'I' for Inactive)
REMARK    1  A    between atoms: C_2  and  C_3
REMARK    2  A    between atoms: C_2  and  P_19
REMARK    3  A    between atoms: C_2  and  S_23
REMARK    4  A    between atoms: C_3  and  C_4
REMARK    5  A    between atoms: C_4  and  C_5
REMARK    6  A    between atoms: C_5  and  C_6
REMARK    7  A    between atoms: C_10  and  O_11
REMARK    8  A    between atoms: O_11  and  C_12
REMARK    9  A    between atoms: P_19  and  O_20
REMARK   10  A    between atoms: P_19  and  O_21
REMARK   11  A    between atoms: S_23  and  O_24
REMARK                            x       y       z     vdW  Elec       q    Type
REMARK                         _______ _______ _______ _____ _____    ______ ____
ROOT
ATOM      1  C   UNL     1       8.729  -1.275  26.044  0.00  0.00    +0.007 C 
ENDROOT
BRANCH   1   2
ATOM      2  C   UNL     1       8.341  -2.748  26.129  0.00  0.00    +0.041 C 
BRANCH   2   3
ATOM      3  C   UNL     1       8.543  -3.536  24.841  0.00  0.00    +0.272 C 
BRANCH   3   4
ATOM      4  S   UNL     1       8.813  -5.275  25.031  0.00  0.00    +0.094 S 
ATOM      5  O   UNL     1       8.715  -5.909  23.741  0.00  0.00    -0.147 OA
ATOM      6  O   UNL     1       8.026  -5.760  26.154  0.00  0.00    -0.147 OA
BRANCH   4   7
ATOM      7  O   UNL     1      10.361  -5.296  25.486  0.00  0.00    -0.253 OA
ATOM      8  H   UNL     1      10.873  -5.976  24.986  0.00  0.00    +0.244 HD
ENDBRANCH   4   7
ENDBRANCH   3   4
BRANCH   3   9
ATOM      9  P   UNL     1       7.087  -3.518  23.853  0.00  0.00    +0.354 P 
ATOM     10  O   UNL     1       6.256  -2.275  23.880  0.00  0.00    -0.257 OA
BRANCH   9  11
ATOM     11  O   UNL     1       6.250  -4.864  24.119  0.00  0.00    -0.323 OA
ATOM     12  H   UNL     1       5.860  -5.252  23.297  0.00  0.00    +0.220 HD
ENDBRANCH   9  11
BRANCH   9  13
ATOM     13  O   UNL     1       7.681  -3.809  22.387  0.00  0.00    -0.323 OA
ATOM     14  H   UNL     1       8.584  -3.462  22.260  0.00  0.00    +0.220 HD
ENDBRANCH   9  13
ENDBRANCH   3   9
ENDBRANCH   2   3
ENDBRANCH   1   2
BRANCH   1  15
ATOM     15  C   UNL     1       9.764  -1.029  24.937  0.00  0.00    +0.035 C 
BRANCH  15  16
ATOM     16  C   UNL     1       9.348  -0.043  23.867  0.00  0.00    -0.044 A 
ATOM     17  C   UNL     1       8.993   1.267  24.203  0.00  0.00    +0.050 A 
ATOM     18  C   UNL     1       8.921   2.269  23.238  0.00  0.00    +0.129 A 
ATOM     19  C   UNL     1       8.976   1.925  21.893  0.00  0.00    +0.046 A 
ATOM     20  C   UNL     1       9.215   0.596  21.530  0.00  0.00    +0.004 A 
ATOM     21  C   UNL     1       9.442  -0.374  22.512  0.00  0.00    +0.004 A 
BRANCH  18  22
ATOM     22  O   UNL     1       8.830   3.601  23.582  0.00  0.00    -0.456 OA
BRANCH  22  23
ATOM     23  C   UNL     1      10.000   4.341  23.682  0.00  0.00    +0.128 A 
ATOM     24  C   UNL     1       9.886   5.602  24.269  0.00  0.00    +0.046 A 
ATOM     25  C   UNL     1      11.018   6.408  24.431  0.00  0.00    +0.004 A 
ATOM     26  C   UNL     1      12.273   5.948  24.029  0.00  0.00    +0.000 A 
ATOM     27  C   UNL     1      12.393   4.699  23.431  0.00  0.00    +0.004 A 
ATOM     28  C   UNL     1      11.256   3.919  23.219  0.00  0.00    +0.046 A 
ENDBRANCH  22  23
ENDBRANCH  18  22
ENDBRANCH  15  16
ENDBRANCH   1  15
TORSDOF 11
ENDMDL
MODEL 3
REMARK VINA RESULT:      -6.5      2.298      3.490
REMARK  Name = 
REMARK  11 active torsions:
REMARK  status: ('A' for Active; 'I' for Inactive)
REMARK    1  A    between atoms: C_2  and  C_3
REMARK    2  A    between atoms: C_2  and  P_19
REMARK    3  A    between atoms: C_2  and  S_23
REMARK    4  A    between atoms: C_3  and  C_4
REMARK    5  A    between atoms: C_4  and  C_5
REMARK    6  A    between atoms: C_5  and  C_6
REMARK    7  A    between atoms: C_10  and  O_11
REMARK    8  A    between atoms: O_11  and  C_12
REMARK    9  A    between atoms: P_19  and  O_20
REMARK   10  A    between atoms: P_19  and  O_21
REMARK   11  A    between atoms: S_23  and  O_24
REMARK                            x       y       z     vdW  Elec       q    Type
REMARK                         _______ _______ _______ _____ _____    ______ ____
ROOT
ATOM      1  C   UNL     1       6.407  -5.118  23.609  0.00  0.00    +0.007 C 
ENDROOT
BRANCH   1   2
ATOM      2  C   UNL     1       5.545  -4.982  24.860  0.00  0.00    +0.041 C 
BRANCH   2   3
ATOM      3  C   UNL     1       5.916  -5.927  25.996  0.00  0.00    +0.272 C 
BRANCH   3   4
ATOM      4  S   UNL     1       7.195  -5.366  27.083  0.00  0.00    +0.094 S 
ATOM      5  O   UNL     1       7.148  -6.136  28.300  0.00  0.00    -0.147 OA
ATOM      6  O   UNL     1       7.178  -3.912  27.129  0.00  0.00    -0.147 OA
BRANCH   4   7
ATOM      7  O   UNL     1       8.512  -5.804  26.260  0.00  0.00    -0.253 OA
ATOM      8  H   UNL     1       9.176  -5.075  26.232  0.00  0.00    +0.244 HD
ENDBRANCH   4   7
ENDBRANCH   3   4
BRANCH   3   9
ATOM      9  P   UNL     1       4.574  -6.130  27.116  0.00  0.00    +0.354 P 
ATOM     10  O   UNL     1       3.203  -6.241  26.529  0.00  0.00    -0.257 OA
BRANCH   9  11
ATOM     11  O   UNL     1       4.692  -5.037  28.288  0.00  0.00    -0.323 OA
ATOM     12  H   UNL     1       5.290  -4.282  28.062  0.00  0.00    +0.220 HD
ENDBRANCH   9  11
BRANCH   9  13
ATOM     13  O   UNL     1       5.000  -7.468  27.900  0.00  0.00    -0.323 OA
ATOM     14  H   UNL     1       5.947  -7.685  27.810  0.00  0.00    +0.220 HD
ENDBRANCH   9  13
ENDBRANCH   3   9
ENDBRANCH   2   3
ENDBRANCH   1   2
BRANCH   1  15
ATOM     15  C   UNL     1       6.516  -3.785  22.854  0.00  0.00    +0.035 C 
BRANCH  15  16
ATOM     16  C   UNL     1       7.886  -3.142  22.867  0.00  0.00    -0.044 A 
ATOM     17  C   UNL     1       8.225  -2.166  21.926  0.00  0.00    +0.050 A 
ATOM     18  C   UNL     1       9.331  -1.339  22.104  0.00  0.00    +0.129 A 
ATOM     19  C   UNL     1      10.246  -1.632  23.109  0.00  0.00    +0.046 A 
ATOM     20  C   UNL     1       9.985  -2.681  23.994  0.00  0.00    +0.004 A 
ATOM     21  C   UNL     1       8.790  -3.405  23.900  0.00  0.00    +0.004 A 
BRANCH  18  22
ATOM     22  O   UNL     1       9.528  -0.214  21.331  0.00  0.00    -0.456 OA
BRANCH  22  23
ATOM     23  C   UNL     1       9.252   1.028  21.885  0.00  0.00    +0.128 A 
ATOM     24  C   UNL     1       7.985   1.552  21.628  0.00  0.00    +0.046 A 
ATOM     25  C   UNL     1       7.611   2.788  22.166  0.00  0.00    +0.004 A 
ATOM     26  C   UNL     1       8.494   3.496  22.983  0.00  0.00    +0.000 A 
ATOM     27  C   UNL     1       9.763   2.987  23.234  0.00  0.00    +0.004 A 
ATOM     28  C   UNL     1      10.155   1.781  22.651  0.00  0.00    +0.046 A 
ENDBRANCH  22  23
ENDBRANCH  18  22
ENDBRANCH  15  16
ENDBRANCH   1  15
TORSDOF 11
ENDMDL
MODEL 4
REMARK VINA RESULT:      -6.5      1.524      2.445
REMARK  Name = 
REMARK  11 active torsions:
REMARK  status: ('A' for Active; 'I' for Inactive)
REMARK    1  A    between atoms: C_2  and  C_3
REMARK    2  A    between atoms: C_2  and  P_19
REMARK    3  A    between atoms: C_2  and  S_23
REMARK    4  A    between atoms: C_3  and  C_4
REMARK    5  A    between atoms: C_4  and  C_5
REMARK    6  A    between atoms: C_5  and  C_6
REMARK    7  A    between atoms: C_10  and  O_11
REMARK    8  A    between atoms: O_11  and  C_12
REMARK    9  A    between atoms: P_19  and  O_20
REMARK   10  A    between atoms: P_19  and  O_21
REMARK   11  A    between atoms: S_23  and  O_24
REMARK                            x       y       z     vdW  Elec       q    Type
REMARK                         _______ _______ _______ _____ _____    ______ ____
ROOT
ATOM      1  C   UNL     1       8.886  -2.839  24.981  0.00  0.00    +0.007 C 
ENDROOT
BRANCH   1   2
ATOM      2  C   UNL     1       7.874  -3.943  24.692  0.00  0.00    +0.041 C 
BRANCH   2   3
ATOM      3  C   UNL     1       7.310  -3.937  23.277  0.00  0.00    +0.272 C 
BRANCH   3   4
ATOM      4  S   UNL     1       7.007  -5.526  22.558  0.00  0.00    +0.094 S 
ATOM      5  O   UNL     1       6.964  -5.391  21.123  0.00  0.00    -0.147 OA
ATOM      6  O   UNL     1       5.917  -6.172  23.271  0.00  0.00    -0.147 OA
BRANCH   4   7
ATOM      7  O   UNL     1       8.365  -6.304  22.950  0.00  0.00    -0.253 OA
ATOM      8  H   UNL     1       8.468  -6.376  23.929  0.00  0.00    +0.244 HD
ENDBRANCH   4   7
ENDBRANCH   3   4
BRANCH   3   9
ATOM      9  P   UNL     1       5.701  -3.227  23.238  0.00  0.00    +0.354 P 
ATOM     10  O   UNL     1       4.902  -3.272  24.502  0.00  0.00    -0.257 OA
BRANCH   9  11
ATOM     11  O   UNL     1       4.910  -3.776  21.951  0.00  0.00    -0.323 OA
ATOM     12  H   UNL     1       5.298  -4.605  21.577  0.00  0.00    +0.220 HD
ENDBRANCH   9  11
BRANCH   9  13
ATOM     13  O   UNL     1       6.018  -1.718  22.784  0.00  0.00    -0.323 OA
ATOM     14  H   UNL     1       6.557  -1.225  23.430  0.00  0.00    +0.220 HD
ENDBRANCH   9  13
ENDBRANCH   3   9
ENDBRANCH   2   3
ENDBRANCH   1   2
BRANCH   1  15
ATOM     15  C   UNL     1       9.792  -2.575  23.770  0.00  0.00    +0.035 C 
BRANCH  15  16
ATOM     16  C   UNL     1       9.696  -1.186  23.178  0.00  0.00    -0.044 A 
ATOM     17  C   UNL     1      10.166  -0.075  23.885  0.00  0.00    +0.050 A 
ATOM     18  C   UNL     1      10.387   1.147  23.254  0.00  0.00    +0.129 A 
ATOM     19  C   UNL     1       9.922   1.339  21.959  0.00  0.00    +0.046 A 
ATOM     20  C   UNL     1       9.340   0.270  21.269  0.00  0.00    +0.004 A 
ATOM     21  C   UNL     1       9.267  -0.996  21.861  0.00  0.00    +0.004 A 
BRANCH  18  22
ATOM     22  O   UNL     1      11.087   2.164  23.868  0.00  0.00    -0.456 OA
BRANCH  22  23
ATOM     23  C   UNL     1      10.555   3.446  23.840  0.00  0.00    +0.128 A 
ATOM     24  C   UNL     1      11.435   4.474  23.501  0.00  0.00    +0.046 A 
ATOM     25  C   UNL     1      10.980   5.795  23.425  0.00  0.00    +0.004 A 
ATOM     26  C   UNL     1       9.638   6.092  23.665  0.00  0.00    +0.000 A 
ATOM     27  C   UNL     1       8.757   5.075  24.017  0.00  0.00    +0.004 A 
ATOM     28  C   UNL     1       9.224   3.766  24.147  0.00  0.00    +0.046 A 
ENDBRANCH  22  23
ENDBRANCH  18  22
ENDBRANCH  15  16
ENDBRANCH   1  15
TORSDOF 11
ENDMDL
MODEL 5
REMARK VINA RESULT:      -6.4      2.567      4.064
REMARK  Name = 
REMARK  11 active torsions:
REMARK  status: ('A' for Active; 'I' for Inactive)
REMARK    1  A    between atoms: C_2  and  C_3
REMARK    2  A    between atoms: C_2  and  P_19
REMARK    3  A    between atoms: C_2  and  S_23
REMARK    4  A    between atoms: C_3  and  C_4
REMARK    5  A    between atoms: C_4  and  C_5
REMARK    6  A    between atoms: C_5  and  C_6
REMARK    7  A    between atoms: C_10  and  O_11
REMARK    8  A    between atoms: O_11  and  C_12
REMARK    9  A    between atoms: P_19  and  O_20
REMARK   10  A    between atoms: P_19  and  O_21
REMARK   11  A    between atoms: S_23  and  O_24
REMARK                            x       y       z     vdW  Elec       q    Type
REMARK                         _______ _______ _______ _____ _____    ______ ____
ROOT
ATOM      1  C   UNL     1       5.227  -2.275  26.708  0.00  0.00    +0.007 C 
ENDROOT
BRANCH   1   2
ATOM      2  C   UNL     1       4.904  -3.718  27.083  0.00  0.00    +0.041 C 
BRANCH   2   3
ATOM      3  C   UNL     1       6.011  -4.443  27.838  0.00  0.00    +0.272 C 
BRANCH   3   4
ATOM      4  S   UNL     1       5.606  -6.058  28.442  0.00  0.00    +0.094 S 
ATOM      5  O   UNL     1       6.459  -6.367  29.562  0.00  0.00    -0.147 OA
ATOM      6  O   UNL     1       5.503  -6.975  27.318  0.00  0.00    -0.147 OA
BRANCH   4   7
ATOM      7  O   UNL     1       4.112  -5.811  28.998  0.00  0.00    -0.253 OA
ATOM      8  H   UNL     1       3.572  -5.289  28.358  0.00  0.00    +0.244 HD
ENDBRANCH   4   7
ENDBRANCH   3   4
BRANCH   3   9
ATOM      9  P   UNL     1       7.371  -4.800  26.782  0.00  0.00    +0.354 P 
ATOM     10  O   UNL     1       8.366  -3.707  26.554  0.00  0.00    -0.257 OA
BRANCH   9  11
ATOM     11  O   UNL     1       6.829  -5.476  25.428  0.00  0.00    -0.323 OA
ATOM     12  H   UNL     1       7.344  -5.214  24.625  0.00  0.00    +0.220 HD
ENDBRANCH   9  11
BRANCH   9  13
ATOM     13  O   UNL     1       8.033  -6.069  27.515  0.00  0.00    -0.323 OA
ATOM     14  H   UNL     1       8.694  -5.824  28.190  0.00  0.00    +0.220 HD
ENDBRANCH   9  13
ENDBRANCH   3   9
ENDBRANCH   2   3
ENDBRANCH   1   2
BRANCH   1  15
ATOM     15  C   UNL     1       4.724  -1.935  25.297  0.00  0.00    +0.035 C 
BRANCH  15  16
ATOM     16  C   UNL     1       5.679  -2.262  24.171  0.00  0.00    -0.044 A 
ATOM     17  C   UNL     1       6.963  -1.709  24.141  0.00  0.00    +0.050 A 
ATOM     18  C   UNL     1       7.958  -2.229  23.316  0.00  0.00    +0.129 A 
ATOM     19  C   UNL     1       7.618  -3.160  22.341  0.00  0.00    +0.046 A 
ATOM     20  C   UNL     1       6.308  -3.643  22.277  0.00  0.00    +0.004 A 
ATOM     21  C   UNL     1       5.355  -3.228  23.214  0.00  0.00    +0.004 A 
BRANCH  18  22
ATOM     22  O   UNL     1       9.281  -1.870  23.462  0.00  0.00    -0.456 OA
BRANCH  22  23
ATOM     23  C   UNL     1       9.635  -0.544  23.255  0.00  0.00    +0.128 A 
ATOM     24  C   UNL     1      10.210   0.119  24.339  0.00  0.00    +0.046 A 
ATOM     25  C   UNL     1      10.619   1.451  24.214  0.00  0.00    +0.004 A 
ATOM     26  C   UNL     1      10.477   2.120  22.997  0.00  0.00    +0.000 A 
ATOM     27  C   UNL     1       9.893   1.471  21.915  0.00  0.00    +0.004 A 
ATOM     28  C   UNL     1       9.435   0.160  22.057  0.00  0.00    +0.046 A 
ENDBRANCH  22  23
ENDBRANCH  18  22
ENDBRANCH  15  16
ENDBRANCH   1  15
TORSDOF 11
ENDMDL
MODEL 6
REMARK VINA RESULT:      -6.4      2.198      2.720
REMARK  Name = 
REMARK  11 active torsions:
REMARK  status: ('A' for Active; 'I' for Inactive)
REMARK    1  A    between atoms: C_2  and  C_3
REMARK    2  A    between atoms: C_2  and  P_19
REMARK    3  A    between atoms: C_2  and  S_23
REMARK    4  A    between atoms: C_3  and  C_4
REMARK    5  A    between atoms: C_4  and  C_5
REMARK    6  A    between atoms: C_5  and  C_6
REMARK    7  A    between atoms: C_10  and  O_11
REMARK    8  A    between atoms: O_11  and  C_12
REMARK    9  A    between atoms: P_19  and  O_20
REMARK   10  A    between atoms: P_19  and  O_21
REMARK   11  A    between atoms: S_23  and  O_24
REMARK                            x       y       z     vdW  Elec       q    Type
REMARK                         _______ _______ _______ _____ _____    ______ ____
ROOT
ATOM      1  C   UNL     1       8.003  -1.035  25.933  0.00  0.00    +0.007 C 
ENDROOT
BRANCH   1   2
ATOM      2  C   UNL     1       7.673  -2.372  25.275  0.00  0.00    +0.041 C 
BRANCH   2   3
ATOM      3  C   UNL     1       8.225  -3.593  26.000  0.00  0.00    +0.272 C 
BRANCH   3   4
ATOM      4  S   UNL     1       7.021  -4.723  26.638  0.00  0.00    +0.094 S 
ATOM      5  O   UNL     1       6.207  -4.041  27.612  0.00  0.00    -0.147 OA
ATOM      6  O   UNL     1       7.676  -5.978  26.972  0.00  0.00    -0.147 OA
BRANCH   4   7
ATOM      7  O   UNL     1       6.121  -4.987  25.325  0.00  0.00    -0.253 OA
ATOM      8  H   UNL     1       6.425  -4.434  24.565  0.00  0.00    +0.244 HD
ENDBRANCH   4   7
ENDBRANCH   3   4
BRANCH   3   9
ATOM      9  P   UNL     1       9.125  -4.630  24.901  0.00  0.00    +0.354 P 
ATOM     10  O   UNL     1       8.348  -5.343  23.841  0.00  0.00    -0.257 OA
BRANCH   9  11
ATOM     11  O   UNL     1      10.093  -5.590  25.751  0.00  0.00    -0.323 OA
ATOM     12  H   UNL     1      11.053  -5.448  25.561  0.00  0.00    +0.220 HD
ENDBRANCH   9  11
BRANCH   9  13
ATOM     13  O   UNL     1      10.188  -3.600  24.273  0.00  0.00    -0.323 OA
ATOM     14  H   UNL     1      11.114  -3.825  24.480  0.00  0.00    +0.220 HD
ENDBRANCH   9  13
ENDBRANCH   3   9
ENDBRANCH   2   3
ENDBRANCH   1   2
BRANCH   1  15
ATOM     15  C   UNL     1       9.420  -0.566  25.573  0.00  0.00    +0.035 C 
BRANCH  15  16
ATOM     16  C   UNL     1       9.520   0.317  24.349  0.00  0.00    -0.044 A 
ATOM     17  C   UNL     1       9.744   1.692  24.477  0.00  0.00    +0.050 A 
ATOM     18  C   UNL     1      10.156   2.464  23.394  0.00  0.00    +0.129 A 
ATOM     19  C   UNL     1      10.125   1.918  22.117  0.00  0.00    +0.046 A 
ATOM     20  C   UNL     1       9.790   0.571  21.950  0.00  0.00    +0.004 A 
ATOM     21  C   UNL     1       9.531  -0.235  23.065  0.00  0.00    +0.004 A 
BRANCH  18  22
ATOM     22  O   UNL     1      10.628   3.750  23.558  0.00  0.00    -0.456 OA
BRANCH  22  23
ATOM     23  C   UNL     1       9.709   4.776  23.729  0.00  0.00    +0.128 A 
ATOM     24  C   UNL     1      10.196   5.954  24.296  0.00  0.00    +0.046 A 
ATOM     25  C   UNL     1       9.345   7.049  24.485  0.00  0.00    +0.004 A 
ATOM     26  C   UNL     1       8.010   6.980  24.086  0.00  0.00    +0.000 A 
ATOM     27  C   UNL     1       7.513   5.806  23.532  0.00  0.00    +0.004 A 
ATOM     28  C   UNL     1       8.348   4.695  23.396  0.00  0.00    +0.046 A 
ENDBRANCH  22  23
ENDBRANCH  18  22
ENDBRANCH  15  16
ENDBRANCH   1  15
TORSDOF 11
ENDMDL
MODEL 7
REMARK VINA RESULT:      -6.3      2.303      3.956
REMARK  Name = 
REMARK  11 active torsions:
REMARK  status: ('A' for Active; 'I' for Inactive)
REMARK    1  A    between atoms: C_2  and  C_3
REMARK    2  A    between atoms: C_2  and  P_19
REMARK    3  A    between atoms: C_2  and  S_23
REMARK    4  A    between atoms: C_3  and  C_4
REMARK    5  A    between atoms: C_4  and  C_5
REMARK    6  A    between atoms: C_5  and  C_6
REMARK    7  A    between atoms: C_10  and  O_11
REMARK    8  A    between atoms: O_11  and  C_12
REMARK    9  A    between atoms: P_19  and  O_20
REMARK   10  A    between atoms: P_19  and  O_21
REMARK   11  A    between atoms: S_23  and  O_24
REMARK                            x       y       z     vdW  Elec       q    Type
REMARK                         _______ _______ _______ _____ _____    ______ ____
ROOT
ATOM      1  C   UNL     1       7.793  -4.799  25.433  0.00  0.00    +0.007 C 
ENDROOT
BRANCH   1   2
ATOM      2  C   UNL     1       6.626  -5.291  24.582  0.00  0.00    +0.041 C 
BRANCH   2   3
ATOM      3  C   UNL     1       6.577  -4.715  23.173  0.00  0.00    +0.272 C 
BRANCH   3   4
ATOM      4  S   UNL     1       5.685  -5.668  21.977  0.00  0.00    +0.094 S 
ATOM      5  O   UNL     1       6.089  -5.259  20.656  0.00  0.00    -0.147 OA
ATOM      6  O   UNL     1       4.278  -5.697  22.344  0.00  0.00    -0.147 OA
BRANCH   4   7
ATOM      7  O   UNL     1       6.283  -7.142  22.253  0.00  0.00    -0.253 OA
ATOM      8  H   UNL     1       5.718  -7.840  21.844  0.00  0.00    +0.244 HD
ENDBRANCH   4   7
ENDBRANCH   3   4
BRANCH   3   9
ATOM      9  P   UNL     1       5.686  -3.198  23.139  0.00  0.00    +0.354 P 
ATOM     10  O   UNL     1       4.617  -3.008  24.168  0.00  0.00    -0.257 OA
BRANCH   9  11
ATOM     11  O   UNL     1       5.200  -2.902  21.636  0.00  0.00    -0.323 OA
ATOM     12  H   UNL     1       4.270  -3.188  21.461  0.00  0.00    +0.220 HD
ENDBRANCH   9  11
BRANCH   9  13
ATOM     13  O   UNL     1       6.868  -2.119  23.298  0.00  0.00    -0.323 OA
ATOM     14  H   UNL     1       7.693  -2.380  22.848  0.00  0.00    +0.220 HD
ENDBRANCH   9  13
ENDBRANCH   3   9
ENDBRANCH   2   3
ENDBRANCH   1   2
BRANCH   1  15
ATOM     15  C   UNL     1       7.303  -4.065  26.690  0.00  0.00    +0.035 C 
BRANCH  15  16
ATOM     16  C   UNL     1       7.467  -2.561  26.668  0.00  0.00    -0.044 A 
ATOM     17  C   UNL     1       8.712  -1.983  26.400  0.00  0.00    +0.050 A 
ATOM     18  C   UNL     1       8.829  -0.638  26.058  0.00  0.00    +0.129 A 
ATOM     19  C   UNL     1       7.731   0.201  26.207  0.00  0.00    +0.046 A 
ATOM     20  C   UNL     1       6.498  -0.338  26.588  0.00  0.00    +0.004 A 
ATOM     21  C   UNL     1       6.358  -1.717  26.776  0.00  0.00    +0.004 A 
BRANCH  18  22
ATOM     22  O   UNL     1       9.999  -0.120  25.543  0.00  0.00    -0.456 OA
BRANCH  22  23
ATOM     23  C   UNL     1       9.970   0.450  24.278  0.00  0.00    +0.128 A 
ATOM     24  C   UNL     1      10.205   1.824  24.213  0.00  0.00    +0.046 A 
ATOM     25  C   UNL     1      10.217   2.480  22.977  0.00  0.00    +0.004 A 
ATOM     26  C   UNL     1      10.018   1.761  21.798  0.00  0.00    +0.000 A 
ATOM     27  C   UNL     1       9.771   0.394  21.854  0.00  0.00    +0.004 A 
ATOM     28  C   UNL     1       9.703  -0.248  23.090  0.00  0.00    +0.046 A 
ENDBRANCH  22  23
ENDBRANCH  18  22
ENDBRANCH  15  16
ENDBRANCH   1  15
TORSDOF 11
ENDMDL
MODEL 8
REMARK VINA RESULT:      -6.3      1.495      2.213
REMARK  Name = 
REMARK  11 active torsions:
REMARK  status: ('A' for Active; 'I' for Inactive)
REMARK    1  A    between atoms: C_2  and  C_3
REMARK    2  A    between atoms: C_2  and  P_19
REMARK    3  A    between atoms: C_2  and  S_23
REMARK    4  A    between atoms: C_3  and  C_4
REMARK    5  A    between atoms: C_4  and  C_5
REMARK    6  A    between atoms: C_5  and  C_6
REMARK    7  A    between atoms: C_10  and  O_11
REMARK    8  A    between atoms: O_11  and  C_12
REMARK    9  A    between atoms: P_19  and  O_20
REMARK   10  A    between atoms: P_19  and  O_21
REMARK   11  A    between atoms: S_23  and  O_24
REMARK                            x       y       z     vdW  Elec       q    Type
REMARK                         _______ _______ _______ _____ _____    ______ ____
ROOT
ATOM      1  C   UNL     1       8.488  -3.514  23.394  0.00  0.00    +0.007 C 
ENDROOT
BRANCH   1   2
ATOM      2  C   UNL     1       7.314  -3.385  24.360  0.00  0.00    +0.041 C 
BRANCH   2   3
ATOM      3  C   UNL     1       6.977  -4.657  25.127  0.00  0.00    +0.272 C 
BRANCH   3   4
ATOM      4  S   UNL     1       8.037  -5.041  26.492  0.00  0.00    +0.094 S 
ATOM      5  O   UNL     1       7.415  -6.064  27.295  0.00  0.00    -0.147 OA
ATOM      6  O   UNL     1       8.498  -3.804  27.100  0.00  0.00    -0.147 OA
BRANCH   4   7
ATOM      7  O   UNL     1       9.297  -5.698  25.726  0.00  0.00    -0.253 OA
ATOM      8  H   UNL     1       9.205  -5.614  24.747  0.00  0.00    +0.244 HD
ENDBRANCH   4   7
ENDBRANCH   3   4
BRANCH   3   9
ATOM      9  P   UNL     1       5.417  -4.521  25.929  0.00  0.00    +0.354 P 
ATOM     10  O   UNL     1       4.352  -3.741  25.225  0.00  0.00    -0.257 OA
BRANCH   9  11
ATOM     11  O   UNL     1       5.643  -4.077  27.457  0.00  0.00    -0.323 OA
ATOM     12  H   UNL     1       5.203  -4.677  28.109  0.00  0.00    +0.220 HD
ENDBRANCH   9  11
BRANCH   9  13
ATOM     13  O   UNL     1       5.006  -6.064  26.114  0.00  0.00    -0.323 OA
ATOM     14  H   UNL     1       4.041  -6.212  26.101  0.00  0.00    +0.220 HD
ENDBRANCH   9  13
ENDBRANCH   3   9
ENDBRANCH   2   3
ENDBRANCH   1   2
BRANCH   1  15
ATOM     15  C   UNL     1       9.644  -2.582  23.787  0.00  0.00    +0.035 C 
BRANCH  15  16
ATOM     16  C   UNL     1       9.592  -1.195  23.185  0.00  0.00    -0.044 A 
ATOM     17  C   UNL     1      10.103  -0.095  23.881  0.00  0.00    +0.050 A 
ATOM     18  C   UNL     1      10.362   1.114  23.239  0.00  0.00    +0.129 A 
ATOM     19  C   UNL     1       9.897   1.311  21.944  0.00  0.00    +0.046 A 
ATOM     20  C   UNL     1       9.277   0.257  21.266  0.00  0.00    +0.004 A 
ATOM     21  C   UNL     1       9.163  -1.001  21.869  0.00  0.00    +0.004 A 
BRANCH  18  22
ATOM     22  O   UNL     1      11.099   2.111  23.842  0.00  0.00    -0.456 OA
BRANCH  22  23
ATOM     23  C   UNL     1      10.608   3.409  23.810  0.00  0.00    +0.128 A 
ATOM     24  C   UNL     1      11.531   4.413  23.516  0.00  0.00    +0.046 A 
ATOM     25  C   UNL     1      11.120   5.748  23.441  0.00  0.00    +0.004 A 
ATOM     26  C   UNL     1       9.780   6.084  23.635  0.00  0.00    +0.000 A 
ATOM     27  C   UNL     1       8.855   5.092  23.941  0.00  0.00    +0.004 A 
ATOM     28  C   UNL     1       9.276   3.768  24.071  0.00  0.00    +0.046 A 
ENDBRANCH  22  23
ENDBRANCH  18  22
ENDBRANCH  15  16
ENDBRANCH   1  15
TORSDOF 11
ENDMDL
MODEL 9
REMARK VINA RESULT:      -6.3      2.243      3.670
REMARK  Name = 
REMARK  11 active torsions:
REMARK  status: ('A' for Active; 'I' for Inactive)
REMARK    1  A    between atoms: C_2  and  C_3
REMARK    2  A    between atoms: C_2  and  P_19
REMARK    3  A    between atoms: C_2  and  S_23
REMARK    4  A    between atoms: C_3  and  C_4
REMARK    5  A    between atoms: C_4  and  C_5
REMARK    6  A    between atoms: C_5  and  C_6
REMARK    7  A    between atoms: C_10  and  O_11
REMARK    8  A    between atoms: O_11  and  C_12
REMARK    9  A    between atoms: P_19  and  O_20
REMARK   10  A    between atoms: P_19  and  O_21
REMARK   11  A    between atoms: S_23  and  O_24
REMARK                            x       y       z     vdW  Elec       q    Type
REMARK                         _______ _______ _______ _____ _____    ______ ____
ROOT
ATOM      1  C   UNL     1       4.751  -2.847  25.816  0.00  0.00    +0.007 C 
ENDROOT
BRANCH   1   2
ATOM      2  C   UNL     1       4.159  -3.407  24.526  0.00  0.00    +0.041 C 
BRANCH   2   3
ATOM      3  C   UNL     1       4.565  -4.840  24.208  0.00  0.00    +0.272 C 
BRANCH   3   4
ATOM      4  S   UNL     1       3.238  -5.995  24.010  0.00  0.00    +0.094 S 
ATOM      5  O   UNL     1       3.761  -7.334  24.115  0.00  0.00    -0.147 OA
ATOM      6  O   UNL     1       2.434  -5.605  22.862  0.00  0.00    -0.147 OA
BRANCH   4   7
ATOM      7  O   UNL     1       2.365  -5.689  25.333  0.00  0.00    -0.253 OA
ATOM      8  H   UNL     1       1.506  -5.259  25.104  0.00  0.00    +0.244 HD
ENDBRANCH   4   7
ENDBRANCH   3   4
BRANCH   3   9
ATOM      9  P   UNL     1       5.350  -4.943  22.637  0.00  0.00    +0.354 P 
ATOM     10  O   UNL     1       5.323  -3.720  21.777  0.00  0.00    -0.257 OA
BRANCH   9  11
ATOM     11  O   UNL     1       4.858  -6.275  21.885  0.00  0.00    -0.323 OA
ATOM     12  H   UNL     1       5.343  -6.451  21.040  0.00  0.00    +0.220 HD
ENDBRANCH   9  11
BRANCH   9  13
ATOM     13  O   UNL     1       6.849  -5.355  23.045  0.00  0.00    -0.323 OA
ATOM     14  H   UNL     1       7.491  -5.252  22.317  0.00  0.00    +0.220 HD
ENDBRANCH   9  13
ENDBRANCH   3   9
ENDBRANCH   2   3
ENDBRANCH   1   2
BRANCH   1  15
ATOM     15  C   UNL     1       5.945  -1.925  25.532  0.00  0.00    +0.035 C 
BRANCH  15  16
ATOM     16  C   UNL     1       7.229  -2.626  25.144  0.00  0.00    -0.044 A 
ATOM     17  C   UNL     1       7.989  -2.174  24.061  0.00  0.00    +0.050 A 
ATOM     18  C   UNL     1       9.309  -2.583  23.880  0.00  0.00    +0.129 A 
ATOM     19  C   UNL     1       9.810  -3.627  24.649  0.00  0.00    +0.046 A 
ATOM     20  C   UNL     1       9.023  -4.175  25.666  0.00  0.00    +0.004 A 
ATOM     21  C   UNL     1       7.755  -3.648  25.939  0.00  0.00    +0.004 A 
BRANCH  18  22
ATOM     22  O   UNL     1      10.145  -1.955  22.981  0.00  0.00    -0.456 OA
BRANCH  22  23
ATOM     23  C   UNL     1      10.152  -0.568  22.939  0.00  0.00    +0.128 A 
ATOM     24  C   UNL     1      10.603   0.084  24.087  0.00  0.00    +0.046 A 
ATOM     25  C   UNL     1      10.665   1.481  24.126  0.00  0.00    +0.004 A 
ATOM     26  C   UNL     1      10.300   2.233  23.009  0.00  0.00    +0.000 A 
ATOM     27  C   UNL     1       9.837   1.592  21.865  0.00  0.00    +0.004 A 
ATOM     28  C   UNL     1       9.722   0.202  21.847  0.00  0.00    +0.046 A 
ENDBRANCH  22  23
ENDBRANCH  18  22
ENDBRANCH  15  16
ENDBRANCH   1  15
TORSDOF 11
ENDMDL
