MODEL 1
REMARK VINA RESULT:      -6.5      0.000      0.000
REMARK  Name = 
REMARK  18 active torsions:
REMARK  status: ('A' for Active; 'I' for Inactive)
REMARK    1  A    between atoms: C_8  and  C_40
REMARK    2  A    between atoms: C_12  and  C_14
REMARK    3  A    between atoms: C_14  and  N_16
REMARK    4  A    between atoms: C_14  and  C_36
REMARK    5  A    between atoms: C_17  and  C_19
REMARK    6  A    between atoms: C_19  and  N_21
REMARK    7  A    between atoms: C_19  and  C_30
REMARK    8  A    between atoms: C_22  and  C_24
REMARK    9  A    between atoms: C_36  and  C_37
REMARK   10  A    between atoms: C_36  and  C_38
REMARK   11  A    between atoms: C_36  and  C_39
REMARK   12  A    between atoms: N_42  and  C_43
REMARK   13  A    between atoms: C_43  and  C_45
REMARK   14  A    between atoms: C_43  and  C_48
REMARK   15  A    between atoms: C_45  and  C_46
REMARK   16  A    between atoms: C_46  and  C_47
REMARK   17  A    between atoms: C_48  and  C_50
REMARK   18  A    between atoms: N_52  and  C_53
REMARK                            x       y       z     vdW  Elec       q    Type
REMARK                         _______ _______ _______ _____ _____    ______ ____
ROOT
ATOM      1  C   UNL     1       7.274  -4.583  22.556  0.00  0.00    +0.012 C 
ATOM      2  C   UNL     1       7.602  -3.094  22.619  0.00  0.00    +0.112 C 
ATOM      3  N   UNL     1       6.622  -2.506  23.542  0.00  0.00    -0.288 N 
ATOM      4  C   UNL     1       6.612  -1.170  23.910  0.00  0.00    +0.237 C 
ATOM      5  O   UNL     1       5.669  -0.724  24.570  0.00  0.00    -0.274 OA
ATOM      6  C   UNL     1       5.493  -3.457  23.724  0.00  0.00    +0.165 C 
ATOM      7  C   UNL     1       6.303  -4.790  23.723  0.00  0.00    +0.023 C 
ATOM      8  C   UNL     1       5.641  -6.107  23.354  0.00  0.00    +0.006 C 
ATOM      9  C   UNL     1       5.411  -6.023  21.854  0.00  0.00    +0.001 C 
ATOM     10  C   UNL     1       6.498  -5.080  21.322  0.00  0.00    +0.005 C 
ENDROOT
BRANCH   6  11
ATOM     11  C   UNL     1       4.387  -3.542  24.825  0.00  0.00    +0.234 C 
ATOM     12  N   UNL     1       4.666  -3.276  26.147  0.00  0.00    -0.304 N 
ATOM     13  H   UNL     1       5.509  -2.721  26.313  0.00  0.00    +0.149 HD
ATOM     14  O   UNL     1       3.235  -3.838  24.484  0.00  0.00    -0.274 OA
BRANCH  12  15
ATOM     15  C   UNL     1       3.541  -3.118  27.104  0.00  0.00    +0.149 C 
BRANCH  15  16
ATOM     16  C   UNL     1       2.966  -1.692  27.218  0.00  0.00    +0.237 C 
ATOM     17  O   UNL     1       1.898  -1.317  26.742  0.00  0.00    -0.285 OA
BRANCH  16  18
ATOM     18  C   UNL     1       3.839  -0.675  27.981  0.00  0.00    +0.282 C 
ATOM     19  N   UNL     1       4.841  -0.076  27.230  0.00  0.00    -0.306 N 
ATOM     20  H   UNL     1       4.889  -0.309  26.241  0.00  0.00    +0.149 HD
ATOM     21  O   UNL     1       3.621  -0.442  29.163  0.00  0.00    -0.267 OA
BRANCH  19  22
ATOM     22  C   UNL     1       5.698   0.934  27.778  0.00  0.00    +0.073 C 
ATOM     23  C   UNL     1       6.531   1.854  26.926  0.00  0.00    +0.024 C 
ATOM     24  C   UNL     1       7.193   0.771  27.722  0.00  0.00    +0.024 C 
ENDBRANCH  19  22
ENDBRANCH  16  18
ENDBRANCH  15  16
BRANCH  15  25
ATOM     25  C   UNL     1       3.828  -3.722  28.499  0.00  0.00    +0.030 C 
BRANCH  25  26
ATOM     26  C   UNL     1       4.695  -4.983  28.559  0.00  0.00    -0.001 C 
ATOM     27  C   UNL     1       5.317  -5.267  29.915  0.00  0.00    +0.004 C 
ENDBRANCH  25  26
ENDBRANCH  15  25
ENDBRANCH  12  15
ENDBRANCH   6  11
BRANCH   4  28
ATOM     28  C   UNL     1       7.815  -0.237  23.468  0.00  0.00    +0.164 C 
BRANCH  28  29
ATOM     29  C   UNL     1       9.168  -0.491  24.243  0.00  0.00    -0.011 C 
ATOM     30  C   UNL     1       9.041  -1.502  25.395  0.00  0.00    +0.013 C 
ATOM     31  C   UNL     1       9.708   0.823  24.859  0.00  0.00    +0.013 C 
ATOM     32  C   UNL     1      10.245  -1.000  23.260  0.00  0.00    +0.013 C 
ENDBRANCH  28  29
BRANCH  28  33
ATOM     33  N   UNL     1       7.398   1.180  23.518  0.00  0.00    -0.302 N 
ATOM     34  H   UNL     1       6.881   1.516  24.333  0.00  0.00    +0.150 HD
ATOM     35  C   UNL     1       7.584   2.041  22.455  0.00  0.00    +0.234 C 
ATOM     36  O   UNL     1       8.068   1.658  21.386  0.00  0.00    -0.274 OA
BRANCH  35  37
ATOM     37  C   UNL     1       7.237   3.550  22.662  0.00  0.00    +0.162 C 
BRANCH  37  38
ATOM     38  C   UNL     1       7.633   4.069  24.079  0.00  0.00    +0.018 C 
ATOM     39  C   UNL     1       7.240   5.531  24.376  0.00  0.00    +0.006 C 
ATOM     40  C   UNL     1       7.938   6.533  23.459  0.00  0.00    +0.000 C 
ATOM     41  C   UNL     1       9.457   6.358  23.411  0.00  0.00    +0.000 C 
ATOM     42  C   UNL     1       9.937   4.909  23.360  0.00  0.00    +0.000 C 
ATOM     43  C   UNL     1       9.161   3.984  24.296  0.00  0.00    +0.006 C 
ENDBRANCH  37  38
BRANCH  37  44
ATOM     44  N   UNL     1       5.887   3.882  22.208  0.00  0.00    -0.298 N 
ATOM     45  H   UNL     1       5.786   4.517  21.419  0.00  0.00    +0.150 HD
ATOM     46  C   UNL     1       4.724   3.410  22.758  0.00  0.00    +0.264 C 
ATOM     47  O   UNL     1       4.699   2.608  23.688  0.00  0.00    -0.268 OA
BRANCH  46  48
ATOM     48  C   UNL     1       3.468   3.919  22.122  0.00  0.00    +0.143 A 
ATOM     49  C   UNL     1       3.170   5.271  22.196  0.00  0.00    +0.143 A 
ATOM     50  N   UNL     1       2.053   5.802  21.635  0.00  0.00    -0.259 NA
ATOM     51  C   UNL     1       1.248   4.920  20.999  0.00  0.00    +0.130 A 
ATOM     52  C   UNL     1       1.546   3.575  20.922  0.00  0.00    +0.131 A 
ATOM     53  N   UNL     1       2.651   3.022  21.486  0.00  0.00    -0.247 NA
ENDBRANCH  46  48
ENDBRANCH  37  44
ENDBRANCH  35  37
ENDBRANCH  28  33
ENDBRANCH   4  28
TORSDOF 14
ENDMDL
MODEL 2
REMARK VINA RESULT:      -6.3      3.014      5.942
REMARK  Name = 
REMARK  18 active torsions:
REMARK  status: ('A' for Active; 'I' for Inactive)
REMARK    1  A    between atoms: C_8  and  C_40
REMARK    2  A    between atoms: C_12  and  C_14
REMARK    3  A    between atoms: C_14  and  N_16
REMARK    4  A    between atoms: C_14  and  C_36
REMARK    5  A    between atoms: C_17  and  C_19
REMARK    6  A    between atoms: C_19  and  N_21
REMARK    7  A    between atoms: C_19  and  C_30
REMARK    8  A    between atoms: C_22  and  C_24
REMARK    9  A    between atoms: C_36  and  C_37
REMARK   10  A    between atoms: C_36  and  C_38
REMARK   11  A    between atoms: C_36  and  C_39
REMARK   12  A    between atoms: N_42  and  C_43
REMARK   13  A    between atoms: C_43  and  C_45
REMARK   14  A    between atoms: C_43  and  C_48
REMARK   15  A    between atoms: C_45  and  C_46
REMARK   16  A    between atoms: C_46  and  C_47
REMARK   17  A    between atoms: C_48  and  C_50
REMARK   18  A    between atoms: N_52  and  C_53
REMARK                            x       y       z     vdW  Elec       q    Type
REMARK                         _______ _______ _______ _____ _____    ______ ____
ROOT
ATOM      1  C   UNL     1       8.786  -3.298  26.322  0.00  0.00    +0.012 C 
ATOM      2  C   UNL     1       7.995  -1.998  26.434  0.00  0.00    +0.112 C 
ATOM      3  N   UNL     1       6.586  -2.395  26.555  0.00  0.00    -0.288 N 
ATOM      4  C   UNL     1       5.543  -1.499  26.729  0.00  0.00    +0.237 C 
ATOM      5  O   UNL     1       4.377  -1.900  26.672  0.00  0.00    -0.274 OA
ATOM      6  C   UNL     1       6.441  -3.812  26.127  0.00  0.00    +0.165 C 
ATOM      7  C   UNL     1       7.771  -4.375  26.716  0.00  0.00    +0.023 C 
ATOM      8  C   UNL     1       8.407  -5.633  26.147  0.00  0.00    +0.006 C 
ATOM      9  C   UNL     1       8.960  -5.215  24.795  0.00  0.00    +0.001 C 
ATOM     10  C   UNL     1       9.259  -3.715  24.917  0.00  0.00    +0.005 C 
ENDROOT
BRANCH   6  11
ATOM     11  C   UNL     1       5.300  -4.851  26.377  0.00  0.00    +0.234 C 
ATOM     12  N   UNL     1       4.070  -4.729  25.770  0.00  0.00    -0.304 N 
ATOM     13  H   UNL     1       4.053  -4.146  24.929  0.00  0.00    +0.149 HD
ATOM     14  O   UNL     1       5.527  -5.809  27.126  0.00  0.00    -0.274 OA
BRANCH  12  15
ATOM     15  C   UNL     1       3.118  -5.868  25.833  0.00  0.00    +0.149 C 
BRANCH  15  16
ATOM     16  C   UNL     1       3.235  -6.892  24.687  0.00  0.00    +0.237 C 
ATOM     17  O   UNL     1       3.005  -8.094  24.783  0.00  0.00    -0.285 OA
BRANCH  16  18
ATOM     18  C   UNL     1       3.700  -6.329  23.328  0.00  0.00    +0.282 C 
ATOM     19  N   UNL     1       5.074  -6.330  23.128  0.00  0.00    -0.306 N 
ATOM     20  H   UNL     1       5.653  -6.742  23.855  0.00  0.00    +0.149 HD
ATOM     21  O   UNL     1       2.877  -5.927  22.516  0.00  0.00    -0.267 OA
BRANCH  19  22
ATOM     22  C   UNL     1       5.659  -5.895  21.894  0.00  0.00    +0.073 C 
ATOM     23  C   UNL     1       7.136  -5.975  21.614  0.00  0.00    +0.024 C 
ATOM     24  C   UNL     1       6.492  -4.642  21.851  0.00  0.00    +0.024 C 
ENDBRANCH  19  22
ENDBRANCH  16  18
ENDBRANCH  15  16
BRANCH  15  25
ATOM     25  C   UNL     1       1.649  -5.432  26.051  0.00  0.00    +0.030 C 
BRANCH  25  26
ATOM     26  C   UNL     1       1.201  -4.113  25.415  0.00  0.00    -0.001 C 
ATOM     27  C   UNL     1       0.960  -2.980  26.395  0.00  0.00    +0.004 C 
ENDBRANCH  25  26
ENDBRANCH  15  25
ENDBRANCH  12  15
ENDBRANCH   6  11
BRANCH   4  28
ATOM     28  C   UNL     1       5.872   0.029  26.992  0.00  0.00    +0.164 C 
BRANCH  28  29
ATOM     29  C   UNL     1       4.836   0.777  27.922  0.00  0.00    -0.011 C 
ATOM     30  C   UNL     1       4.409  -0.038  29.155  0.00  0.00    +0.013 C 
ATOM     31  C   UNL     1       3.542   1.121  27.145  0.00  0.00    +0.013 C 
ATOM     32  C   UNL     1       5.439   2.115  28.402  0.00  0.00    +0.013 C 
ENDBRANCH  28  29
BRANCH  28  33
ATOM     33  N   UNL     1       6.078   0.728  25.707  0.00  0.00    -0.302 N 
ATOM     34  H   UNL     1       5.307   0.772  25.037  0.00  0.00    +0.150 HD
ATOM     35  C   UNL     1       7.308   1.230  25.330  0.00  0.00    +0.234 C 
ATOM     36  O   UNL     1       8.313   1.078  26.030  0.00  0.00    -0.274 OA
BRANCH  35  37
ATOM     37  C   UNL     1       7.386   2.074  24.018  0.00  0.00    +0.162 C 
BRANCH  37  38
ATOM     38  C   UNL     1       7.022   1.245  22.748  0.00  0.00    +0.018 C 
ATOM     39  C   UNL     1       7.308  -0.267  22.845  0.00  0.00    +0.006 C 
ATOM     40  C   UNL     1       8.792  -0.582  23.020  0.00  0.00    +0.000 C 
ATOM     41  C   UNL     1       9.684   0.093  21.976  0.00  0.00    +0.000 C 
ATOM     42  C   UNL     1       9.308   1.535  21.643  0.00  0.00    +0.000 C 
ATOM     43  C   UNL     1       7.801   1.750  21.512  0.00  0.00    +0.006 C 
ENDBRANCH  37  38
BRANCH  37  44
ATOM     44  N   UNL     1       8.609   2.872  23.938  0.00  0.00    -0.298 N 
ATOM     45  H   UNL     1       9.482   2.397  23.720  0.00  0.00    +0.150 HD
ATOM     46  C   UNL     1       8.690   4.226  24.132  0.00  0.00    +0.264 C 
ATOM     47  O   UNL     1       7.710   4.930  24.364  0.00  0.00    -0.268 OA
BRANCH  46  48
ATOM     48  C   UNL     1      10.066   4.805  24.015  0.00  0.00    +0.143 A 
ATOM     49  C   UNL     1      10.336   6.036  24.590  0.00  0.00    +0.143 A 
ATOM     50  N   UNL     1      11.562   6.615  24.529  0.00  0.00    -0.259 NA
ATOM     51  C   UNL     1      12.505   5.907  23.865  0.00  0.00    +0.130 A 
ATOM     52  C   UNL     1      12.238   4.680  23.295  0.00  0.00    +0.131 A 
ATOM     53  N   UNL     1      11.015   4.089  23.334  0.00  0.00    -0.247 NA
ENDBRANCH  46  48
ENDBRANCH  37  44
ENDBRANCH  35  37
ENDBRANCH  28  33
ENDBRANCH   4  28
TORSDOF 14
ENDMDL
MODEL 3
REMARK VINA RESULT:      -6.3      1.930      8.989
REMARK  Name = 
REMARK  18 active torsions:
REMARK  status: ('A' for Active; 'I' for Inactive)
REMARK    1  A    between atoms: C_8  and  C_40
REMARK    2  A    between atoms: C_12  and  C_14
REMARK    3  A    between atoms: C_14  and  N_16
REMARK    4  A    between atoms: C_14  and  C_36
REMARK    5  A    between atoms: C_17  and  C_19
REMARK    6  A    between atoms: C_19  and  N_21
REMARK    7  A    between atoms: C_19  and  C_30
REMARK    8  A    between atoms: C_22  and  C_24
REMARK    9  A    between atoms: C_36  and  C_37
REMARK   10  A    between atoms: C_36  and  C_38
REMARK   11  A    between atoms: C_36  and  C_39
REMARK   12  A    between atoms: N_42  and  C_43
REMARK   13  A    between atoms: C_43  and  C_45
REMARK   14  A    between atoms: C_43  and  C_48
REMARK   15  A    between atoms: C_45  and  C_46
REMARK   16  A    between atoms: C_46  and  C_47
REMARK   17  A    between atoms: C_48  and  C_50
REMARK   18  A    between atoms: N_52  and  C_53
REMARK                            x       y       z     vdW  Elec       q    Type
REMARK                         _______ _______ _______ _____ _____    ______ ____
ROOT
ATOM      1  C   UNL     1       3.474   3.805  24.594  0.00  0.00    +0.012 C 
ATOM      2  C   UNL     1       3.782   2.607  25.487  0.00  0.00    +0.112 C 
ATOM      3  N   UNL     1       5.162   2.215  25.171  0.00  0.00    -0.288 N 
ATOM      4  C   UNL     1       5.839   1.188  25.809  0.00  0.00    +0.237 C 
ATOM      5  O   UNL     1       6.939   0.824  25.384  0.00  0.00    -0.274 OA
ATOM      6  C   UNL     1       5.561   2.836  23.880  0.00  0.00    +0.165 C 
ATOM      7  C   UNL     1       4.846   4.212  24.048  0.00  0.00    +0.023 C 
ATOM      8  C   UNL     1       4.469   5.051  22.838  0.00  0.00    +0.006 C 
ATOM      9  C   UNL     1       3.307   4.311  22.195  0.00  0.00    +0.001 C 
ATOM     10  C   UNL     1       2.625   3.545  23.336  0.00  0.00    +0.005 C 
ENDROOT
BRANCH   6  11
ATOM     11  C   UNL     1       6.969   3.075  23.244  0.00  0.00    +0.234 C 
ATOM     12  N   UNL     1       8.102   3.163  24.020  0.00  0.00    -0.304 N 
ATOM     13  H   UNL     1       8.028   2.749  24.953  0.00  0.00    +0.149 HD
ATOM     14  O   UNL     1       7.054   3.166  22.013  0.00  0.00    -0.274 OA
BRANCH  12  15
ATOM     15  C   UNL     1       9.433   3.130  23.360  0.00  0.00    +0.149 C 
BRANCH  15  16
ATOM     16  C   UNL     1      10.231   1.824  23.548  0.00  0.00    +0.237 C 
ATOM     17  O   UNL     1      11.318   1.732  24.111  0.00  0.00    -0.285 OA
BRANCH  16  18
ATOM     18  C   UNL     1       9.590   0.555  22.951  0.00  0.00    +0.282 C 
ATOM     19  N   UNL     1       9.205  -0.403  23.879  0.00  0.00    -0.306 N 
ATOM     20  H   UNL     1       9.323  -0.176  24.863  0.00  0.00    +0.149 HD
ATOM     21  O   UNL     1       9.449   0.448  21.740  0.00  0.00    -0.267 OA
BRANCH  19  22
ATOM     22  C   UNL     1       8.541  -1.612  23.488  0.00  0.00    +0.073 C 
ATOM     23  C   UNL     1       7.943  -2.576  24.478  0.00  0.00    +0.024 C 
ATOM     24  C   UNL     1       9.190  -2.947  23.735  0.00  0.00    +0.024 C 
ENDBRANCH  19  22
ENDBRANCH  16  18
ENDBRANCH  15  16
BRANCH  15  25
ATOM     25  C   UNL     1      10.304   4.371  23.667  0.00  0.00    +0.030 C 
BRANCH  25  26
ATOM     26  C   UNL     1       9.622   5.568  24.336  0.00  0.00    -0.001 C 
ATOM     27  C   UNL     1       9.007   6.572  23.378  0.00  0.00    +0.004 C 
ENDBRANCH  25  26
ENDBRANCH  15  25
ENDBRANCH  12  15
ENDBRANCH   6  11
BRANCH   4  28
ATOM     28  C   UNL     1       5.180   0.496  27.074  0.00  0.00    +0.164 C 
BRANCH  28  29
ATOM     29  C   UNL     1       5.688   1.044  28.467  0.00  0.00    -0.011 C 
ATOM     30  C   UNL     1       5.522   2.564  28.631  0.00  0.00    +0.013 C 
ATOM     31  C   UNL     1       7.191   0.734  28.669  0.00  0.00    +0.013 C 
ATOM     32  C   UNL     1       4.927   0.340  29.612  0.00  0.00    +0.013 C 
ENDBRANCH  28  29
BRANCH  28  33
ATOM     33  N   UNL     1       5.309  -0.972  26.969  0.00  0.00    -0.302 N 
ATOM     34  H   UNL     1       6.240  -1.392  27.008  0.00  0.00    +0.150 HD
ATOM     35  C   UNL     1       4.228  -1.790  26.708  0.00  0.00    +0.234 C 
ATOM     36  O   UNL     1       3.101  -1.331  26.503  0.00  0.00    -0.274 OA
BRANCH  35  37
ATOM     37  C   UNL     1       4.447  -3.336  26.758  0.00  0.00    +0.162 C 
BRANCH  37  38
ATOM     38  C   UNL     1       5.167  -3.800  28.061  0.00  0.00    +0.018 C 
ATOM     39  C   UNL     1       5.858  -5.176  27.976  0.00  0.00    +0.006 C 
ATOM     40  C   UNL     1       4.878  -6.320  27.725  0.00  0.00    +0.000 C 
ATOM     41  C   UNL     1       3.704  -6.341  28.705  0.00  0.00    +0.000 C 
ATOM     42  C   UNL     1       3.113  -4.971  29.032  0.00  0.00    +0.000 C 
ATOM     43  C   UNL     1       4.175  -3.892  29.243  0.00  0.00    +0.006 C 
ENDBRANCH  37  38
BRANCH  37  44
ATOM     44  N   UNL     1       4.980  -3.867  25.504  0.00  0.00    -0.298 N 
ATOM     45  H   UNL     1       5.988  -3.985  25.419  0.00  0.00    +0.150 HD
ATOM     46  C   UNL     1       4.235  -4.226  24.411  0.00  0.00    +0.264 C 
ATOM     47  O   UNL     1       3.008  -4.171  24.389  0.00  0.00    -0.268 OA
BRANCH  46  48
ATOM     48  C   UNL     1       5.024  -4.723  23.239  0.00  0.00    +0.143 A 
ATOM     49  C   UNL     1       5.318  -3.853  22.201  0.00  0.00    +0.143 A 
ATOM     50  N   UNL     1       6.035  -4.235  21.113  0.00  0.00    -0.259 NA
ATOM     51  C   UNL     1       6.443  -5.525  21.110  0.00  0.00    +0.130 A 
ATOM     52  C   UNL     1       6.153  -6.390  22.145  0.00  0.00    +0.131 A 
ATOM     53  N   UNL     1       5.427  -6.033  23.236  0.00  0.00    -0.247 NA
ENDBRANCH  46  48
ENDBRANCH  37  44
ENDBRANCH  35  37
ENDBRANCH  28  33
ENDBRANCH   4  28
TORSDOF 14
ENDMDL
MODEL 4
REMARK VINA RESULT:      -6.1      3.141      5.559
REMARK  Name = 
REMARK  18 active torsions:
REMARK  status: ('A' for Active; 'I' for Inactive)
REMARK    1  A    between atoms: C_8  and  C_40
REMARK    2  A    between atoms: C_12  and  C_14
REMARK    3  A    between atoms: C_14  and  N_16
REMARK    4  A    between atoms: C_14  and  C_36
REMARK    5  A    between atoms: C_17  and  C_19
REMARK    6  A    between atoms: C_19  and  N_21
REMARK    7  A    between atoms: C_19  and  C_30
REMARK    8  A    between atoms: C_22  and  C_24
REMARK    9  A    between atoms: C_36  and  C_37
REMARK   10  A    between atoms: C_36  and  C_38
REMARK   11  A    between atoms: C_36  and  C_39
REMARK   12  A    between atoms: N_42  and  C_43
REMARK   13  A    between atoms: C_43  and  C_45
REMARK   14  A    between atoms: C_43  and  C_48
REMARK   15  A    between atoms: C_45  and  C_46
REMARK   16  A    between atoms: C_46  and  C_47
REMARK   17  A    between atoms: C_48  and  C_50
REMARK   18  A    between atoms: N_52  and  C_53
REMARK                            x       y       z     vdW  Elec       q    Type
REMARK                         _______ _______ _______ _____ _____    ______ ____
ROOT
ATOM      1  C   UNL     1       7.292  -4.716  23.555  0.00  0.00    +0.012 C 
ATOM      2  C   UNL     1       6.944  -3.587  24.520  0.00  0.00    +0.112 C 
ATOM      3  N   UNL     1       5.515  -3.743  24.823  0.00  0.00    -0.288 N 
ATOM      4  C   UNL     1       4.820  -2.935  25.709  0.00  0.00    +0.237 C 
ATOM      5  O   UNL     1       3.593  -3.035  25.794  0.00  0.00    -0.274 OA
ATOM      6  C   UNL     1       4.897  -4.635  23.806  0.00  0.00    +0.165 C 
ATOM      7  C   UNL     1       6.074  -5.643  23.629  0.00  0.00    +0.023 C 
ATOM      8  C   UNL     1       6.220  -6.459  22.355  0.00  0.00    +0.006 C 
ATOM      9  C   UNL     1       6.664  -5.460  21.299  0.00  0.00    +0.001 C 
ATOM     10  C   UNL     1       7.406  -4.356  22.062  0.00  0.00    +0.005 C 
ENDROOT
BRANCH   6  11
ATOM     11  C   UNL     1       3.551  -5.430  23.818  0.00  0.00    +0.234 C 
ATOM     12  N   UNL     1       3.397  -6.573  24.570  0.00  0.00    -0.304 N 
ATOM     13  H   UNL     1       4.059  -6.681  25.342  0.00  0.00    +0.149 HD
ATOM     14  O   UNL     1       2.605  -5.001  23.145  0.00  0.00    -0.274 OA
BRANCH  12  15
ATOM     15  C   UNL     1       2.036  -7.141  24.750  0.00  0.00    +0.149 C 
BRANCH  15  16
ATOM     16  C   UNL     1       1.571  -7.290  26.212  0.00  0.00    +0.237 C 
ATOM     17  O   UNL     1       0.672  -8.033  26.598  0.00  0.00    -0.285 OA
BRANCH  16  18
ATOM     18  C   UNL     1       2.302  -6.407  27.243  0.00  0.00    +0.282 C 
ATOM     19  N   UNL     1       3.464  -6.954  27.769  0.00  0.00    -0.306 N 
ATOM     20  H   UNL     1       3.767  -7.853  27.404  0.00  0.00    +0.149 HD
ATOM     21  O   UNL     1       1.852  -5.307  27.539  0.00  0.00    -0.267 OA
BRANCH  19  22
ATOM     22  C   UNL     1       4.289  -6.233  28.694  0.00  0.00    +0.073 C 
ATOM     23  C   UNL     1       5.505  -5.452  28.272  0.00  0.00    +0.024 C 
ATOM     24  C   UNL     1       5.668  -6.734  29.030  0.00  0.00    +0.024 C 
ENDBRANCH  19  22
ENDBRANCH  16  18
ENDBRANCH  15  16
BRANCH  15  25
ATOM     25  C   UNL     1       1.800  -8.442  23.948  0.00  0.00    +0.030 C 
BRANCH  25  26
ATOM     26  C   UNL     1       0.653  -8.450  22.933  0.00  0.00    -0.001 C 
ATOM     27  C   UNL     1       1.029  -7.979  21.539  0.00  0.00    +0.004 C 
ENDBRANCH  25  26
ENDBRANCH  15  25
ENDBRANCH  12  15
ENDBRANCH   6  11
BRANCH   4  28
ATOM     28  C   UNL     1       5.620  -1.890  26.594  0.00  0.00    +0.164 C 
BRANCH  28  29
ATOM     29  C   UNL     1       4.741  -1.103  27.644  0.00  0.00    -0.011 C 
ATOM     30  C   UNL     1       4.089  -2.004  28.706  0.00  0.00    +0.013 C 
ATOM     31  C   UNL     1       3.592  -0.338  26.941  0.00  0.00    +0.013 C 
ATOM     32  C   UNL     1       5.609  -0.046  28.362  0.00  0.00    +0.013 C 
ENDBRANCH  28  29
BRANCH  28  33
ATOM     33  N   UNL     1       6.398  -0.985  25.722  0.00  0.00    -0.302 N 
ATOM     34  H   UNL     1       5.942  -0.566  24.909  0.00  0.00    +0.150 HD
ATOM     35  C   UNL     1       7.750  -0.770  25.903  0.00  0.00    +0.234 C 
ATOM     36  O   UNL     1       8.390  -1.362  26.777  0.00  0.00    -0.274 OA
BRANCH  35  37
ATOM     37  C   UNL     1       8.447   0.312  25.018  0.00  0.00    +0.162 C 
BRANCH  37  38
ATOM     38  C   UNL     1       9.854  -0.136  24.517  0.00  0.00    +0.018 C 
ATOM     39  C   UNL     1      10.648   0.937  23.743  0.00  0.00    +0.006 C 
ATOM     40  C   UNL     1       9.965   1.363  22.445  0.00  0.00    +0.000 C 
ATOM     41  C   UNL     1       9.583   0.187  21.544  0.00  0.00    +0.000 C 
ATOM     42  C   UNL     1       9.007  -1.024  22.275  0.00  0.00    +0.000 C 
ATOM     43  C   UNL     1       9.746  -1.354  23.571  0.00  0.00    +0.006 C 
ENDBRANCH  37  38
BRANCH  37  44
ATOM     44  N   UNL     1       8.367   1.651  25.602  0.00  0.00    -0.298 N 
ATOM     45  H   UNL     1       8.891   1.837  26.455  0.00  0.00    +0.150 HD
ATOM     46  C   UNL     1       7.638   2.696  25.099  0.00  0.00    +0.264 C 
ATOM     47  O   UNL     1       6.990   2.623  24.058  0.00  0.00    -0.268 OA
BRANCH  46  48
ATOM     48  C   UNL     1       7.706   3.961  25.898  0.00  0.00    +0.143 A 
ATOM     49  C   UNL     1       7.141   3.996  27.163  0.00  0.00    +0.143 A 
ATOM     50  N   UNL     1       7.174   5.106  27.944  0.00  0.00    -0.259 NA
ATOM     51  C   UNL     1       7.796   6.179  27.403  0.00  0.00    +0.130 A 
ATOM     52  C   UNL     1       8.361   6.144  26.145  0.00  0.00    +0.131 A 
ATOM     53  N   UNL     1       8.328   5.048  25.343  0.00  0.00    -0.247 NA
ENDBRANCH  46  48
ENDBRANCH  37  44
ENDBRANCH  35  37
ENDBRANCH  28  33
ENDBRANCH   4  28
TORSDOF 14
ENDMDL
MODEL 5
REMARK VINA RESULT:      -6.1      3.158      6.130
REMARK  Name = 
REMARK  18 active torsions:
REMARK  status: ('A' for Active; 'I' for Inactive)
REMARK    1  A    between atoms: C_8  and  C_40
REMARK    2  A    between atoms: C_12  and  C_14
REMARK    3  A    between atoms: C_14  and  N_16
REMARK    4  A    between atoms: C_14  and  C_36
REMARK    5  A    between atoms: C_17  and  C_19
REMARK    6  A    between atoms: C_19  and  N_21
REMARK    7  A    between atoms: C_19  and  C_30
REMARK    8  A    between atoms: C_22  and  C_24
REMARK    9  A    between atoms: C_36  and  C_37
REMARK   10  A    between atoms: C_36  and  C_38
REMARK   11  A    between atoms: C_36  and  C_39
REMARK   12  A    between atoms: N_42  and  C_43
REMARK   13  A    between atoms: C_43  and  C_45
REMARK   14  A    between atoms: C_43  and  C_48
REMARK   15  A    between atoms: C_45  and  C_46
REMARK   16  A    between atoms: C_46  and  C_47
REMARK   17  A    between atoms: C_48  and  C_50
REMARK   18  A    between atoms: N_52  and  C_53
REMARK                            x       y       z     vdW  Elec       q    Type
REMARK                         _______ _______ _______ _____ _____    ______ ____
ROOT
ATOM      1  C   UNL     1       4.309  -4.418  29.631  0.00  0.00    +0.012 C 
ATOM      2  C   UNL     1       4.854  -3.144  28.994  0.00  0.00    +0.112 C 
ATOM      3  N   UNL     1       4.950  -3.423  27.555  0.00  0.00    -0.288 N 
ATOM      4  C   UNL     1       5.359  -2.494  26.612  0.00  0.00    +0.237 C 
ATOM      5  O   UNL     1       5.556  -2.850  25.447  0.00  0.00    -0.274 OA
ATOM      6  C   UNL     1       4.879  -4.893  27.339  0.00  0.00    +0.165 C 
ATOM      7  C   UNL     1       3.825  -5.243  28.434  0.00  0.00    +0.023 C 
ATOM      8  C   UNL     1       3.746  -6.642  29.025  0.00  0.00    +0.006 C 
ATOM      9  C   UNL     1       4.981  -6.767  29.902  0.00  0.00    +0.001 C 
ATOM     10  C   UNL     1       5.320  -5.337  30.343  0.00  0.00    +0.005 C 
ENDROOT
BRANCH   6  11
ATOM     11  C   UNL     1       4.568  -5.731  26.056  0.00  0.00    +0.234 C 
ATOM     12  N   UNL     1       4.283  -5.125  24.854  0.00  0.00    -0.304 N 
ATOM     13  H   UNL     1       4.599  -4.156  24.765  0.00  0.00    +0.149 HD
ATOM     14  O   UNL     1       4.602  -6.966  26.134  0.00  0.00    -0.274 OA
BRANCH  12  15
ATOM     15  C   UNL     1       4.251  -5.951  23.619  0.00  0.00    +0.149 C 
BRANCH  15  16
ATOM     16  C   UNL     1       5.318  -5.601  22.562  0.00  0.00    +0.237 C 
ATOM     17  O   UNL     1       5.318  -5.991  21.398  0.00  0.00    -0.285 OA
BRANCH  16  18
ATOM     18  C   UNL     1       6.472  -4.699  23.046  0.00  0.00    +0.282 C 
ATOM     19  N   UNL     1       7.327  -5.282  23.971  0.00  0.00    -0.306 N 
ATOM     20  H   UNL     1       7.162  -6.255  24.214  0.00  0.00    +0.149 HD
ATOM     21  O   UNL     1       6.586  -3.561  22.612  0.00  0.00    -0.267 OA
BRANCH  19  22
ATOM     22  C   UNL     1       8.482  -4.596  24.472  0.00  0.00    +0.073 C 
ATOM     23  C   UNL     1       9.532  -5.266  25.317  0.00  0.00    +0.024 C 
ATOM     24  C   UNL     1       8.596  -4.275  25.939  0.00  0.00    +0.024 C 
ENDBRANCH  19  22
ENDBRANCH  16  18
ENDBRANCH  15  16
BRANCH  15  25
ATOM     25  C   UNL     1       2.844  -6.059  22.984  0.00  0.00    +0.030 C 
BRANCH  25  26
ATOM     26  C   UNL     1       1.992  -7.276  23.355  0.00  0.00    -0.001 C 
ATOM     27  C   UNL     1       1.271  -7.171  24.686  0.00  0.00    +0.004 C 
ENDBRANCH  25  26
ENDBRANCH  15  25
ENDBRANCH  12  15
ENDBRANCH   6  11
BRANCH   4  28
ATOM     28  C   UNL     1       5.573  -0.987  27.055  0.00  0.00    +0.164 C 
BRANCH  28  29
ATOM     29  C   UNL     1       4.243  -0.195  27.370  0.00  0.00    -0.011 C 
ATOM     30  C   UNL     1       2.962  -0.997  27.083  0.00  0.00    +0.013 C 
ATOM     31  C   UNL     1       4.156   1.101  26.527  0.00  0.00    +0.013 C 
ATOM     32  C   UNL     1       4.231   0.235  28.854  0.00  0.00    +0.013 C 
ENDBRANCH  28  29
BRANCH  28  33
ATOM     33  N   UNL     1       6.421  -0.287  26.067  0.00  0.00    -0.302 N 
ATOM     34  H   UNL     1       5.988   0.091  25.222  0.00  0.00    +0.150 HD
ATOM     35  C   UNL     1       7.794  -0.222  26.190  0.00  0.00    +0.234 C 
ATOM     36  O   UNL     1       8.392  -0.786  27.111  0.00  0.00    -0.274 OA
BRANCH  35  37
ATOM     37  C   UNL     1       8.582   0.661  25.169  0.00  0.00    +0.162 C 
BRANCH  37  38
ATOM     38  C   UNL     1       9.931   0.013  24.730  0.00  0.00    +0.018 C 
ATOM     39  C   UNL     1      10.832   0.904  23.850  0.00  0.00    +0.006 C 
ATOM     40  C   UNL     1      10.193   1.257  22.509  0.00  0.00    +0.000 C 
ATOM     41  C   UNL     1       9.684   0.037  21.738  0.00  0.00    +0.000 C 
ATOM     42  C   UNL     1       8.984  -1.019  22.592  0.00  0.00    +0.000 C 
ATOM     43  C   UNL     1       9.689  -1.282  23.921  0.00  0.00    +0.006 C 
ENDBRANCH  37  38
BRANCH  37  44
ATOM     44  N   UNL     1       8.643   2.065  25.572  0.00  0.00    -0.298 N 
ATOM     45  H   UNL     1       9.179   2.306  26.403  0.00  0.00    +0.150 HD
ATOM     46  C   UNL     1       8.032   3.106  24.923  0.00  0.00    +0.264 C 
ATOM     47  O   UNL     1       7.386   2.965  23.888  0.00  0.00    -0.268 OA
BRANCH  46  48
ATOM     48  C   UNL     1       8.232   4.451  25.551  0.00  0.00    +0.143 A 
ATOM     49  C   UNL     1       7.565   4.756  26.727  0.00  0.00    +0.143 A 
ATOM     50  N   UNL     1       7.706   5.952  27.354  0.00  0.00    -0.259 NA
ATOM     51  C   UNL     1       8.541   6.829  26.751  0.00  0.00    +0.130 A 
ATOM     52  C   UNL     1       9.206   6.525  25.582  0.00  0.00    +0.131 A 
ATOM     53  N   UNL     1       9.070   5.340  24.932  0.00  0.00    -0.247 NA
ENDBRANCH  46  48
ENDBRANCH  37  44
ENDBRANCH  35  37
ENDBRANCH  28  33
ENDBRANCH   4  28
TORSDOF 14
ENDMDL
MODEL 6
REMARK VINA RESULT:      -5.9      2.046      8.985
REMARK  Name = 
REMARK  18 active torsions:
REMARK  status: ('A' for Active; 'I' for Inactive)
REMARK    1  A    between atoms: C_8  and  C_40
REMARK    2  A    between atoms: C_12  and  C_14
REMARK    3  A    between atoms: C_14  and  N_16
REMARK    4  A    between atoms: C_14  and  C_36
REMARK    5  A    between atoms: C_17  and  C_19
REMARK    6  A    between atoms: C_19  and  N_21
REMARK    7  A    between atoms: C_19  and  C_30
REMARK    8  A    between atoms: C_22  and  C_24
REMARK    9  A    between atoms: C_36  and  C_37
REMARK   10  A    between atoms: C_36  and  C_38
REMARK   11  A    between atoms: C_36  and  C_39
REMARK   12  A    between atoms: N_42  and  C_43
REMARK   13  A    between atoms: C_43  and  C_45
REMARK   14  A    between atoms: C_43  and  C_48
REMARK   15  A    between atoms: C_45  and  C_46
REMARK   16  A    between atoms: C_46  and  C_47
REMARK   17  A    between atoms: C_48  and  C_50
REMARK   18  A    between atoms: N_52  and  C_53
REMARK                            x       y       z     vdW  Elec       q    Type
REMARK                         _______ _______ _______ _____ _____    ______ ____
ROOT
ATOM      1  C   UNL     1       8.138  -0.929  25.221  0.00  0.00    +0.012 C 
ATOM      2  C   UNL     1       6.917  -0.758  26.120  0.00  0.00    +0.112 C 
ATOM      3  N   UNL     1       6.190   0.405  25.593  0.00  0.00    -0.288 N 
ATOM      4  C   UNL     1       4.987   0.862  26.107  0.00  0.00    +0.237 C 
ATOM      5  O   UNL     1       4.517   1.931  25.707  0.00  0.00    -0.274 OA
ATOM      6  C   UNL     1       7.091   1.177  24.697  0.00  0.00    +0.165 C 
ATOM      7  C   UNL     1       7.839  -0.017  24.027  0.00  0.00    +0.023 C 
ATOM      8  C   UNL     1       9.218   0.168  23.416  0.00  0.00    +0.006 C 
ATOM      9  C   UNL     1      10.153   0.335  24.603  0.00  0.00    +0.001 C 
ATOM     10  C   UNL     1       9.486  -0.418  25.762  0.00  0.00    +0.005 C 
ENDROOT
BRANCH   6  11
ATOM     11  C   UNL     1       6.782   2.253  23.605  0.00  0.00    +0.234 C 
ATOM     12  N   UNL     1       6.638   3.583  23.928  0.00  0.00    -0.304 N 
ATOM     13  H   UNL     1       7.057   3.866  24.818  0.00  0.00    +0.149 HD
ATOM     14  O   UNL     1       6.684   1.888  22.427  0.00  0.00    -0.274 OA
BRANCH  12  15
ATOM     15  C   UNL     1       6.604   4.591  22.836  0.00  0.00    +0.149 C 
BRANCH  15  16
ATOM     16  C   UNL     1       7.724   5.649  22.879  0.00  0.00    +0.237 C 
ATOM     17  O   UNL     1       7.724   6.708  22.257  0.00  0.00    -0.285 OA
BRANCH  16  18
ATOM     18  C   UNL     1       8.935   5.310  23.771  0.00  0.00    +0.282 C 
ATOM     19  N   UNL     1      10.162   5.298  23.121  0.00  0.00    -0.306 N 
ATOM     20  H   UNL     1      10.174   5.561  22.139  0.00  0.00    +0.149 HD
ATOM     21  O   UNL     1       8.776   5.080  24.963  0.00  0.00    -0.267 OA
BRANCH  19  22
ATOM     22  C   UNL     1      11.389   5.060  23.824  0.00  0.00    +0.073 C 
ATOM     23  C   UNL     1      12.340   6.160  24.211  0.00  0.00    +0.024 C 
ATOM     24  C   UNL     1      12.708   5.207  23.115  0.00  0.00    +0.024 C 
ENDBRANCH  19  22
ENDBRANCH  16  18
ENDBRANCH  15  16
BRANCH  15  25
ATOM     25  C   UNL     1       5.216   5.247  22.646  0.00  0.00    +0.030 C 
BRANCH  25  26
ATOM     26  C   UNL     1       3.997   4.493  23.184  0.00  0.00    -0.001 C 
ATOM     27  C   UNL     1       3.310   3.587  22.178  0.00  0.00    +0.004 C 
ENDBRANCH  25  26
ENDBRANCH  15  25
ENDBRANCH  12  15
ENDBRANCH   6  11
BRANCH   4  28
ATOM     28  C   UNL     1       4.239   0.001  27.209  0.00  0.00    +0.164 C 
BRANCH  28  29
ATOM     29  C   UNL     1       4.342   0.574  28.678  0.00  0.00    -0.011 C 
ATOM     30  C   UNL     1       5.691   1.243  28.989  0.00  0.00    +0.013 C 
ATOM     31  C   UNL     1       4.149  -0.550  29.725  0.00  0.00    +0.013 C 
ATOM     32  C   UNL     1       3.216   1.604  28.915  0.00  0.00    +0.013 C 
ENDBRANCH  28  29
BRANCH  28  33
ATOM     33  N   UNL     1       4.674  -1.409  27.125  0.00  0.00    -0.302 N 
ATOM     34  H   UNL     1       5.658  -1.635  27.290  0.00  0.00    +0.150 HD
ATOM     35  C   UNL     1       3.824  -2.420  26.725  0.00  0.00    +0.234 C 
ATOM     36  O   UNL     1       2.665  -2.190  26.370  0.00  0.00    -0.274 OA
BRANCH  35  37
ATOM     37  C   UNL     1       4.342  -3.891  26.807  0.00  0.00    +0.162 C 
BRANCH  37  38
ATOM     38  C   UNL     1       5.022  -4.214  28.173  0.00  0.00    +0.018 C 
ATOM     39  C   UNL     1       5.818  -5.535  28.215  0.00  0.00    +0.006 C 
ATOM     40  C   UNL     1       4.941  -6.766  27.993  0.00  0.00    +0.000 C 
ATOM     41  C   UNL     1       3.719  -6.816  28.913  0.00  0.00    +0.000 C 
ATOM     42  C   UNL     1       3.011  -5.478  29.117  0.00  0.00    +0.000 C 
ATOM     43  C   UNL     1       3.976  -4.308  29.307  0.00  0.00    +0.006 C 
ENDBRANCH  37  38
BRANCH  37  44
ATOM     44  N   UNL     1       5.079  -4.294  25.609  0.00  0.00    -0.298 N 
ATOM     45  H   UNL     1       6.027  -3.947  25.487  0.00  0.00    +0.150 HD
ATOM     46  C   UNL     1       4.600  -5.110  24.617  0.00  0.00    +0.264 C 
ATOM     47  O   UNL     1       3.487  -5.629  24.655  0.00  0.00    -0.268 OA
BRANCH  46  48
ATOM     48  C   UNL     1       5.546  -5.353  23.483  0.00  0.00    +0.143 A 
ATOM     49  C   UNL     1       6.911  -5.333  23.722  0.00  0.00    +0.143 A 
ATOM     50  N   UNL     1       7.825  -5.553  22.743  0.00  0.00    -0.259 NA
ATOM     51  C   UNL     1       7.312  -5.794  21.514  0.00  0.00    +0.130 A 
ATOM     52  C   UNL     1       5.954  -5.817  21.276  0.00  0.00    +0.131 A 
ATOM     53  N   UNL     1       5.023  -5.587  22.238  0.00  0.00    -0.247 NA
ENDBRANCH  46  48
ENDBRANCH  37  44
ENDBRANCH  35  37
ENDBRANCH  28  33
ENDBRANCH   4  28
TORSDOF 14
ENDMDL
MODEL 7
REMARK VINA RESULT:      -5.7      2.699      5.898
REMARK  Name = 
REMARK  18 active torsions:
REMARK  status: ('A' for Active; 'I' for Inactive)
REMARK    1  A    between atoms: C_8  and  C_40
REMARK    2  A    between atoms: C_12  and  C_14
REMARK    3  A    between atoms: C_14  and  N_16
REMARK    4  A    between atoms: C_14  and  C_36
REMARK    5  A    between atoms: C_17  and  C_19
REMARK    6  A    between atoms: C_19  and  N_21
REMARK    7  A    between atoms: C_19  and  C_30
REMARK    8  A    between atoms: C_22  and  C_24
REMARK    9  A    between atoms: C_36  and  C_37
REMARK   10  A    between atoms: C_36  and  C_38
REMARK   11  A    between atoms: C_36  and  C_39
REMARK   12  A    between atoms: N_42  and  C_43
REMARK   13  A    between atoms: C_43  and  C_45
REMARK   14  A    between atoms: C_43  and  C_48
REMARK   15  A    between atoms: C_45  and  C_46
REMARK   16  A    between atoms: C_46  and  C_47
REMARK   17  A    between atoms: C_48  and  C_50
REMARK   18  A    between atoms: N_52  and  C_53
REMARK                            x       y       z     vdW  Elec       q    Type
REMARK                         _______ _______ _______ _____ _____    ______ ____
ROOT
ATOM      1  C   UNL     1       8.648  -2.754  26.287  0.00  0.00    +0.012 C 
ATOM      2  C   UNL     1       7.658  -1.670  26.699  0.00  0.00    +0.112 C 
ATOM      3  N   UNL     1       6.375  -2.354  26.903  0.00  0.00    -0.288 N 
ATOM      4  C   UNL     1       5.220  -1.720  27.335  0.00  0.00    +0.237 C 
ATOM      5  O   UNL     1       4.150  -2.334  27.338  0.00  0.00    -0.274 OA
ATOM      6  C   UNL     1       6.431  -3.695  26.262  0.00  0.00    +0.165 C 
ATOM      7  C   UNL     1       7.909  -4.059  26.602  0.00  0.00    +0.023 C 
ATOM      8  C   UNL     1       8.678  -5.069  25.766  0.00  0.00    +0.006 C 
ATOM      9  C   UNL     1       8.954  -4.359  24.451  0.00  0.00    +0.001 C 
ATOM     10  C   UNL     1       8.991  -2.863  24.790  0.00  0.00    +0.005 C 
ENDROOT
BRANCH   6  11
ATOM     11  C   UNL     1       5.542  -4.966  26.456  0.00  0.00    +0.234 C 
ATOM     12  N   UNL     1       4.256  -5.026  25.969  0.00  0.00    -0.304 N 
ATOM     13  H   UNL     1       4.040  -4.363  25.220  0.00  0.00    +0.149 HD
ATOM     14  O   UNL     1       6.025  -5.940  27.047  0.00  0.00    -0.274 OA
BRANCH  12  15
ATOM     15  C   UNL     1       3.551  -6.334  25.951  0.00  0.00    +0.149 C 
BRANCH  15  16
ATOM     16  C   UNL     1       3.431  -7.000  24.566  0.00  0.00    +0.237 C 
ATOM     17  O   UNL     1       3.009  -8.134  24.358  0.00  0.00    -0.285 OA
BRANCH  16  18
ATOM     18  C   UNL     1       3.903  -6.150  23.368  0.00  0.00    +0.282 C 
ATOM     19  N   UNL     1       5.150  -6.488  22.861  0.00  0.00    -0.306 N 
ATOM     20  H   UNL     1       5.624  -7.288  23.275  0.00  0.00    +0.149 HD
ATOM     21  O   UNL     1       3.191  -5.257  22.930  0.00  0.00    -0.267 OA
BRANCH  19  22
ATOM     22  C   UNL     1       5.704  -5.833  21.713  0.00  0.00    +0.073 C 
ATOM     23  C   UNL     1       7.184  -5.748  21.450  0.00  0.00    +0.024 C 
ATOM     24  C   UNL     1       6.428  -4.522  21.864  0.00  0.00    +0.024 C 
ENDBRANCH  19  22
ENDBRANCH  16  18
ENDBRANCH  15  16
BRANCH  15  25
ATOM     25  C   UNL     1       2.190  -6.312  26.686  0.00  0.00    +0.030 C 
BRANCH  25  26
ATOM     26  C   UNL     1       2.078  -7.103  27.992  0.00  0.00    -0.001 C 
ATOM     27  C   UNL     1       1.696  -6.278  29.208  0.00  0.00    +0.004 C 
ENDBRANCH  25  26
ENDBRANCH  15  25
ENDBRANCH  12  15
ENDBRANCH   6  11
BRANCH   4  28
ATOM     28  C   UNL     1       5.301  -0.211  27.814  0.00  0.00    +0.164 C 
BRANCH  28  29
ATOM     29  C   UNL     1       4.170   0.222  28.829  0.00  0.00    -0.011 C 
ATOM     30  C   UNL     1       3.747  -0.896  29.798  0.00  0.00    +0.013 C 
ATOM     31  C   UNL     1       2.892   0.668  28.078  0.00  0.00    +0.013 C 
ATOM     32  C   UNL     1       4.649   1.434  29.657  0.00  0.00    +0.013 C 
ENDBRANCH  28  29
BRANCH  28  33
ATOM     33  N   UNL     1       5.373   0.686  26.641  0.00  0.00    -0.302 N 
ATOM     34  H   UNL     1       4.766   0.503  25.839  0.00  0.00    +0.150 HD
ATOM     35  C   UNL     1       6.310   1.695  26.543  0.00  0.00    +0.234 C 
ATOM     36  O   UNL     1       7.168   1.872  27.412  0.00  0.00    -0.274 OA
BRANCH  35  37
ATOM     37  C   UNL     1       6.210   2.673  25.329  0.00  0.00    +0.162 C 
BRANCH  37  38
ATOM     38  C   UNL     1       5.162   2.212  24.269  0.00  0.00    +0.018 C 
ATOM     39  C   UNL     1       5.532   2.519  22.803  0.00  0.00    +0.006 C 
ATOM     40  C   UNL     1       5.642   4.015  22.517  0.00  0.00    +0.000 C 
ATOM     41  C   UNL     1       4.416   4.812  22.966  0.00  0.00    +0.000 C 
ATOM     42  C   UNL     1       3.838   4.397  24.318  0.00  0.00    +0.000 C 
ATOM     43  C   UNL     1       3.791   2.883  24.514  0.00  0.00    +0.006 C 
ENDBRANCH  37  38
BRANCH  37  44
ATOM     44  N   UNL     1       7.523   3.060  24.811  0.00  0.00    -0.298 N 
ATOM     45  H   UNL     1       8.083   2.353  24.340  0.00  0.00    +0.150 HD
ATOM     46  C   UNL     1       8.078   4.309  24.904  0.00  0.00    +0.264 C 
ATOM     47  O   UNL     1       7.497   5.265  25.413  0.00  0.00    -0.268 OA
BRANCH  46  48
ATOM     48  C   UNL     1       9.447   4.442  24.312  0.00  0.00    +0.143 A 
ATOM     49  C   UNL     1      10.062   5.683  24.297  0.00  0.00    +0.143 A 
ATOM     50  N   UNL     1      11.304   5.874  23.783  0.00  0.00    -0.259 NA
ATOM     51  C   UNL     1      11.902   4.767  23.284  0.00  0.00    +0.130 A 
ATOM     52  C   UNL     1      11.291   3.531  23.301  0.00  0.00    +0.131 A 
ATOM     53  N   UNL     1      10.044   3.321  23.798  0.00  0.00    -0.247 NA
ENDBRANCH  46  48
ENDBRANCH  37  44
ENDBRANCH  35  37
ENDBRANCH  28  33
ENDBRANCH   4  28
TORSDOF 14
ENDMDL
MODEL 8
REMARK VINA RESULT:      -5.7      3.101      6.195
REMARK  Name = 
REMARK  18 active torsions:
REMARK  status: ('A' for Active; 'I' for Inactive)
REMARK    1  A    between atoms: C_8  and  C_40
REMARK    2  A    between atoms: C_12  and  C_14
REMARK    3  A    between atoms: C_14  and  N_16
REMARK    4  A    between atoms: C_14  and  C_36
REMARK    5  A    between atoms: C_17  and  C_19
REMARK    6  A    between atoms: C_19  and  N_21
REMARK    7  A    between atoms: C_19  and  C_30
REMARK    8  A    between atoms: C_22  and  C_24
REMARK    9  A    between atoms: C_36  and  C_37
REMARK   10  A    between atoms: C_36  and  C_38
REMARK   11  A    between atoms: C_36  and  C_39
REMARK   12  A    between atoms: N_42  and  C_43
REMARK   13  A    between atoms: C_43  and  C_45
REMARK   14  A    between atoms: C_43  and  C_48
REMARK   15  A    between atoms: C_45  and  C_46
REMARK   16  A    between atoms: C_46  and  C_47
REMARK   17  A    between atoms: C_48  and  C_50
REMARK   18  A    between atoms: N_52  and  C_53
REMARK                            x       y       z     vdW  Elec       q    Type
REMARK                         _______ _______ _______ _____ _____    ______ ____
ROOT
ATOM      1  C   UNL     1       4.153  -4.671  29.688  0.00  0.00    +0.012 C 
ATOM      2  C   UNL     1       4.210  -3.185  29.348  0.00  0.00    +0.112 C 
ATOM      3  N   UNL     1       4.628  -3.110  27.942  0.00  0.00    -0.288 N 
ATOM      4  C   UNL     1       4.752  -1.925  27.234  0.00  0.00    +0.237 C 
ATOM      5  O   UNL     1       5.250  -1.937  26.105  0.00  0.00    -0.274 OA
ATOM      6  C   UNL     1       5.205  -4.419  27.536  0.00  0.00    +0.165 C 
ATOM      7  C   UNL     1       4.240  -5.359  28.322  0.00  0.00    +0.023 C 
ATOM      8  C   UNL     1       4.659  -6.769  28.703  0.00  0.00    +0.006 C 
ATOM      9  C   UNL     1       5.688  -6.586  29.807  0.00  0.00    +0.001 C 
ATOM     10  C   UNL     1       5.334  -5.256  30.485  0.00  0.00    +0.005 C 
ENDROOT
BRANCH   6  11
ATOM     11  C   UNL     1       5.466  -5.035  26.122  0.00  0.00    +0.234 C 
ATOM     12  N   UNL     1       4.578  -4.857  25.086  0.00  0.00    -0.304 N 
ATOM     13  H   UNL     1       3.942  -4.062  25.186  0.00  0.00    +0.149 HD
ATOM     14  O   UNL     1       6.507  -5.679  25.941  0.00  0.00    -0.274 OA
BRANCH  12  15
ATOM     15  C   UNL     1       4.990  -5.236  23.710  0.00  0.00    +0.149 C 
BRANCH  15  16
ATOM     16  C   UNL     1       5.685  -4.124  22.898  0.00  0.00    +0.237 C 
ATOM     17  O   UNL     1       5.131  -3.382  22.092  0.00  0.00    -0.285 OA
BRANCH  16  18
ATOM     18  C   UNL     1       7.202  -3.973  23.130  0.00  0.00    +0.282 C 
ATOM     19  N   UNL     1       7.559  -3.098  24.147  0.00  0.00    -0.306 N 
ATOM     20  H   UNL     1       6.808  -2.673  24.685  0.00  0.00    +0.149 HD
ATOM     21  O   UNL     1       7.995  -4.605  22.443  0.00  0.00    -0.267 OA
BRANCH  19  22
ATOM     22  C   UNL     1       8.927  -2.894  24.524  0.00  0.00    +0.073 C 
ATOM     23  C   UNL     1       9.487  -1.542  24.880  0.00  0.00    +0.024 C 
ATOM     24  C   UNL     1       9.875  -2.194  23.588  0.00  0.00    +0.024 C 
ENDBRANCH  19  22
ENDBRANCH  16  18
ENDBRANCH  15  16
BRANCH  15  25
ATOM     25  C   UNL     1       3.862  -5.909  22.891  0.00  0.00    +0.030 C 
BRANCH  25  26
ATOM     26  C   UNL     1       2.543  -6.202  23.612  0.00  0.00    -0.001 C 
ATOM     27  C   UNL     1       1.426  -5.214  23.326  0.00  0.00    +0.004 C 
ENDBRANCH  25  26
ENDBRANCH  15  25
ENDBRANCH  12  15
ENDBRANCH   6  11
BRANCH   4  28
ATOM     28  C   UNL     1       4.253  -0.574  27.896  0.00  0.00    +0.164 C 
BRANCH  28  29
ATOM     29  C   UNL     1       2.690  -0.351  27.846  0.00  0.00    -0.011 C 
ATOM     30  C   UNL     1       1.931  -1.451  27.085  0.00  0.00    +0.013 C 
ATOM     31  C   UNL     1       2.343   0.990  27.155  0.00  0.00    +0.013 C 
ATOM     32  C   UNL     1       2.129  -0.271  29.283  0.00  0.00    +0.013 C 
ENDBRANCH  28  29
BRANCH  28  33
ATOM     33  N   UNL     1       5.000   0.569  27.330  0.00  0.00    -0.302 N 
ATOM     34  H   UNL     1       4.787   0.880  26.379  0.00  0.00    +0.150 HD
ATOM     35  C   UNL     1       6.053   1.164  27.996  0.00  0.00    +0.234 C 
ATOM     36  O   UNL     1       6.457   0.739  29.082  0.00  0.00    -0.274 OA
BRANCH  35  37
ATOM     37  C   UNL     1       6.682   2.451  27.375  0.00  0.00    +0.162 C 
BRANCH  37  38
ATOM     38  C   UNL     1       5.649   3.609  27.217  0.00  0.00    +0.018 C 
ATOM     39  C   UNL     1       6.227   4.937  26.685  0.00  0.00    +0.006 C 
ATOM     40  C   UNL     1       7.261   5.555  27.623  0.00  0.00    +0.000 C 
ATOM     41  C   UNL     1       6.768   5.694  29.065  0.00  0.00    +0.000 C 
ATOM     42  C   UNL     1       5.968   4.503  29.590  0.00  0.00    +0.000 C 
ATOM     43  C   UNL     1       4.978   3.945  28.568  0.00  0.00    +0.006 C 
ENDBRANCH  37  38
BRANCH  37  44
ATOM     44  N   UNL     1       7.511   2.163  26.204  0.00  0.00    -0.298 N 
ATOM     45  H   UNL     1       8.522   2.157  26.318  0.00  0.00    +0.150 HD
ATOM     46  C   UNL     1       7.042   1.895  24.945  0.00  0.00    +0.264 C 
ATOM     47  O   UNL     1       5.845   1.832  24.674  0.00  0.00    -0.268 OA
BRANCH  46  48
ATOM     48  C   UNL     1       8.099   1.652  23.912  0.00  0.00    +0.143 A 
ATOM     49  C   UNL     1       7.767   0.978  22.747  0.00  0.00    +0.143 A 
ATOM     50  N   UNL     1       8.672   0.731  21.766  0.00  0.00    -0.259 NA
ATOM     51  C   UNL     1       9.924   1.187  22.003  0.00  0.00    +0.130 A 
ATOM     52  C   UNL     1      10.254   1.861  23.161  0.00  0.00    +0.131 A 
ATOM     53  N   UNL     1       9.367   2.107  24.160  0.00  0.00    -0.247 NA
ENDBRANCH  46  48
ENDBRANCH  37  44
ENDBRANCH  35  37
ENDBRANCH  28  33
ENDBRANCH   4  28
TORSDOF 14
ENDMDL
MODEL 9
REMARK VINA RESULT:      -5.7      2.618      6.261
REMARK  Name = 
REMARK  18 active torsions:
REMARK  status: ('A' for Active; 'I' for Inactive)
REMARK    1  A    between atoms: C_8  and  C_40
REMARK    2  A    between atoms: C_12  and  C_14
REMARK    3  A    between atoms: C_14  and  N_16
REMARK    4  A    between atoms: C_14  and  C_36
REMARK    5  A    between atoms: C_17  and  C_19
REMARK    6  A    between atoms: C_19  and  N_21
REMARK    7  A    between atoms: C_19  and  C_30
REMARK    8  A    between atoms: C_22  and  C_24
REMARK    9  A    between atoms: C_36  and  C_37
REMARK   10  A    between atoms: C_36  and  C_38
REMARK   11  A    between atoms: C_36  and  C_39
REMARK   12  A    between atoms: N_42  and  C_43
REMARK   13  A    between atoms: C_43  and  C_45
REMARK   14  A    between atoms: C_43  and  C_48
REMARK   15  A    between atoms: C_45  and  C_46
REMARK   16  A    between atoms: C_46  and  C_47
REMARK   17  A    between atoms: C_48  and  C_50
REMARK   18  A    between atoms: N_52  and  C_53
REMARK                            x       y       z     vdW  Elec       q    Type
REMARK                         _______ _______ _______ _____ _____    ______ ____
ROOT
ATOM      1  C   UNL     1       3.977  -4.219  29.912  0.00  0.00    +0.012 C 
ATOM      2  C   UNL     1       4.505  -3.035  29.106  0.00  0.00    +0.112 C 
ATOM      3  N   UNL     1       4.105  -3.286  27.715  0.00  0.00    -0.288 N 
ATOM      4  C   UNL     1       4.354  -2.411  26.670  0.00  0.00    +0.237 C 
ATOM      5  O   UNL     1       4.120  -2.762  25.510  0.00  0.00    -0.274 OA
ATOM      6  C   UNL     1       3.727  -4.717  27.568  0.00  0.00    +0.165 C 
ATOM      7  C   UNL     1       3.018  -4.918  28.943  0.00  0.00    +0.023 C 
ATOM      8  C   UNL     1       2.891  -6.299  29.563  0.00  0.00    +0.006 C 
ATOM      9  C   UNL     1       4.297  -6.653  30.021  0.00  0.00    +0.001 C 
ATOM     10  C   UNL     1       4.989  -5.313  30.300  0.00  0.00    +0.005 C 
ENDROOT
BRANCH   6  11
ATOM     11  C   UNL     1       2.901  -5.455  26.464  0.00  0.00    +0.234 C 
ATOM     12  N   UNL     1       3.370  -6.600  25.861  0.00  0.00    -0.304 N 
ATOM     13  H   UNL     1       4.090  -7.106  26.382  0.00  0.00    +0.149 HD
ATOM     14  O   UNL     1       1.796  -4.998  26.148  0.00  0.00    -0.274 OA
BRANCH  12  15
ATOM     15  C   UNL     1       2.446  -7.400  25.015  0.00  0.00    +0.149 C 
BRANCH  15  16
ATOM     16  C   UNL     1       2.390  -6.991  23.530  0.00  0.00    +0.237 C 
ATOM     17  O   UNL     1       1.613  -7.451  22.697  0.00  0.00    -0.285 OA
BRANCH  16  18
ATOM     18  C   UNL     1       3.417  -5.930  23.085  0.00  0.00    +0.282 C 
ATOM     19  N   UNL     1       4.675  -6.424  22.770  0.00  0.00    -0.306 N 
ATOM     20  H   UNL     1       4.806  -7.432  22.803  0.00  0.00    +0.149 HD
ATOM     21  O   UNL     1       3.096  -4.751  23.026  0.00  0.00    -0.267 OA
BRANCH  19  22
ATOM     22  C   UNL     1       5.722  -5.574  22.283  0.00  0.00    +0.073 C 
ATOM     23  C   UNL     1       6.309  -5.704  20.903  0.00  0.00    +0.024 C 
ATOM     24  C   UNL     1       7.114  -6.115  22.098  0.00  0.00    +0.024 C 
ENDBRANCH  19  22
ENDBRANCH  16  18
ENDBRANCH  15  16
BRANCH  15  25
ATOM     25  C   UNL     1       1.027  -7.541  25.615  0.00  0.00    +0.030 C 
BRANCH  25  26
ATOM     26  C   UNL     1       0.730  -8.796  26.442  0.00  0.00    -0.001 C 
ATOM     27  C   UNL     1       0.597  -8.560  27.936  0.00  0.00    +0.004 C 
ENDBRANCH  25  26
ENDBRANCH  15  25
ENDBRANCH  12  15
ENDBRANCH   6  11
BRANCH   4  28
ATOM     28  C   UNL     1       4.942  -0.974  26.988  0.00  0.00    +0.164 C 
BRANCH  28  29
ATOM     29  C   UNL     1       3.864   0.106  27.397  0.00  0.00    -0.011 C 
ATOM     30  C   UNL     1       2.416  -0.407  27.324  0.00  0.00    +0.013 C 
ATOM     31  C   UNL     1       3.945   1.347  26.475  0.00  0.00    +0.013 C 
ATOM     32  C   UNL     1       4.139   0.598  28.835  0.00  0.00    +0.013 C 
ENDBRANCH  28  29
BRANCH  28  33
ATOM     33  N   UNL     1       5.794  -0.519  25.868  0.00  0.00    -0.302 N 
ATOM     34  H   UNL     1       5.353  -0.083  25.056  0.00  0.00    +0.150 HD
ATOM     35  C   UNL     1       7.152  -0.763  25.830  0.00  0.00    +0.234 C 
ATOM     36  O   UNL     1       7.720  -1.416  26.710  0.00  0.00    -0.274 OA
BRANCH  35  37
ATOM     37  C   UNL     1       7.981  -0.118  24.674  0.00  0.00    +0.162 C 
BRANCH  37  38
ATOM     38  C   UNL     1       9.340  -0.845  24.431  0.00  0.00    +0.018 C 
ATOM     39  C   UNL     1      10.404  -0.015  23.684  0.00  0.00    +0.006 C 
ATOM     40  C   UNL     1       9.981   0.359  22.265  0.00  0.00    +0.000 C 
ATOM     41  C   UNL     1       9.517  -0.839  21.434  0.00  0.00    +0.000 C 
ATOM     42  C   UNL     1       8.646  -1.845  22.184  0.00  0.00    +0.000 C 
ATOM     43  C   UNL     1       9.141  -2.133  23.600  0.00  0.00    +0.006 C 
ENDBRANCH  37  38
BRANCH  37  44
ATOM     44  N   UNL     1       8.039   1.340  24.771  0.00  0.00    -0.298 N 
ATOM     45  H   UNL     1       8.825   1.760  25.263  0.00  0.00    +0.150 HD
ATOM     46  C   UNL     1       7.116   2.209  24.252  0.00  0.00    +0.264 C 
ATOM     47  O   UNL     1       6.140   1.842  23.602  0.00  0.00    -0.268 OA
BRANCH  46  48
ATOM     48  C   UNL     1       7.394   3.659  24.507  0.00  0.00    +0.143 A 
ATOM     49  C   UNL     1       8.680   4.055  24.836  0.00  0.00    +0.143 A 
ATOM     50  N   UNL     1       9.004   5.352  25.072  0.00  0.00    -0.259 NA
ATOM     51  C   UNL     1       7.984   6.234  24.965  0.00  0.00    +0.130 A 
ATOM     52  C   UNL     1       6.703   5.840  24.635  0.00  0.00    +0.131 A 
ATOM     53  N   UNL     1       6.355   4.547  24.407  0.00  0.00    -0.247 NA
ENDBRANCH  46  48
ENDBRANCH  37  44
ENDBRANCH  35  37
ENDBRANCH  28  33
ENDBRANCH   4  28
TORSDOF 14
ENDMDL
