MODEL 1
REMARK VINA RESULT:      -4.6      0.000      0.000
REMARK  Name = 
REMARK  5 active torsions:
REMARK  status: ('A' for Active; 'I' for Inactive)
REMARK    1  A    between atoms: O_1  and  C_2
REMARK    2  A    between atoms: C_2  and  C_3
REMARK    3  A    between atoms: C_6  and  O_7
REMARK    4  A    between atoms: C_9  and  O_11
REMARK    5  A    between atoms: C_12  and  O_14
REMARK                            x       y       z     vdW  Elec       q    Type
REMARK                         _______ _______ _______ _____ _____    ______ ____
ROOT
ATOM      1  C   UNL     1       8.735   0.175  24.139  0.00  0.00    +0.177 C 
ATOM      2  C   UNL     1       8.366  -1.103  23.358  0.00  0.00    +0.174 C 
ATOM      3  C   UNL     1       9.269  -1.353  22.140  0.00  0.00    +0.150 C 
ATOM      4  C   UNL     1       9.499  -0.079  21.338  0.00  0.00    +0.095 C 
ATOM      5  C   UNL     1       9.885   1.089  22.232  0.00  0.00    +0.250 C 
ATOM      6  O   UNL     1       8.950   1.302  23.274  0.00  0.00    -0.343 OA
ENDROOT
BRANCH   2   7
ATOM      7  O   UNL     1       7.010  -0.951  22.897  0.00  0.00    -0.387 OA
ATOM      8  H   UNL     1       6.939  -1.401  22.036  0.00  0.00    +0.210 HD
ENDBRANCH   2   7
BRANCH   3   9
ATOM      9  O   UNL     1      10.507  -1.958  22.499  0.00  0.00    -0.389 OA
ATOM     10  H   UNL     1      10.329  -2.882  22.782  0.00  0.00    +0.210 HD
ENDBRANCH   3   9
BRANCH   5  11
ATOM     11  O   UNL     1       9.917   2.276  21.456  0.00  0.00    -0.367 OA
ATOM     12  H   UNL     1      10.686   2.766  21.793  0.00  0.00    +0.212 HD
ENDBRANCH   5  11
BRANCH   1  13
ATOM     13  C   UNL     1       9.889   0.002  25.144  0.00  0.00    +0.190 C 
BRANCH  13  14
ATOM     14  O   UNL     1       9.437  -0.201  26.481  0.00  0.00    -0.392 OA
ATOM     15  H   UNL     1       9.816  -1.052  26.774  0.00  0.00    +0.210 HD
ENDBRANCH  13  14
ENDBRANCH   1  13
TORSDOF 5
ENDMDL
MODEL 2
REMARK VINA RESULT:      -4.5      1.590      2.735
REMARK  Name = 
REMARK  5 active torsions:
REMARK  status: ('A' for Active; 'I' for Inactive)
REMARK    1  A    between atoms: O_1  and  C_2
REMARK    2  A    between atoms: C_2  and  C_3
REMARK    3  A    between atoms: C_6  and  O_7
REMARK    4  A    between atoms: C_9  and  O_11
REMARK    5  A    between atoms: C_12  and  O_14
REMARK                            x       y       z     vdW  Elec       q    Type
REMARK                         _______ _______ _______ _____ _____    ______ ____
ROOT
ATOM      1  C   UNL     1       9.085  -0.245  23.570  0.00  0.00    +0.177 C 
ATOM      2  C   UNL     1      10.048   0.142  22.429  0.00  0.00    +0.174 C 
ATOM      3  C   UNL     1       9.746   1.520  21.820  0.00  0.00    +0.150 C 
ATOM      4  C   UNL     1       8.255   1.716  21.580  0.00  0.00    +0.095 C 
ATOM      5  C   UNL     1       7.431   1.324  22.797  0.00  0.00    +0.250 C 
ATOM      6  O   UNL     1       7.710   0.008  23.235  0.00  0.00    -0.343 OA
ENDROOT
BRANCH   2   7
ATOM      7  O   UNL     1       9.914  -0.852  21.396  0.00  0.00    -0.387 OA
ATOM      8  H   UNL     1      10.702  -0.792  20.826  0.00  0.00    +0.210 HD
ENDBRANCH   2   7
BRANCH   3   9
ATOM      9  O   UNL     1      10.279   2.586  22.600  0.00  0.00    -0.389 OA
ATOM     10  H   UNL     1      10.190   3.420  22.086  0.00  0.00    +0.210 HD
ENDBRANCH   3   9
BRANCH   5  11
ATOM     11  O   UNL     1       6.054   1.364  22.456  0.00  0.00    -0.367 OA
ATOM     12  H   UNL     1       5.952   0.675  21.777  0.00  0.00    +0.212 HD
ENDBRANCH   5  11
BRANCH   1  13
ATOM     13  C   UNL     1       9.451   0.343  24.946  0.00  0.00    +0.190 C 
BRANCH  13  14
ATOM     14  O   UNL     1      10.815   0.748  25.033  0.00  0.00    -0.392 OA
ATOM     15  H   UNL     1      11.234   0.485  24.191  0.00  0.00    +0.210 HD
ENDBRANCH  13  14
ENDBRANCH   1  13
TORSDOF 5
ENDMDL
MODEL 3
REMARK VINA RESULT:      -4.5      1.316      3.293
REMARK  Name = 
REMARK  5 active torsions:
REMARK  status: ('A' for Active; 'I' for Inactive)
REMARK    1  A    between atoms: O_1  and  C_2
REMARK    2  A    between atoms: C_2  and  C_3
REMARK    3  A    between atoms: C_6  and  O_7
REMARK    4  A    between atoms: C_9  and  O_11
REMARK    5  A    between atoms: C_12  and  O_14
REMARK                            x       y       z     vdW  Elec       q    Type
REMARK                         _______ _______ _______ _____ _____    ______ ____
ROOT
ATOM      1  C   UNL     1       8.995   0.878  23.197  0.00  0.00    +0.177 C 
ATOM      2  C   UNL     1      10.151  -0.114  23.437  0.00  0.00    +0.174 C 
ATOM      3  C   UNL     1       9.899  -1.501  22.825  0.00  0.00    +0.150 C 
ATOM      4  C   UNL     1       8.483  -1.989  23.102  0.00  0.00    +0.095 C 
ATOM      5  C   UNL     1       7.446  -0.920  22.793  0.00  0.00    +0.250 C 
ATOM      6  O   UNL     1       7.709   0.296  23.468  0.00  0.00    -0.343 OA
ENDROOT
BRANCH   2   7
ATOM      7  O   UNL     1      10.303  -0.264  24.861  0.00  0.00    -0.387 OA
ATOM      8  H   UNL     1      11.175  -0.666  25.024  0.00  0.00    +0.210 HD
ENDBRANCH   2   7
BRANCH   3   9
ATOM      9  O   UNL     1      10.186  -1.539  21.431  0.00  0.00    -0.389 OA
ATOM     10  H   UNL     1      11.052  -1.987  21.306  0.00  0.00    +0.210 HD
ENDBRANCH   3   9
BRANCH   5  11
ATOM     11  O   UNL     1       6.173  -1.369  23.229  0.00  0.00    -0.367 OA
ATOM     12  H   UNL     1       5.698  -1.587  22.408  0.00  0.00    +0.212 HD
ENDBRANCH   5  11
BRANCH   1  13
ATOM     13  C   UNL     1       9.024   1.578  21.825  0.00  0.00    +0.190 C 
BRANCH  13  14
ATOM     14  O   UNL     1      10.259   2.239  21.563  0.00  0.00    -0.392 OA
ATOM     15  H   UNL     1      10.965   1.619  21.830  0.00  0.00    +0.210 HD
ENDBRANCH  13  14
ENDBRANCH   1  13
TORSDOF 5
ENDMDL
MODEL 4
REMARK VINA RESULT:      -4.5      1.407      3.501
REMARK  Name = 
REMARK  5 active torsions:
REMARK  status: ('A' for Active; 'I' for Inactive)
REMARK    1  A    between atoms: O_1  and  C_2
REMARK    2  A    between atoms: C_2  and  C_3
REMARK    3  A    between atoms: C_6  and  O_7
REMARK    4  A    between atoms: C_9  and  O_11
REMARK    5  A    between atoms: C_12  and  O_14
REMARK                            x       y       z     vdW  Elec       q    Type
REMARK                         _______ _______ _______ _____ _____    ______ ____
ROOT
ATOM      1  C   UNL     1       8.981   0.169  21.761  0.00  0.00    +0.177 C 
ATOM      2  C   UNL     1      10.161   1.042  22.233  0.00  0.00    +0.174 C 
ATOM      3  C   UNL     1      10.187   1.258  23.755  0.00  0.00    +0.150 C 
ATOM      4  C   UNL     1       8.804   1.588  24.301  0.00  0.00    +0.095 C 
ATOM      5  C   UNL     1       7.746   0.629  23.776  0.00  0.00    +0.250 C 
ATOM      6  O   UNL     1       7.735   0.561  22.362  0.00  0.00    -0.343 OA
ENDROOT
BRANCH   2   7
ATOM      7  O   UNL     1      10.032   2.326  21.593  0.00  0.00    -0.387 OA
ATOM      8  H   UNL     1       9.955   2.998  22.293  0.00  0.00    +0.210 HD
ENDBRANCH   2   7
BRANCH   3   9
ATOM      9  O   UNL     1      10.757   0.152  24.449  0.00  0.00    -0.389 OA
ATOM     10  H   UNL     1      10.723   0.342  25.413  0.00  0.00    +0.210 HD
ENDBRANCH   3   9
BRANCH   5  11
ATOM     11  O   UNL     1       6.465   1.088  24.178  0.00  0.00    -0.367 OA
ATOM     12  H   UNL     1       6.507   2.053  24.069  0.00  0.00    +0.212 HD
ENDBRANCH   5  11
BRANCH   1  13
ATOM     13  C   UNL     1       9.216  -1.348  21.881  0.00  0.00    +0.190 C 
BRANCH  13  14
ATOM     14  O   UNL     1      10.597  -1.693  21.949  0.00  0.00    -0.392 OA
ATOM     15  H   UNL     1      10.646  -2.543  22.429  0.00  0.00    +0.210 HD
ENDBRANCH  13  14
ENDBRANCH   1  13
TORSDOF 5
ENDMDL
MODEL 5
REMARK VINA RESULT:      -4.3      2.049      3.564
REMARK  Name = 
REMARK  5 active torsions:
REMARK  status: ('A' for Active; 'I' for Inactive)
REMARK    1  A    between atoms: O_1  and  C_2
REMARK    2  A    between atoms: C_2  and  C_3
REMARK    3  A    between atoms: C_6  and  O_7
REMARK    4  A    between atoms: C_9  and  O_11
REMARK    5  A    between atoms: C_12  and  O_14
REMARK                            x       y       z     vdW  Elec       q    Type
REMARK                         _______ _______ _______ _____ _____    ______ ____
ROOT
ATOM      1  C   UNL     1       9.051   2.482  24.480  0.00  0.00    +0.177 C 
ATOM      2  C   UNL     1      10.290   1.765  23.906  0.00  0.00    +0.174 C 
ATOM      3  C   UNL     1      10.074   1.221  22.485  0.00  0.00    +0.150 C 
ATOM      4  C   UNL     1       8.728   0.521  22.349  0.00  0.00    +0.095 C 
ATOM      5  C   UNL     1       7.596   1.354  22.929  0.00  0.00    +0.250 C 
ATOM      6  O   UNL     1       7.840   1.737  24.269  0.00  0.00    -0.343 OA
ENDROOT
BRANCH   2   7
ATOM      7  O   UNL     1      10.590   0.659  24.778  0.00  0.00    -0.387 OA
ATOM      8  H   UNL     1       9.774   0.137  24.884  0.00  0.00    +0.210 HD
ENDBRANCH   2   7
BRANCH   3   9
ATOM      9  O   UNL     1      10.225   2.229  21.490  0.00  0.00    -0.389 OA
ATOM     10  H   UNL     1      10.822   1.884  20.789  0.00  0.00    +0.210 HD
ENDBRANCH   3   9
BRANCH   5  11
ATOM     11  O   UNL     1       6.405   0.583  22.928  0.00  0.00    -0.367 OA
ATOM     12  H   UNL     1       6.708  -0.330  23.074  0.00  0.00    +0.212 HD
ENDBRANCH   5  11
BRANCH   1  13
ATOM     13  C   UNL     1       8.897   3.950  24.039  0.00  0.00    +0.190 C 
BRANCH  13  14
ATOM     14  O   UNL     1      10.066   4.467  23.407  0.00  0.00    -0.392 OA
ATOM     15  H   UNL     1      10.796   3.861  23.642  0.00  0.00    +0.210 HD
ENDBRANCH  13  14
ENDBRANCH   1  13
TORSDOF 5
ENDMDL
MODEL 6
REMARK VINA RESULT:      -4.3      1.315      3.610
REMARK  Name = 
REMARK  5 active torsions:
REMARK  status: ('A' for Active; 'I' for Inactive)
REMARK    1  A    between atoms: O_1  and  C_2
REMARK    2  A    between atoms: C_2  and  C_3
REMARK    3  A    between atoms: C_6  and  O_7
REMARK    4  A    between atoms: C_9  and  O_11
REMARK    5  A    between atoms: C_12  and  O_14
REMARK                            x       y       z     vdW  Elec       q    Type
REMARK                         _______ _______ _______ _____ _____    ______ ____
ROOT
ATOM      1  C   UNL     1       8.760  -0.100  22.252  0.00  0.00    +0.177 C 
ATOM      2  C   UNL     1       7.792   0.390  23.348  0.00  0.00    +0.174 C 
ATOM      3  C   UNL     1       8.297   0.113  24.773  0.00  0.00    +0.150 C 
ATOM      4  C   UNL     1       8.857  -1.297  24.908  0.00  0.00    +0.095 C 
ATOM      5  C   UNL     1       9.818  -1.633  23.777  0.00  0.00    +0.250 C 
ATOM      6  O   UNL     1       9.240  -1.433  22.501  0.00  0.00    -0.343 OA
ENDROOT
BRANCH   2   7
ATOM      7  O   UNL     1       6.544  -0.303  23.163  0.00  0.00    -0.387 OA
ATOM      8  H   UNL     1       5.852   0.209  23.620  0.00  0.00    +0.210 HD
ENDBRANCH   2   7
BRANCH   3   9
ATOM      9  O   UNL     1       9.246   1.080  25.210  0.00  0.00    -0.389 OA
ATOM     10  H   UNL     1       9.929   1.181  24.509  0.00  0.00    +0.210 HD
ENDBRANCH   3   9
BRANCH   5  11
ATOM     11  O   UNL     1      10.170  -3.005  23.861  0.00  0.00    -0.367 OA
ATOM     12  H   UNL     1       9.334  -3.458  24.066  0.00  0.00    +0.212 HD
ENDBRANCH   5  11
BRANCH   1  13
ATOM     13  C   UNL     1       9.915   0.868  21.934  0.00  0.00    +0.190 C 
BRANCH  13  14
ATOM     14  O   UNL     1       9.465   2.126  21.436  0.00  0.00    -0.392 OA
ATOM     15  H   UNL     1       9.358   2.017  20.471  0.00  0.00    +0.210 HD
ENDBRANCH  13  14
ENDBRANCH   1  13
TORSDOF 5
ENDMDL
MODEL 7
REMARK VINA RESULT:      -4.3      1.254      2.836
REMARK  Name = 
REMARK  5 active torsions:
REMARK  status: ('A' for Active; 'I' for Inactive)
REMARK    1  A    between atoms: O_1  and  C_2
REMARK    2  A    between atoms: C_2  and  C_3
REMARK    3  A    between atoms: C_6  and  O_7
REMARK    4  A    between atoms: C_9  and  O_11
REMARK    5  A    between atoms: C_12  and  O_14
REMARK                            x       y       z     vdW  Elec       q    Type
REMARK                         _______ _______ _______ _____ _____    ______ ____
ROOT
ATOM      1  C   UNL     1       8.350  -0.602  22.926  0.00  0.00    +0.177 C 
ATOM      2  C   UNL     1       9.347  -1.179  23.951  0.00  0.00    +0.174 C 
ATOM      3  C   UNL     1      10.214  -0.104  24.626  0.00  0.00    +0.150 C 
ATOM      4  C   UNL     1      10.745   0.907  23.619  0.00  0.00    +0.095 C 
ATOM      5  C   UNL     1       9.648   1.412  22.694  0.00  0.00    +0.250 C 
ATOM      6  O   UNL     1       8.961   0.357  22.047  0.00  0.00    -0.343 OA
ENDROOT
BRANCH   2   7
ATOM      7  O   UNL     1      10.214  -2.087  23.246  0.00  0.00    -0.387 OA
ATOM      8  H   UNL     1      10.068  -1.954  22.292  0.00  0.00    +0.210 HD
ENDBRANCH   2   7
BRANCH   3   9
ATOM      9  O   UNL     1       9.533   0.551  25.692  0.00  0.00    -0.389 OA
ATOM     10  H   UNL     1      10.075   1.319  25.979  0.00  0.00    +0.210 HD
ENDBRANCH   3   9
BRANCH   5  11
ATOM     11  O   UNL     1      10.231   2.212  21.677  0.00  0.00    -0.367 OA
ATOM     12  H   UNL     1      10.333   1.607  20.922  0.00  0.00    +0.212 HD
ENDBRANCH   5  11
BRANCH   1  13
ATOM     13  C   UNL     1       7.043  -0.061  23.536  0.00  0.00    +0.190 C 
BRANCH  13  14
ATOM     14  O   UNL     1       6.271   0.700  22.610  0.00  0.00    -0.392 OA
ATOM     15  H   UNL     1       5.794   1.371  23.136  0.00  0.00    +0.210 HD
ENDBRANCH  13  14
ENDBRANCH   1  13
TORSDOF 5
ENDMDL
MODEL 8
REMARK VINA RESULT:      -4.2      1.699      3.008
REMARK  Name = 
REMARK  5 active torsions:
REMARK  status: ('A' for Active; 'I' for Inactive)
REMARK    1  A    between atoms: O_1  and  C_2
REMARK    2  A    between atoms: C_2  and  C_3
REMARK    3  A    between atoms: C_6  and  O_7
REMARK    4  A    between atoms: C_9  and  O_11
REMARK    5  A    between atoms: C_12  and  O_14
REMARK                            x       y       z     vdW  Elec       q    Type
REMARK                         _______ _______ _______ _____ _____    ______ ____
ROOT
ATOM      1  C   UNL     1       7.804  -1.070  22.731  0.00  0.00    +0.177 C 
ATOM      2  C   UNL     1       9.092  -1.621  22.085  0.00  0.00    +0.174 C 
ATOM      3  C   UNL     1      10.252  -1.779  23.081  0.00  0.00    +0.150 C 
ATOM      4  C   UNL     1      10.384  -0.564  23.990  0.00  0.00    +0.095 C 
ATOM      5  C   UNL     1       9.044  -0.151  24.579  0.00  0.00    +0.250 C 
ATOM      6  O   UNL     1       8.059   0.059  23.584  0.00  0.00    -0.343 OA
ENDROOT
BRANCH   2   7
ATOM      7  O   UNL     1       9.493  -0.691  21.061  0.00  0.00    -0.387 OA
ATOM      8  H   UNL     1       9.924  -1.201  20.351  0.00  0.00    +0.210 HD
ENDBRANCH   2   7
BRANCH   3   9
ATOM      9  O   UNL     1      10.150  -2.976  23.845  0.00  0.00    -0.389 OA
ATOM     10  H   UNL     1      10.727  -2.888  24.636  0.00  0.00    +0.210 HD
ENDBRANCH   3   9
BRANCH   5  11
ATOM     11  O   UNL     1       9.201   1.077  25.272  0.00  0.00    -0.367 OA
ATOM     12  H   UNL     1       8.475   1.635  24.943  0.00  0.00    +0.212 HD
ENDBRANCH   5  11
BRANCH   1  13
ATOM     13  C   UNL     1       6.935  -2.129  23.435  0.00  0.00    +0.190 C 
BRANCH  13  14
ATOM     14  O   UNL     1       7.260  -3.462  23.048  0.00  0.00    -0.392 OA
ATOM     15  H   UNL     1       8.156  -3.639  23.394  0.00  0.00    +0.210 HD
ENDBRANCH  13  14
ENDBRANCH   1  13
TORSDOF 5
ENDMDL
MODEL 9
REMARK VINA RESULT:      -4.2      1.884      2.902
REMARK  Name = 
REMARK  5 active torsions:
REMARK  status: ('A' for Active; 'I' for Inactive)
REMARK    1  A    between atoms: O_1  and  C_2
REMARK    2  A    between atoms: C_2  and  C_3
REMARK    3  A    between atoms: C_6  and  O_7
REMARK    4  A    between atoms: C_9  and  O_11
REMARK    5  A    between atoms: C_12  and  O_14
REMARK                            x       y       z     vdW  Elec       q    Type
REMARK                         _______ _______ _______ _____ _____    ______ ____
ROOT
ATOM      1  C   UNL     1       9.392  -1.082  24.682  0.00  0.00    +0.177 C 
ATOM      2  C   UNL     1      10.136  -1.936  23.635  0.00  0.00    +0.174 C 
ATOM      3  C   UNL     1       9.543  -1.820  22.222  0.00  0.00    +0.150 C 
ATOM      4  C   UNL     1       8.022  -1.896  22.242  0.00  0.00    +0.095 C 
ATOM      5  C   UNL     1       7.424  -0.981  23.299  0.00  0.00    +0.250 C 
ATOM      6  O   UNL     1       7.964  -1.218  24.586  0.00  0.00    -0.343 OA
ENDROOT
BRANCH   2   7
ATOM      7  O   UNL     1      10.045  -3.310  24.056  0.00  0.00    -0.387 OA
ATOM      8  H   UNL     1      10.014  -3.319  25.030  0.00  0.00    +0.210 HD
ENDBRANCH   2   7
BRANCH   3   9
ATOM      9  O   UNL     1       9.984  -0.647  21.545  0.00  0.00    -0.389 OA
ATOM     10  H   UNL     1       9.330   0.069  21.708  0.00  0.00    +0.210 HD
ENDBRANCH   3   9
BRANCH   5  11
ATOM     11  O   UNL     1       6.028  -1.222  23.385  0.00  0.00    -0.367 OA
ATOM     12  H   UNL     1       5.635  -0.338  23.485  0.00  0.00    +0.212 HD
ENDBRANCH   5  11
BRANCH   1  13
ATOM     13  C   UNL     1       9.819   0.398  24.723  0.00  0.00    +0.190 C 
BRANCH  13  14
ATOM     14  O   UNL     1      11.110   0.620  24.160  0.00  0.00    -0.392 OA
ATOM     15  H   UNL     1      11.140   1.563  23.905  0.00  0.00    +0.210 HD
ENDBRANCH  13  14
ENDBRANCH   1  13
TORSDOF 5
ENDMDL
