MODEL 1
REMARK VINA RESULT:      -6.1      0.000      0.000
REMARK  Name = 
REMARK  4 active torsions:
REMARK  status: ('A' for Active; 'I' for Inactive)
REMARK    1  A    between atoms: C_1  and  C_2
REMARK    2  A    between atoms: C_2  and  C_3
REMARK    3  A    between atoms: C_9  and  S_15
REMARK    4  A    between atoms: S_15  and  N_16
REMARK                            x       y       z     vdW  Elec       q    Type
REMARK                         _______ _______ _______ _____ _____    ______ ____
ROOT
ATOM      1  C   UNL     1       8.674  -0.270  22.908  0.00  0.00    +0.158 C 
ATOM      2  N   UNL     1       7.310  -0.715  23.114  0.00  0.00    -0.325 N 
ATOM      3  H   UNL     1       6.707  -0.687  22.298  0.00  0.00    +0.148 HD
ATOM      4  C   UNL     1       7.124  -1.843  23.911  0.00  0.00    +0.042 A 
ATOM      5  C   UNL     1       8.192  -2.668  24.280  0.00  0.00    +0.059 A 
ATOM      6  C   UNL     1       8.021  -3.709  25.194  0.00  0.00    +0.045 A 
ATOM      7  C   UNL     1       6.749  -3.942  25.734  0.00  0.00    +0.124 A 
ATOM      8  C   UNL     1       5.654  -3.180  25.313  0.00  0.00    +0.069 A 
ATOM      9 CL   UNL     1       4.032  -3.421  25.863  0.00  0.00    -0.081 Cl
ATOM     10  C   UNL     1       9.485  -2.444  23.597  0.00  0.00    +0.247 C 
ATOM     11  O   UNL     1      10.457  -3.162  23.789  0.00  0.00    -0.270 OA
ATOM     12  C   UNL     1       5.852  -2.133  24.406  0.00  0.00    +0.045 A 
ATOM     13  N   UNL     1       9.510  -1.413  22.688  0.00  0.00    -0.293 N 
ATOM     14  H   UNL     1      10.442  -1.253  22.329  0.00  0.00    +0.151 HD
ENDROOT
BRANCH   7  15
ATOM     15  S   UNL     1       6.576  -5.176  26.980  0.00  0.00    +0.057 S 
ATOM     16  O   UNL     1       5.834  -6.292  26.437  0.00  0.00    -0.153 OA
ATOM     17  O   UNL     1       6.211  -4.551  28.227  0.00  0.00    -0.153 OA
BRANCH  15  18
ATOM     18  N   UNL     1       8.145  -5.754  27.141  0.00  0.00    -0.203 NA
ATOM     19  H   UNL     1       8.608  -5.782  26.233  0.00  0.00    +0.144 HD
ATOM     20  H   UNL     1       8.143  -6.642  27.643  0.00  0.00    +0.144 HD
ENDBRANCH  15  18
ENDBRANCH   7  15
BRANCH   1  22
ATOM     21  C   UNL     1       9.863   1.738  21.920  0.00  0.00    +0.007 C 
ATOM     22  C   UNL     1       8.738   0.724  21.745  0.00  0.00    +0.038 C 
ENDBRANCH   1  22
TORSDOF 3
ENDMDL
MODEL 2
REMARK VINA RESULT:      -6.0      2.053      2.281
REMARK  Name = 
REMARK  4 active torsions:
REMARK  status: ('A' for Active; 'I' for Inactive)
REMARK    1  A    between atoms: C_1  and  C_2
REMARK    2  A    between atoms: C_2  and  C_3
REMARK    3  A    between atoms: C_9  and  S_15
REMARK    4  A    between atoms: S_15  and  N_16
REMARK                            x       y       z     vdW  Elec       q    Type
REMARK                         _______ _______ _______ _____ _____    ______ ____
ROOT
ATOM      1  C   UNL     1      10.174   1.168  23.937  0.00  0.00    +0.158 C 
ATOM      2  N   UNL     1       8.948   0.817  24.627  0.00  0.00    -0.325 N 
ATOM      3  H   UNL     1       8.137   1.383  24.403  0.00  0.00    +0.148 HD
ATOM      4  C   UNL     1       8.667  -0.541  24.769  0.00  0.00    +0.042 A 
ATOM      5  C   UNL     1       9.375  -1.517  24.061  0.00  0.00    +0.059 A 
ATOM      6  C   UNL     1       9.186  -2.877  24.315  0.00  0.00    +0.045 A 
ATOM      7  C   UNL     1       8.253  -3.267  25.285  0.00  0.00    +0.124 A 
ATOM      8  C   UNL     1       7.478  -2.306  25.944  0.00  0.00    +0.069 A 
ATOM      9 CL   UNL     1       6.255  -2.676  27.110  0.00  0.00    -0.081 Cl
ATOM     10  C   UNL     1      10.265  -1.050  22.974  0.00  0.00    +0.247 C 
ATOM     11  O   UNL     1      10.865  -1.827  22.244  0.00  0.00    -0.270 OA
ATOM     12  C   UNL     1       7.694  -0.949  25.682  0.00  0.00    +0.045 A 
ATOM     13  N   UNL     1      10.330   0.311  22.799  0.00  0.00    -0.293 N 
ATOM     14  H   UNL     1      11.024   0.566  22.109  0.00  0.00    +0.151 HD
ENDROOT
BRANCH   7  15
ATOM     15  S   UNL     1       8.118  -4.977  25.684  0.00  0.00    +0.057 S 
ATOM     16  O   UNL     1       6.974  -5.532  24.997  0.00  0.00    -0.153 OA
ATOM     17  O   UNL     1       8.319  -5.158  27.101  0.00  0.00    -0.153 OA
BRANCH  15  18
ATOM     18  N   UNL     1       9.443  -5.642  24.894  0.00  0.00    -0.203 NA
ATOM     19  H   UNL     1       9.396  -6.660  24.917  0.00  0.00    +0.144 HD
ATOM     20  H   UNL     1      10.309  -5.248  25.265  0.00  0.00    +0.144 HD
ENDBRANCH  15  18
ENDBRANCH   7  15
BRANCH   1  22
ATOM     21  C   UNL     1       9.039   3.413  24.248  0.00  0.00    +0.007 C 
ATOM     22  C   UNL     1      10.156   2.649  23.545  0.00  0.00    +0.038 C 
ENDBRANCH   1  22
TORSDOF 3
ENDMDL
MODEL 3
REMARK VINA RESULT:      -6.0      3.306      6.029
REMARK  Name = 
REMARK  4 active torsions:
REMARK  status: ('A' for Active; 'I' for Inactive)
REMARK    1  A    between atoms: C_1  and  C_2
REMARK    2  A    between atoms: C_2  and  C_3
REMARK    3  A    between atoms: C_9  and  S_15
REMARK    4  A    between atoms: S_15  and  N_16
REMARK                            x       y       z     vdW  Elec       q    Type
REMARK                         _______ _______ _______ _____ _____    ______ ____
ROOT
ATOM      1  C   UNL     1       6.949  -5.224  26.897  0.00  0.00    +0.158 C 
ATOM      2  N   UNL     1       7.005  -3.799  27.156  0.00  0.00    -0.325 N 
ATOM      3  H   UNL     1       7.122  -3.530  28.127  0.00  0.00    +0.148 HD
ATOM      4  C   UNL     1       7.739  -3.021  26.263  0.00  0.00    +0.042 A 
ATOM      5  C   UNL     1       8.599  -3.594  25.321  0.00  0.00    +0.059 A 
ATOM      6  C   UNL     1       9.218  -2.819  24.339  0.00  0.00    +0.045 A 
ATOM      7  C   UNL     1       8.987  -1.437  24.313  0.00  0.00    +0.124 A 
ATOM      8  C   UNL     1       8.196  -0.836  25.298  0.00  0.00    +0.069 A 
ATOM      9 CL   UNL     1       7.896   0.864  25.401  0.00  0.00    -0.081 Cl
ATOM     10  C   UNL     1       8.890  -5.038  25.464  0.00  0.00    +0.247 C 
ATOM     11  O   UNL     1       9.690  -5.616  24.742  0.00  0.00    -0.270 OA
ATOM     12  C   UNL     1       7.575  -1.634  26.265  0.00  0.00    +0.045 A 
ATOM     13  N   UNL     1       8.248  -5.677  26.497  0.00  0.00    -0.293 N 
ATOM     14  H   UNL     1       8.415  -6.675  26.481  0.00  0.00    +0.151 HD
ENDROOT
BRANCH   7  15
ATOM     15  S   UNL     1       9.673  -0.493  22.993  0.00  0.00    +0.057 S 
ATOM     16  O   UNL     1      10.779   0.289  23.499  0.00  0.00    -0.153 OA
ATOM     17  O   UNL     1       8.608   0.100  22.222  0.00  0.00    -0.153 OA
BRANCH  15  18
ATOM     18  N   UNL     1      10.396  -1.672  22.040  0.00  0.00    -0.203 NA
ATOM     19  H   UNL     1       9.752  -1.986  21.314  0.00  0.00    +0.144 HD
ATOM     20  H   UNL     1      10.772  -2.418  22.626  0.00  0.00    +0.144 HD
ENDBRANCH  15  18
ENDBRANCH   7  15
BRANCH   1  22
ATOM     21  C   UNL     1       5.124  -6.701  27.855  0.00  0.00    +0.007 C 
ATOM     22  C   UNL     1       6.433  -5.968  28.133  0.00  0.00    +0.038 C 
ENDBRANCH   1  22
TORSDOF 3
ENDMDL
MODEL 4
REMARK VINA RESULT:      -5.9      2.454      2.798
REMARK  Name = 
REMARK  4 active torsions:
REMARK  status: ('A' for Active; 'I' for Inactive)
REMARK    1  A    between atoms: C_1  and  C_2
REMARK    2  A    between atoms: C_2  and  C_3
REMARK    3  A    between atoms: C_9  and  S_15
REMARK    4  A    between atoms: S_15  and  N_16
REMARK                            x       y       z     vdW  Elec       q    Type
REMARK                         _______ _______ _______ _____ _____    ______ ____
ROOT
ATOM      1  C   UNL     1       9.137  -2.510  23.782  0.00  0.00    +0.158 C 
ATOM      2  N   UNL     1       8.073  -3.108  23.000  0.00  0.00    -0.325 N 
ATOM      3  H   UNL     1       8.315  -3.371  22.050  0.00  0.00    +0.148 HD
ATOM      4  C   UNL     1       7.251  -4.029  23.647  0.00  0.00    +0.042 A 
ATOM      5  C   UNL     1       7.582  -4.559  24.898  0.00  0.00    +0.059 A 
ATOM      6  C   UNL     1       6.688  -5.368  25.602  0.00  0.00    +0.045 A 
ATOM      7  C   UNL     1       5.444  -5.668  25.031  0.00  0.00    +0.124 A 
ATOM      8  C   UNL     1       5.130  -5.214  23.746  0.00  0.00    +0.069 A 
ATOM      9 CL   UNL     1       3.655  -5.576  22.919  0.00  0.00    -0.081 Cl
ATOM     10  C   UNL     1       8.949  -4.298  25.401  0.00  0.00    +0.247 C 
ATOM     11  O   UNL     1       9.363  -4.784  26.445  0.00  0.00    -0.270 OA
ATOM     12  C   UNL     1       6.037  -4.394  23.064  0.00  0.00    +0.045 A 
ATOM     13  N   UNL     1       9.745  -3.523  24.594  0.00  0.00    -0.293 N 
ATOM     14  H   UNL     1      10.628  -3.304  25.037  0.00  0.00    +0.151 HD
ENDROOT
BRANCH   7  15
ATOM     15  S   UNL     1       4.279  -6.582  25.985  0.00  0.00    +0.057 S 
ATOM     16  O   UNL     1       3.928  -7.788  25.269  0.00  0.00    -0.153 OA
ATOM     17  O   UNL     1       3.276  -5.686  26.507  0.00  0.00    -0.153 OA
BRANCH  15  18
ATOM     18  N   UNL     1       5.206  -7.118  27.279  0.00  0.00    -0.203 NA
ATOM     19  H   UNL     1       6.198  -6.982  27.085  0.00  0.00    +0.144 HD
ATOM     20  H   UNL     1       4.949  -8.074  27.525  0.00  0.00    +0.144 HD
ENDBRANCH  15  18
ENDBRANCH   7  15
BRANCH   1  22
ATOM     21  C   UNL     1       9.468  -1.002  21.772  0.00  0.00    +0.007 C 
ATOM     22  C   UNL     1      10.151  -1.823  22.861  0.00  0.00    +0.038 C 
ENDBRANCH   1  22
TORSDOF 3
ENDMDL
MODEL 5
REMARK VINA RESULT:      -5.9      3.888      6.602
REMARK  Name = 
REMARK  4 active torsions:
REMARK  status: ('A' for Active; 'I' for Inactive)
REMARK    1  A    between atoms: C_1  and  C_2
REMARK    2  A    between atoms: C_2  and  C_3
REMARK    3  A    between atoms: C_9  and  S_15
REMARK    4  A    between atoms: S_15  and  N_16
REMARK                            x       y       z     vdW  Elec       q    Type
REMARK                         _______ _______ _______ _____ _____    ______ ____
ROOT
ATOM      1  C   UNL     1       3.294  -7.821  24.675  0.00  0.00    +0.158 C 
ATOM      2  N   UNL     1       3.787  -6.770  23.806  0.00  0.00    -0.325 N 
ATOM      3  H   UNL     1       3.079  -6.183  23.375  0.00  0.00    +0.148 HD
ATOM      4  C   UNL     1       4.914  -6.071  24.233  0.00  0.00    +0.042 A 
ATOM      5  C   UNL     1       5.397  -6.180  25.541  0.00  0.00    +0.059 A 
ATOM      6  C   UNL     1       6.605  -5.591  25.919  0.00  0.00    +0.045 A 
ATOM      7  C   UNL     1       7.335  -4.861  24.972  0.00  0.00    +0.124 A 
ATOM      8  C   UNL     1       6.827  -4.673  23.682  0.00  0.00    +0.069 A 
ATOM      9 CL   UNL     1       7.609  -3.740  22.455  0.00  0.00    -0.081 Cl
ATOM     10  C   UNL     1       4.531  -6.869  26.524  0.00  0.00    +0.247 C 
ATOM     11  O   UNL     1       4.825  -6.946  27.709  0.00  0.00    -0.270 OA
ATOM     12  C   UNL     1       5.620  -5.283  23.322  0.00  0.00    +0.045 A 
ATOM     13  N   UNL     1       3.348  -7.367  26.033  0.00  0.00    -0.293 N 
ATOM     14  H   UNL     1       2.851  -7.905  26.730  0.00  0.00    +0.151 HD
ENDROOT
BRANCH   7  15
ATOM     15  S   UNL     1       8.917  -4.234  25.429  0.00  0.00    +0.057 S 
ATOM     16  O   UNL     1       8.827  -2.800  25.583  0.00  0.00    -0.153 OA
ATOM     17  O   UNL     1       9.933  -4.852  24.613  0.00  0.00    -0.153 OA
BRANCH  15  18
ATOM     18  N   UNL     1       9.100  -4.813  26.995  0.00  0.00    -0.203 NA
ATOM     19  H   UNL     1       8.201  -5.117  27.369  0.00  0.00    +0.144 HD
ATOM     20  H   UNL     1       9.588  -4.126  27.570  0.00  0.00    +0.144 HD
ENDBRANCH  15  18
ENDBRANCH   7  15
BRANCH   1  22
ATOM     21  C   UNL     1       1.514  -7.709  22.874  0.00  0.00    +0.007 C 
ATOM     22  C   UNL     1       1.878  -8.231  24.260  0.00  0.00    +0.038 C 
ENDBRANCH   1  22
TORSDOF 3
ENDMDL
MODEL 6
REMARK VINA RESULT:      -5.9      3.525      5.568
REMARK  Name = 
REMARK  4 active torsions:
REMARK  status: ('A' for Active; 'I' for Inactive)
REMARK    1  A    between atoms: C_1  and  C_2
REMARK    2  A    between atoms: C_2  and  C_3
REMARK    3  A    between atoms: C_9  and  S_15
REMARK    4  A    between atoms: S_15  and  N_16
REMARK                            x       y       z     vdW  Elec       q    Type
REMARK                         _______ _______ _______ _____ _____    ______ ____
ROOT
ATOM      1  C   UNL     1       7.266  -4.990  22.503  0.00  0.00    +0.158 C 
ATOM      2  N   UNL     1       6.593  -3.706  22.519  0.00  0.00    -0.325 N 
ATOM      3  H   UNL     1       5.617  -3.721  22.793  0.00  0.00    +0.148 HD
ATOM      4  C   UNL     1       7.306  -2.623  23.031  0.00  0.00    +0.042 A 
ATOM      5  C   UNL     1       8.499  -2.796  23.740  0.00  0.00    +0.059 A 
ATOM      6  C   UNL     1       9.278  -1.704  24.124  0.00  0.00    +0.045 A 
ATOM      7  C   UNL     1       8.842  -0.409  23.809  0.00  0.00    +0.124 A 
ATOM      8  C   UNL     1       7.611  -0.215  23.174  0.00  0.00    +0.069 A 
ATOM      9 CL   UNL     1       6.946   1.336  22.795  0.00  0.00    -0.081 Cl
ATOM     10  C   UNL     1       8.853  -4.176  24.139  0.00  0.00    +0.247 C 
ATOM     11  O   UNL     1       9.832  -4.425  24.829  0.00  0.00    -0.270 OA
ATOM     12  C   UNL     1       6.853  -1.326  22.787  0.00  0.00    +0.045 A 
ATOM     13  N   UNL     1       7.980  -5.157  23.734  0.00  0.00    -0.293 N 
ATOM     14  H   UNL     1       8.327  -6.081  23.955  0.00  0.00    +0.151 HD
ENDROOT
BRANCH   7  15
ATOM     15  S   UNL     1       9.898   0.950  24.187  0.00  0.00    +0.057 S 
ATOM     16  O   UNL     1      10.061   1.762  23.003  0.00  0.00    -0.153 OA
ATOM     17  O   UNL     1      11.026   0.483  24.955  0.00  0.00    -0.153 OA
BRANCH  15  18
ATOM     18  N   UNL     1       8.941   1.883  25.206  0.00  0.00    -0.203 NA
ATOM     19  H   UNL     1       9.060   1.586  26.174  0.00  0.00    +0.144 HD
ATOM     20  H   UNL     1       7.975   1.885  24.878  0.00  0.00    +0.144 HD
ENDBRANCH  15  18
ENDBRANCH   7  15
BRANCH   1  22
ATOM     21  C   UNL     1       4.896  -5.803  22.883  0.00  0.00    +0.007 C 
ATOM     22  C   UNL     1       6.255  -6.116  22.265  0.00  0.00    +0.038 C 
ENDBRANCH   1  22
TORSDOF 3
ENDMDL
MODEL 7
REMARK VINA RESULT:      -5.9      4.153      6.317
REMARK  Name = 
REMARK  4 active torsions:
REMARK  status: ('A' for Active; 'I' for Inactive)
REMARK    1  A    between atoms: C_1  and  C_2
REMARK    2  A    between atoms: C_2  and  C_3
REMARK    3  A    between atoms: C_9  and  S_15
REMARK    4  A    between atoms: S_15  and  N_16
REMARK                            x       y       z     vdW  Elec       q    Type
REMARK                         _______ _______ _______ _____ _____    ______ ____
ROOT
ATOM      1  C   UNL     1       8.289  -3.492  25.166  0.00  0.00    +0.158 C 
ATOM      2  N   UNL     1       8.095  -2.277  25.933  0.00  0.00    -0.325 N 
ATOM      3  H   UNL     1       8.332  -2.332  26.918  0.00  0.00    +0.148 HD
ATOM      4  C   UNL     1       8.473  -1.079  25.329  0.00  0.00    +0.042 A 
ATOM      5  C   UNL     1       9.243  -1.054  24.162  0.00  0.00    +0.059 A 
ATOM      6  C   UNL     1       9.496   0.140  23.485  0.00  0.00    +0.045 A 
ATOM      7  C   UNL     1       8.982   1.339  24.000  0.00  0.00    +0.124 A 
ATOM      8  C   UNL     1       8.280   1.342  25.210  0.00  0.00    +0.069 A 
ATOM      9 CL   UNL     1       7.658   2.766  25.969  0.00  0.00    -0.081 Cl
ATOM     10  C   UNL     1       9.849  -2.332  23.726  0.00  0.00    +0.247 C 
ATOM     11  O   UNL     1      10.605  -2.401  22.766  0.00  0.00    -0.270 OA
ATOM     12  C   UNL     1       8.028   0.131  25.864  0.00  0.00    +0.045 A 
ATOM     13  N   UNL     1       9.557  -3.427  24.503  0.00  0.00    -0.293 N 
ATOM     14  H   UNL     1       9.922  -4.280  24.099  0.00  0.00    +0.151 HD
ENDROOT
BRANCH   7  15
ATOM     15  S   UNL     1       9.201   2.818  23.068  0.00  0.00    +0.057 S 
ATOM     16  O   UNL     1      10.096   3.697  23.785  0.00  0.00    -0.153 OA
ATOM     17  O   UNL     1       7.922   3.267  22.574  0.00  0.00    -0.153 OA
BRANCH  15  18
ATOM     18  N   UNL     1      10.099   2.289  21.751  0.00  0.00    -0.203 NA
ATOM     19  H   UNL     1      10.990   1.902  22.060  0.00  0.00    +0.144 HD
ATOM     20  H   UNL     1      10.177   3.033  21.057  0.00  0.00    +0.144 HD
ENDBRANCH  15  18
ENDBRANCH   7  15
BRANCH   1  22
ATOM     21  C   UNL     1       7.077  -4.555  27.123  0.00  0.00    +0.007 C 
ATOM     22  C   UNL     1       8.177  -4.717  26.079  0.00  0.00    +0.038 C 
ENDBRANCH   1  22
TORSDOF 3
ENDMDL
MODEL 8
REMARK VINA RESULT:      -5.9      3.073      3.719
REMARK  Name = 
REMARK  4 active torsions:
REMARK  status: ('A' for Active; 'I' for Inactive)
REMARK    1  A    between atoms: C_1  and  C_2
REMARK    2  A    between atoms: C_2  and  C_3
REMARK    3  A    between atoms: C_9  and  S_15
REMARK    4  A    between atoms: S_15  and  N_16
REMARK                            x       y       z     vdW  Elec       q    Type
REMARK                         _______ _______ _______ _____ _____    ______ ____
ROOT
ATOM      1  C   UNL     1      10.038   0.534  23.502  0.00  0.00    +0.158 C 
ATOM      2  N   UNL     1      10.201  -0.692  24.259  0.00  0.00    -0.325 N 
ATOM      3  H   UNL     1      10.479  -0.580  25.229  0.00  0.00    +0.148 HD
ATOM      4  C   UNL     1       9.254  -1.693  24.056  0.00  0.00    +0.042 A 
ATOM      5  C   UNL     1       8.059  -1.448  23.371  0.00  0.00    +0.059 A 
ATOM      6  C   UNL     1       7.184  -2.486  23.047  0.00  0.00    +0.045 A 
ATOM      7  C   UNL     1       7.502  -3.795  23.437  0.00  0.00    +0.124 A 
ATOM      8  C   UNL     1       8.651  -4.045  24.194  0.00  0.00    +0.069 A 
ATOM      9 CL   UNL     1       9.107  -5.606  24.783  0.00  0.00    -0.081 Cl
ATOM     10  C   UNL     1       7.725  -0.036  23.082  0.00  0.00    +0.247 C 
ATOM     11  O   UNL     1       6.667   0.289  22.559  0.00  0.00    -0.270 OA
ATOM     12  C   UNL     1       9.520  -2.991  24.496  0.00  0.00    +0.045 A 
ATOM     13  N   UNL     1       8.651   0.893  23.489  0.00  0.00    -0.293 N 
ATOM     14  H   UNL     1       8.408   1.825  23.179  0.00  0.00    +0.151 HD
ENDROOT
BRANCH   7  15
ATOM     15  S   UNL     1       6.452  -5.108  22.911  0.00  0.00    +0.057 S 
ATOM     16  O   UNL     1       5.773  -5.657  24.063  0.00  0.00    -0.153 OA
ATOM     17  O   UNL     1       7.161  -5.944  21.973  0.00  0.00    -0.153 OA
BRANCH  15  18
ATOM     18  N   UNL     1       5.250  -4.298  22.063  0.00  0.00    -0.203 NA
ATOM     19  H   UNL     1       5.170  -3.336  22.392  0.00  0.00    +0.144 HD
ATOM     20  H   UNL     1       4.380  -4.830  22.090  0.00  0.00    +0.144 HD
ENDBRANCH  15  18
ENDBRANCH   7  15
BRANCH   1  22
ATOM     21  C   UNL     1      10.712   2.975  23.379  0.00  0.00    +0.007 C 
ATOM     22  C   UNL     1      10.915   1.643  24.093  0.00  0.00    +0.038 C 
ENDBRANCH   1  22
TORSDOF 3
ENDMDL
MODEL 9
REMARK VINA RESULT:      -5.6      3.179      4.329
REMARK  Name = 
REMARK  4 active torsions:
REMARK  status: ('A' for Active; 'I' for Inactive)
REMARK    1  A    between atoms: C_1  and  C_2
REMARK    2  A    between atoms: C_2  and  C_3
REMARK    3  A    between atoms: C_9  and  S_15
REMARK    4  A    between atoms: S_15  and  N_16
REMARK                            x       y       z     vdW  Elec       q    Type
REMARK                         _______ _______ _______ _____ _____    ______ ____
ROOT
ATOM      1  C   UNL     1      10.522   2.595  23.132  0.00  0.00    +0.158 C 
ATOM      2  N   UNL     1      10.323   1.799  24.328  0.00  0.00    -0.325 N 
ATOM      3  H   UNL     1      10.332   2.309  25.205  0.00  0.00    +0.148 HD
ATOM      4  C   UNL     1       9.356   0.798  24.269  0.00  0.00    +0.042 A 
ATOM      5  C   UNL     1       8.436   0.723  23.219  0.00  0.00    +0.059 A 
ATOM      6  C   UNL     1       7.566  -0.362  23.093  0.00  0.00    +0.045 A 
ATOM      7  C   UNL     1       7.607  -1.385  24.051  0.00  0.00    +0.124 A 
ATOM      8  C   UNL     1       8.463  -1.285  25.152  0.00  0.00    +0.069 A 
ATOM      9 CL   UNL     1       8.551  -2.453  26.425  0.00  0.00    -0.081 Cl
ATOM     10  C   UNL     1       8.364   1.881  22.301  0.00  0.00    +0.247 C 
ATOM     11  O   UNL     1       7.538   1.950  21.401  0.00  0.00    -0.270 OA
ATOM     12  C   UNL     1       9.335  -0.195  25.251  0.00  0.00    +0.045 A 
ATOM     13  N   UNL     1       9.245   2.904  22.560  0.00  0.00    -0.293 N 
ATOM     14  H   UNL     1       9.210   3.618  21.844  0.00  0.00    +0.151 HD
ENDROOT
BRANCH   7  15
ATOM     15  S   UNL     1       6.595  -2.806  23.807  0.00  0.00    +0.057 S 
ATOM     16  O   UNL     1       5.570  -2.834  24.826  0.00  0.00    -0.153 OA
ATOM     17  O   UNL     1       7.431  -3.950  23.534  0.00  0.00    -0.153 OA
BRANCH  15  18
ATOM     18  N   UNL     1       5.770  -2.430  22.393  0.00  0.00    -0.203 NA
ATOM     19  H   UNL     1       4.865  -2.899  22.375  0.00  0.00    +0.144 HD
ATOM     20  H   UNL     1       6.360  -2.614  21.581  0.00  0.00    +0.144 HD
ENDBRANCH  15  18
ENDBRANCH   7  15
BRANCH   1  22
ATOM     21  C   UNL     1      10.424   5.047  23.767  0.00  0.00    +0.007 C 
ATOM     22  C   UNL     1      11.327   3.856  23.462  0.00  0.00    +0.038 C 
ENDBRANCH   1  22
TORSDOF 3
ENDMDL
