MODEL 1
REMARK VINA RESULT:      -6.5      0.000      0.000
REMARK  Name = 
REMARK  8 active torsions:
REMARK  status: ('A' for Active; 'I' for Inactive)
REMARK    1  A    between atoms: C_2  and  C_3
REMARK    2  A    between atoms: C_2  and  N_4
REMARK    3  A    between atoms: C_2  and  C_23
REMARK    4  A    between atoms: C_7  and  N_9
REMARK    5  A    between atoms: N_9  and  S_10
REMARK    6  A    between atoms: S_10  and  C_13
REMARK    7  A    between atoms: C_13  and  C_14
REMARK    8  A    between atoms: C_14  and  C_15
REMARK                            x       y       z     vdW  Elec       q    Type
REMARK                         _______ _______ _______ _____ _____    ______ ____
ROOT
ATOM      1  N   UNL     1       8.187  -1.314  24.184  0.00  0.00    -0.289 N 
ATOM      2  C   UNL     1       7.000  -0.792  23.690  0.00  0.00    +0.235 C 
ATOM      3  O   UNL     1       6.451  -1.168  22.674  0.00  0.00    -0.274 OA
ATOM      4  C   UNL     1       6.592   0.315  24.628  0.00  0.00    +0.163 C 
ATOM      5  C   UNL     1       7.040  -0.289  25.963  0.00  0.00    +0.049 C 
ATOM      6  C   UNL     1       8.348  -0.995  25.590  0.00  0.00    +0.110 C 
ENDROOT
BRANCH   1   7
ATOM      7  C   UNL     1       8.810  -2.468  23.535  0.00  0.00    +0.159 C 
ATOM      8  C   UNL     1      10.195  -2.089  22.997  0.00  0.00    +0.038 C 
BRANCH   7   9
ATOM      9  C   UNL     1       8.938  -3.725  24.463  0.00  0.00    +0.236 C 
ATOM     10  N   UNL     1       7.811  -4.391  24.922  0.00  0.00    -0.296 N 
ATOM     11  C   UNL     1       6.415  -4.195  24.530  0.00  0.00    +0.136 C 
ATOM     12  C   UNL     1       5.543  -3.911  25.764  0.00  0.00    +0.179 C 
ATOM     13  O   UNL     1       5.689  -4.950  26.747  0.00  0.00    -0.377 OA
ATOM     14  C   UNL     1       7.062  -5.049  27.169  0.00  0.00    +0.179 C 
ATOM     15  C   UNL     1       7.968  -5.396  25.980  0.00  0.00    +0.136 C 
ATOM     16  O   UNL     1      10.060  -4.196  24.693  0.00  0.00    -0.274 OA
ENDBRANCH   7   9
ENDBRANCH   1   7
BRANCH   4  17
ATOM     17  N   UNL     1       5.165   0.716  24.624  0.00  0.00    -0.183 NA
ATOM     18  H   UNL     1       4.734   0.455  25.510  0.00  0.00    +0.148 HD
BRANCH  17  19
ATOM     19  S   UNL     1       4.980   2.399  24.360  0.00  0.00    +0.030 S 
ATOM     20  O   UNL     1       5.800   3.155  25.271  0.00  0.00    -0.158 OA
ATOM     21  O   UNL     1       3.552   2.620  24.280  0.00  0.00    -0.158 OA
BRANCH  19  22
ATOM     22  C   UNL     1       5.685   2.613  22.745  0.00  0.00    +0.190 C 
BRANCH  22  23
ATOM     23  C   UNL     1       6.902   3.510  22.802  0.00  0.00    +0.066 C 
BRANCH  23  24
ATOM     24  C   UNL     1       8.167   2.720  22.802  0.00  0.00    -0.007 A 
ATOM     25  S   UNL     1       9.146   2.659  24.208  0.00  0.00    -0.082 S 
ATOM     26  C   UNL     1      10.243   1.619  23.452  0.00  0.00    +0.078 A 
ATOM     27 CL   UNL     1      11.606   1.046  24.320  0.00  0.00    -0.076 Cl
ATOM     28  C   UNL     1       9.910   1.321  22.156  0.00  0.00    +0.028 A 
ATOM     29  C   UNL     1       8.700   1.970  21.773  0.00  0.00    +0.013 A 
ENDBRANCH  23  24
ENDBRANCH  22  23
ENDBRANCH  19  22
ENDBRANCH  17  19
ENDBRANCH   4  17
TORSDOF 7
ENDMDL
MODEL 2
REMARK VINA RESULT:      -6.5      3.098      4.519
REMARK  Name = 
REMARK  8 active torsions:
REMARK  status: ('A' for Active; 'I' for Inactive)
REMARK    1  A    between atoms: C_2  and  C_3
REMARK    2  A    between atoms: C_2  and  N_4
REMARK    3  A    between atoms: C_2  and  C_23
REMARK    4  A    between atoms: C_7  and  N_9
REMARK    5  A    between atoms: N_9  and  S_10
REMARK    6  A    between atoms: S_10  and  C_13
REMARK    7  A    between atoms: C_13  and  C_14
REMARK    8  A    between atoms: C_14  and  C_15
REMARK                            x       y       z     vdW  Elec       q    Type
REMARK                         _______ _______ _______ _____ _____    ______ ____
ROOT
ATOM      1  N   UNL     1       7.064  -4.028  25.301  0.00  0.00    -0.289 N 
ATOM      2  C   UNL     1       7.913  -3.829  24.221  0.00  0.00    +0.235 C 
ATOM      3  O   UNL     1       8.689  -4.660  23.793  0.00  0.00    -0.274 OA
ATOM      4  C   UNL     1       7.692  -2.413  23.753  0.00  0.00    +0.163 C 
ATOM      5  C   UNL     1       6.183  -2.288  23.986  0.00  0.00    +0.049 C 
ATOM      6  C   UNL     1       5.979  -3.066  25.291  0.00  0.00    +0.110 C 
ENDROOT
BRANCH   1   7
ATOM      7  C   UNL     1       6.981  -5.341  25.941  0.00  0.00    +0.159 C 
ATOM      8  C   UNL     1       7.615  -5.292  27.336  0.00  0.00    +0.038 C 
BRANCH   7   9
ATOM      9  C   UNL     1       5.521  -5.902  26.052  0.00  0.00    +0.236 C 
ATOM     10  N   UNL     1       4.803  -6.253  24.917  0.00  0.00    -0.296 N 
ATOM     11  C   UNL     1       5.272  -6.341  23.535  0.00  0.00    +0.136 C 
ATOM     12  C   UNL     1       4.404  -5.468  22.614  0.00  0.00    +0.179 C 
ATOM     13  O   UNL     1       3.014  -5.813  22.738  0.00  0.00    -0.377 OA
ATOM     14  C   UNL     1       2.573  -5.629  24.096  0.00  0.00    +0.179 C 
ATOM     15  C   UNL     1       3.368  -6.530  25.049  0.00  0.00    +0.136 C 
ATOM     16  O   UNL     1       5.048  -6.140  27.171  0.00  0.00    -0.274 OA
ENDBRANCH   7   9
ENDBRANCH   1   7
BRANCH   4  17
ATOM     17  N   UNL     1       8.093  -2.089  22.365  0.00  0.00    -0.183 NA
ATOM     18  H   UNL     1       7.312  -1.654  21.875  0.00  0.00    +0.148 HD
BRANCH  17  19
ATOM     19  S   UNL     1       9.455  -1.049  22.324  0.00  0.00    +0.030 S 
ATOM     20  O   UNL     1       9.253   0.025  21.386  0.00  0.00    -0.158 OA
ATOM     21  O   UNL     1      10.603  -1.923  22.224  0.00  0.00    -0.158 OA
BRANCH  19  22
ATOM     22  C   UNL     1       9.428  -0.320  23.943  0.00  0.00    +0.190 C 
BRANCH  22  23
ATOM     23  C   UNL     1      10.534   0.702  24.093  0.00  0.00    +0.066 C 
BRANCH  23  24
ATOM     24  C   UNL     1       9.994   2.090  24.167  0.00  0.00    -0.007 A 
ATOM     25  S   UNL     1      10.842   3.386  23.435  0.00  0.00    -0.082 S 
ATOM     26  C   UNL     1       9.644   4.486  23.893  0.00  0.00    +0.078 A 
ATOM     27 CL   UNL     1       9.794   6.137  23.453  0.00  0.00    -0.076 Cl
ATOM     28  C   UNL     1       8.619   3.915  24.602  0.00  0.00    +0.028 A 
ATOM     29  C   UNL     1       8.826   2.515  24.769  0.00  0.00    +0.013 A 
ENDBRANCH  23  24
ENDBRANCH  22  23
ENDBRANCH  19  22
ENDBRANCH  17  19
ENDBRANCH   4  17
TORSDOF 7
ENDMDL
MODEL 3
REMARK VINA RESULT:      -6.4      2.499      3.302
REMARK  Name = 
REMARK  8 active torsions:
REMARK  status: ('A' for Active; 'I' for Inactive)
REMARK    1  A    between atoms: C_2  and  C_3
REMARK    2  A    between atoms: C_2  and  N_4
REMARK    3  A    between atoms: C_2  and  C_23
REMARK    4  A    between atoms: C_7  and  N_9
REMARK    5  A    between atoms: N_9  and  S_10
REMARK    6  A    between atoms: S_10  and  C_13
REMARK    7  A    between atoms: C_13  and  C_14
REMARK    8  A    between atoms: C_14  and  C_15
REMARK                            x       y       z     vdW  Elec       q    Type
REMARK                         _______ _______ _______ _____ _____    ______ ____
ROOT
ATOM      1  N   UNL     1       8.246  -3.126  24.802  0.00  0.00    -0.289 N 
ATOM      2  C   UNL     1       8.079  -2.469  23.591  0.00  0.00    +0.235 C 
ATOM      3  O   UNL     1       8.148  -3.002  22.502  0.00  0.00    -0.274 OA
ATOM      4  C   UNL     1       7.844  -1.016  23.918  0.00  0.00    +0.163 C 
ATOM      5  C   UNL     1       7.016  -1.162  25.198  0.00  0.00    +0.049 C 
ATOM      6  C   UNL     1       7.677  -2.358  25.892  0.00  0.00    +0.110 C 
ENDROOT
BRANCH   1   7
ATOM      7  C   UNL     1       8.418  -4.579  24.833  0.00  0.00    +0.159 C 
ATOM      8  C   UNL     1       9.749  -4.941  25.502  0.00  0.00    +0.038 C 
BRANCH   7   9
ATOM      9  C   UNL     1       7.250  -5.340  25.551  0.00  0.00    +0.236 C 
ATOM     10  N   UNL     1       6.051  -5.588  24.897  0.00  0.00    -0.296 N 
ATOM     11  C   UNL     1       5.723  -5.378  23.487  0.00  0.00    +0.136 C 
ATOM     12  C   UNL     1       4.478  -4.486  23.351  0.00  0.00    +0.179 C 
ATOM     13  O   UNL     1       3.371  -5.029  24.089  0.00  0.00    -0.377 OA
ATOM     14  C   UNL     1       3.707  -5.138  25.485  0.00  0.00    +0.179 C 
ATOM     15  C   UNL     1       4.908  -6.072  25.681  0.00  0.00    +0.136 C 
ATOM     16  O   UNL     1       7.443  -5.826  26.674  0.00  0.00    -0.274 OA
ENDBRANCH   7   9
ENDBRANCH   1   7
BRANCH   4  17
ATOM     17  N   UNL     1       7.175  -0.189  22.886  0.00  0.00    -0.183 NA
ATOM     18  H   UNL     1       6.300   0.178  23.256  0.00  0.00    +0.148 HD
BRANCH  17  19
ATOM     19  S   UNL     1       8.174   1.102  22.364  0.00  0.00    +0.030 S 
ATOM     20  O   UNL     1       7.379   2.206  21.890  0.00  0.00    -0.158 OA
ATOM     21  O   UNL     1       9.182   0.493  21.524  0.00  0.00    -0.158 OA
BRANCH  19  22
ATOM     22  C   UNL     1       8.934   1.635  23.877  0.00  0.00    +0.190 C 
BRANCH  22  23
ATOM     23  C   UNL     1       8.540   3.059  24.206  0.00  0.00    +0.066 C 
BRANCH  23  24
ATOM     24  C   UNL     1       9.671   4.006  23.989  0.00  0.00    -0.007 A 
ATOM     25  S   UNL     1      11.172   3.434  23.390  0.00  0.00    -0.082 S 
ATOM     26  C   UNL     1      11.817   4.996  23.391  0.00  0.00    +0.078 A 
ATOM     27 CL   UNL     1      13.422   5.252  22.845  0.00  0.00    -0.076 Cl
ATOM     28  C   UNL     1      10.943   5.949  23.847  0.00  0.00    +0.028 A 
ATOM     29  C   UNL     1       9.690   5.370  24.204  0.00  0.00    +0.013 A 
ENDBRANCH  23  24
ENDBRANCH  22  23
ENDBRANCH  19  22
ENDBRANCH  17  19
ENDBRANCH   4  17
TORSDOF 7
ENDMDL
MODEL 4
REMARK VINA RESULT:      -6.3      2.175      2.430
REMARK  Name = 
REMARK  8 active torsions:
REMARK  status: ('A' for Active; 'I' for Inactive)
REMARK    1  A    between atoms: C_2  and  C_3
REMARK    2  A    between atoms: C_2  and  N_4
REMARK    3  A    between atoms: C_2  and  C_23
REMARK    4  A    between atoms: C_7  and  N_9
REMARK    5  A    between atoms: N_9  and  S_10
REMARK    6  A    between atoms: S_10  and  C_13
REMARK    7  A    between atoms: C_13  and  C_14
REMARK    8  A    between atoms: C_14  and  C_15
REMARK                            x       y       z     vdW  Elec       q    Type
REMARK                         _______ _______ _______ _____ _____    ______ ____
ROOT
ATOM      1  N   UNL     1       8.172  -0.433  23.880  0.00  0.00    -0.289 N 
ATOM      2  C   UNL     1       7.470   0.572  23.227  0.00  0.00    +0.235 C 
ATOM      3  O   UNL     1       7.630   0.879  22.063  0.00  0.00    -0.274 OA
ATOM      4  C   UNL     1       6.547   1.187  24.248  0.00  0.00    +0.163 C 
ATOM      5  C   UNL     1       6.164  -0.064  25.046  0.00  0.00    +0.049 C 
ATOM      6  C   UNL     1       7.474  -0.857  25.078  0.00  0.00    +0.110 C 
ENDROOT
BRANCH   1   7
ATOM      7  C   UNL     1       9.105  -1.280  23.137  0.00  0.00    +0.159 C 
ATOM      8  C   UNL     1      10.546  -0.806  23.362  0.00  0.00    +0.038 C 
BRANCH   7   9
ATOM      9  C   UNL     1       8.996  -2.804  23.490  0.00  0.00    +0.236 C 
ATOM     10  N   UNL     1       7.923  -3.565  23.048  0.00  0.00    -0.296 N 
ATOM     11  C   UNL     1       6.872  -3.191  22.102  0.00  0.00    +0.136 C 
ATOM     12  C   UNL     1       5.484  -3.390  22.733  0.00  0.00    +0.179 C 
ATOM     13  O   UNL     1       5.326  -4.734  23.217  0.00  0.00    -0.377 OA
ATOM     14  C   UNL     1       6.327  -5.030  24.208  0.00  0.00    +0.179 C 
ATOM     15  C   UNL     1       7.733  -4.908  23.608  0.00  0.00    +0.136 C 
ATOM     16  O   UNL     1       9.937  -3.359  24.074  0.00  0.00    -0.274 OA
ENDBRANCH   7   9
ENDBRANCH   1   7
BRANCH   4  17
ATOM     17  N   UNL     1       5.372   1.930  23.737  0.00  0.00    -0.183 NA
ATOM     18  H   UNL     1       4.569   1.760  24.342  0.00  0.00    +0.148 HD
BRANCH  17  19
ATOM     19  S   UNL     1       5.680   3.613  23.642  0.00  0.00    +0.030 S 
ATOM     20  O   UNL     1       4.561   4.370  24.142  0.00  0.00    -0.158 OA
ATOM     21  O   UNL     1       6.194   3.834  22.307  0.00  0.00    -0.158 OA
BRANCH  19  22
ATOM     22  C   UNL     1       7.001   3.828  24.808  0.00  0.00    +0.190 C 
BRANCH  22  23
ATOM     23  C   UNL     1       7.850   5.027  24.446  0.00  0.00    +0.066 C 
BRANCH  23  24
ATOM     24  C   UNL     1       9.223   4.622  24.029  0.00  0.00    -0.007 A 
ATOM     25  S   UNL     1      10.458   5.799  23.867  0.00  0.00    -0.082 S 
ATOM     26  C   UNL     1      11.592   4.615  23.455  0.00  0.00    +0.078 A 
ATOM     27 CL   UNL     1      13.217   5.068  23.143  0.00  0.00    -0.076 Cl
ATOM     28  C   UNL     1      11.071   3.348  23.416  0.00  0.00    +0.028 A 
ATOM     29  C   UNL     1       9.684   3.351  23.745  0.00  0.00    +0.013 A 
ENDBRANCH  23  24
ENDBRANCH  22  23
ENDBRANCH  19  22
ENDBRANCH  17  19
ENDBRANCH   4  17
TORSDOF 7
ENDMDL
MODEL 5
REMARK VINA RESULT:      -6.2      2.795      4.146
REMARK  Name = 
REMARK  8 active torsions:
REMARK  status: ('A' for Active; 'I' for Inactive)
REMARK    1  A    between atoms: C_2  and  C_3
REMARK    2  A    between atoms: C_2  and  N_4
REMARK    3  A    between atoms: C_2  and  C_23
REMARK    4  A    between atoms: C_7  and  N_9
REMARK    5  A    between atoms: N_9  and  S_10
REMARK    6  A    between atoms: S_10  and  C_13
REMARK    7  A    between atoms: C_13  and  C_14
REMARK    8  A    between atoms: C_14  and  C_15
REMARK                            x       y       z     vdW  Elec       q    Type
REMARK                         _______ _______ _______ _____ _____    ______ ____
ROOT
ATOM      1  N   UNL     1       7.215  -4.566  23.407  0.00  0.00    -0.289 N 
ATOM      2  C   UNL     1       7.405  -3.191  23.373  0.00  0.00    +0.235 C 
ATOM      3  O   UNL     1       6.554  -2.386  23.054  0.00  0.00    -0.274 OA
ATOM      4  C   UNL     1       8.841  -2.945  23.763  0.00  0.00    +0.163 C 
ATOM      5  C   UNL     1       9.022  -4.041  24.818  0.00  0.00    +0.049 C 
ATOM      6  C   UNL     1       8.221  -5.208  24.230  0.00  0.00    +0.110 C 
ENDROOT
BRANCH   1   7
ATOM      7  C   UNL     1       5.891  -5.133  23.150  0.00  0.00    +0.159 C 
ATOM      8  C   UNL     1       5.910  -5.963  21.861  0.00  0.00    +0.038 C 
BRANCH   7   9
ATOM      9  C   UNL     1       5.336  -6.009  24.326  0.00  0.00    +0.236 C 
ATOM     10  N   UNL     1       5.064  -5.449  25.567  0.00  0.00    -0.296 N 
ATOM     11  C   UNL     1       5.061  -4.036  25.946  0.00  0.00    +0.136 C 
ATOM     12  C   UNL     1       5.999  -3.797  27.141  0.00  0.00    +0.179 C 
ATOM     13  O   UNL     1       5.658  -4.655  28.243  0.00  0.00    -0.377 OA
ATOM     14  C   UNL     1       5.759  -6.037  27.850  0.00  0.00    +0.179 C 
ATOM     15  C   UNL     1       4.792  -6.342  26.698  0.00  0.00    +0.136 C 
ATOM     16  O   UNL     1       5.031  -7.189  24.110  0.00  0.00    -0.274 OA
ENDBRANCH   7   9
ENDBRANCH   1   7
BRANCH   4  17
ATOM     17  N   UNL     1       9.183  -1.594  24.266  0.00  0.00    -0.183 NA
ATOM     18  H   UNL     1       9.704  -1.676  25.139  0.00  0.00    +0.148 HD
BRANCH  17  19
ATOM     19  S   UNL     1      10.100  -0.706  23.123  0.00  0.00    +0.030 S 
ATOM     20  O   UNL     1      10.685  -1.582  22.141  0.00  0.00    -0.158 OA
ATOM     21  O   UNL     1      10.920   0.194  23.905  0.00  0.00    -0.158 OA
BRANCH  19  22
ATOM     22  C   UNL     1       8.853   0.239  22.283  0.00  0.00    +0.190 C 
BRANCH  22  23
ATOM     23  C   UNL     1       7.922   0.904  23.274  0.00  0.00    +0.066 C 
BRANCH  23  24
ATOM     24  C   UNL     1       7.866   2.380  23.069  0.00  0.00    -0.007 A 
ATOM     25  S   UNL     1       9.007   3.402  23.838  0.00  0.00    -0.082 S 
ATOM     26  C   UNL     1       8.335   4.772  23.110  0.00  0.00    +0.078 A 
ATOM     27 CL   UNL     1       9.023   6.315  23.408  0.00  0.00    -0.076 Cl
ATOM     28  C   UNL     1       7.258   4.493  22.310  0.00  0.00    +0.028 A 
ATOM     29  C   UNL     1       6.978   3.096  22.290  0.00  0.00    +0.013 A 
ENDBRANCH  23  24
ENDBRANCH  22  23
ENDBRANCH  19  22
ENDBRANCH  17  19
ENDBRANCH   4  17
TORSDOF 7
ENDMDL
MODEL 6
REMARK VINA RESULT:      -6.2      3.088      4.096
REMARK  Name = 
REMARK  8 active torsions:
REMARK  status: ('A' for Active; 'I' for Inactive)
REMARK    1  A    between atoms: C_2  and  C_3
REMARK    2  A    between atoms: C_2  and  N_4
REMARK    3  A    between atoms: C_2  and  C_23
REMARK    4  A    between atoms: C_7  and  N_9
REMARK    5  A    between atoms: N_9  and  S_10
REMARK    6  A    between atoms: S_10  and  C_13
REMARK    7  A    between atoms: C_13  and  C_14
REMARK    8  A    between atoms: C_14  and  C_15
REMARK                            x       y       z     vdW  Elec       q    Type
REMARK                         _______ _______ _______ _____ _____    ______ ____
ROOT
ATOM      1  N   UNL     1       9.045  -3.007  25.068  0.00  0.00    -0.289 N 
ATOM      2  C   UNL     1       9.239  -2.139  24.002  0.00  0.00    +0.235 C 
ATOM      3  O   UNL     1       9.493  -2.489  22.867  0.00  0.00    -0.274 OA
ATOM      4  C   UNL     1       9.111  -0.742  24.554  0.00  0.00    +0.163 C 
ATOM      5  C   UNL     1       8.000  -0.965  25.585  0.00  0.00    +0.049 C 
ATOM      6  C   UNL     1       8.337  -2.349  26.149  0.00  0.00    +0.110 C 
ENDROOT
BRANCH   1   7
ATOM      7  C   UNL     1       9.031  -4.454  24.846  0.00  0.00    +0.159 C 
ATOM      8  C   UNL     1      10.052  -5.140  25.761  0.00  0.00    +0.038 C 
BRANCH   7   9
ATOM      9  C   UNL     1       7.623  -5.112  25.050  0.00  0.00    +0.236 C 
ATOM     10  N   UNL     1       6.701  -5.161  24.014  0.00  0.00    -0.296 N 
ATOM     11  C   UNL     1       6.894  -4.812  22.607  0.00  0.00    +0.136 C 
ATOM     12  C   UNL     1       5.859  -3.765  22.165  0.00  0.00    +0.179 C 
ATOM     13  O   UNL     1       4.521  -4.218  22.432  0.00  0.00    -0.377 OA
ATOM     14  C   UNL     1       4.350  -4.466  23.840  0.00  0.00    +0.179 C 
ATOM     15  C   UNL     1       5.320  -5.554  24.318  0.00  0.00    +0.136 C 
ATOM     16  O   UNL     1       7.376  -5.696  26.114  0.00  0.00    -0.274 OA
ENDBRANCH   7   9
ENDBRANCH   1   7
BRANCH   4  17
ATOM     17  N   UNL     1       8.800   0.340  23.592  0.00  0.00    -0.183 NA
ATOM     18  H   UNL     1       7.897   0.754  23.822  0.00  0.00    +0.148 HD
BRANCH  17  19
ATOM     19  S   UNL     1      10.011   1.552  23.587  0.00  0.00    +0.030 S 
ATOM     20  O   UNL     1      10.261   2.024  22.250  0.00  0.00    -0.158 OA
ATOM     21  O   UNL     1      11.082   1.027  24.407  0.00  0.00    -0.158 OA
BRANCH  19  22
ATOM     22  C   UNL     1       9.223   2.884  24.458  0.00  0.00    +0.190 C 
BRANCH  22  23
ATOM     23  C   UNL     1       9.439   4.199  23.740  0.00  0.00    +0.066 C 
BRANCH  23  24
ATOM     24  C   UNL     1       8.149   4.797  23.290  0.00  0.00    -0.007 A 
ATOM     25  S   UNL     1       6.686   3.919  23.456  0.00  0.00    -0.082 S 
ATOM     26  C   UNL     1       5.792   5.204  22.818  0.00  0.00    +0.078 A 
ATOM     27 CL   UNL     1       4.088   5.066  22.682  0.00  0.00    -0.076 Cl
ATOM     28  C   UNL     1       6.560   6.281  22.463  0.00  0.00    +0.028 A 
ATOM     29  C   UNL     1       7.940   6.043  22.731  0.00  0.00    +0.013 A 
ENDBRANCH  23  24
ENDBRANCH  22  23
ENDBRANCH  19  22
ENDBRANCH  17  19
ENDBRANCH   4  17
TORSDOF 7
ENDMDL
MODEL 7
REMARK VINA RESULT:      -6.1      3.166      4.800
REMARK  Name = 
REMARK  8 active torsions:
REMARK  status: ('A' for Active; 'I' for Inactive)
REMARK    1  A    between atoms: C_2  and  C_3
REMARK    2  A    between atoms: C_2  and  N_4
REMARK    3  A    between atoms: C_2  and  C_23
REMARK    4  A    between atoms: C_7  and  N_9
REMARK    5  A    between atoms: N_9  and  S_10
REMARK    6  A    between atoms: S_10  and  C_13
REMARK    7  A    between atoms: C_13  and  C_14
REMARK    8  A    between atoms: C_14  and  C_15
REMARK                            x       y       z     vdW  Elec       q    Type
REMARK                         _______ _______ _______ _____ _____    ______ ____
ROOT
ATOM      1  N   UNL     1       5.509  -4.734  23.522  0.00  0.00    -0.289 N 
ATOM      2  C   UNL     1       6.467  -3.855  24.008  0.00  0.00    +0.235 C 
ATOM      3  O   UNL     1       6.354  -3.211  25.032  0.00  0.00    -0.274 OA
ATOM      4  C   UNL     1       7.597  -3.853  23.011  0.00  0.00    +0.163 C 
ATOM      5  C   UNL     1       7.587  -5.328  22.595  0.00  0.00    +0.049 C 
ATOM      6  C   UNL     1       6.091  -5.660  22.569  0.00  0.00    +0.110 C 
ENDROOT
BRANCH   1   7
ATOM      7  C   UNL     1       4.307  -5.021  24.306  0.00  0.00    +0.159 C 
ATOM      8  C   UNL     1       3.150  -5.413  23.379  0.00  0.00    +0.038 C 
BRANCH   7   9
ATOM      9  C   UNL     1       4.509  -6.136  25.389  0.00  0.00    +0.236 C 
ATOM     10  N   UNL     1       4.521  -5.825  26.742  0.00  0.00    -0.296 N 
ATOM     11  C   UNL     1       4.197  -4.551  27.385  0.00  0.00    +0.136 C 
ATOM     12  C   UNL     1       5.361  -4.085  28.273  0.00  0.00    +0.179 C 
ATOM     13  O   UNL     1       5.719  -5.098  29.227  0.00  0.00    -0.377 OA
ATOM     14  C   UNL     1       6.114  -6.306  28.549  0.00  0.00    +0.179 C 
ATOM     15  C   UNL     1       4.960  -6.848  27.697  0.00  0.00    +0.136 C 
ATOM     16  O   UNL     1       4.543  -7.323  25.037  0.00  0.00    -0.274 OA
ENDBRANCH   7   9
ENDBRANCH   1   7
BRANCH   4  17
ATOM     17  N   UNL     1       8.922  -3.396  23.490  0.00  0.00    -0.183 NA
ATOM     18  H   UNL     1       9.647  -4.025  23.145  0.00  0.00    +0.148 HD
BRANCH  17  19
ATOM     19  S   UNL     1       9.258  -1.792  22.988  0.00  0.00    +0.030 S 
ATOM     20  O   UNL     1       8.081  -1.167  22.442  0.00  0.00    -0.158 OA
ATOM     21  O   UNL     1      10.482  -1.878  22.221  0.00  0.00    -0.158 OA
BRANCH  19  22
ATOM     22  C   UNL     1       9.601  -0.974  24.526  0.00  0.00    +0.190 C 
BRANCH  22  23
ATOM     23  C   UNL     1      10.570   0.171  24.323  0.00  0.00    +0.066 C 
BRANCH  23  24
ATOM     24  C   UNL     1       9.877   1.491  24.365  0.00  0.00    -0.007 A 
ATOM     25  S   UNL     1      10.578   2.857  23.603  0.00  0.00    -0.082 S 
ATOM     26  C   UNL     1       9.262   3.826  24.035  0.00  0.00    +0.078 A 
ATOM     27 CL   UNL     1       9.228   5.473  23.556  0.00  0.00    -0.076 Cl
ATOM     28  C   UNL     1       8.306   3.161  24.757  0.00  0.00    +0.028 A 
ATOM     29  C   UNL     1       8.667   1.796  24.956  0.00  0.00    +0.013 A 
ENDBRANCH  23  24
ENDBRANCH  22  23
ENDBRANCH  19  22
ENDBRANCH  17  19
ENDBRANCH   4  17
TORSDOF 7
ENDMDL
MODEL 8
REMARK VINA RESULT:      -6.0      4.163      7.644
REMARK  Name = 
REMARK  8 active torsions:
REMARK  status: ('A' for Active; 'I' for Inactive)
REMARK    1  A    between atoms: C_2  and  C_3
REMARK    2  A    between atoms: C_2  and  N_4
REMARK    3  A    between atoms: C_2  and  C_23
REMARK    4  A    between atoms: C_7  and  N_9
REMARK    5  A    between atoms: N_9  and  S_10
REMARK    6  A    between atoms: S_10  and  C_13
REMARK    7  A    between atoms: C_13  and  C_14
REMARK    8  A    between atoms: C_14  and  C_15
REMARK                            x       y       z     vdW  Elec       q    Type
REMARK                         _______ _______ _______ _____ _____    ______ ____
ROOT
ATOM      1  N   UNL     1       9.786  -0.529  23.666  0.00  0.00    -0.289 N 
ATOM      2  C   UNL     1       8.918  -1.479  24.189  0.00  0.00    +0.235 C 
ATOM      3  O   UNL     1       8.442  -1.436  25.305  0.00  0.00    -0.274 OA
ATOM      4  C   UNL     1       8.744  -2.535  23.127  0.00  0.00    +0.163 C 
ATOM      5  C   UNL     1       8.765  -1.657  21.872  0.00  0.00    +0.049 C 
ATOM      6  C   UNL     1       9.821  -0.601  22.218  0.00  0.00    +0.110 C 
ENDROOT
BRANCH   1   7
ATOM      7  C   UNL     1      10.102   0.679  24.429  0.00  0.00    +0.159 C 
ATOM      8  C   UNL     1      11.603   0.734  24.736  0.00  0.00    +0.038 C 
BRANCH   7   9
ATOM      9  C   UNL     1       9.666   2.008  23.721  0.00  0.00    +0.236 C 
ATOM     10  N   UNL     1       8.349   2.443  23.767  0.00  0.00    -0.296 N 
ATOM     11  C   UNL     1       7.241   1.907  24.558  0.00  0.00    +0.136 C 
ATOM     12  C   UNL     1       6.056   1.543  23.649  0.00  0.00    +0.179 C 
ATOM     13  O   UNL     1       5.656   2.669  22.848  0.00  0.00    -0.377 OA
ATOM     14  C   UNL     1       6.750   3.108  22.022  0.00  0.00    +0.179 C 
ATOM     15  C   UNL     1       7.939   3.544  22.888  0.00  0.00    +0.136 C 
ATOM     16  O   UNL     1      10.530   2.735  23.212  0.00  0.00    -0.274 OA
ENDBRANCH   7   9
ENDBRANCH   1   7
BRANCH   4  17
ATOM     17  N   UNL     1       7.538  -3.391  23.215  0.00  0.00    -0.183 NA
ATOM     18  H   UNL     1       7.095  -3.454  22.300  0.00  0.00    +0.148 HD
BRANCH  17  19
ATOM     19  S   UNL     1       7.916  -4.962  23.786  0.00  0.00    +0.030 S 
ATOM     20  O   UNL     1       9.227  -4.990  24.384  0.00  0.00    -0.158 OA
ATOM     21  O   UNL     1       7.569  -5.858  22.704  0.00  0.00    -0.158 OA
BRANCH  19  22
ATOM     22  C   UNL     1       6.751  -5.180  25.108  0.00  0.00    +0.190 C 
BRANCH  22  23
ATOM     23  C   UNL     1       5.519  -4.329  24.886  0.00  0.00    +0.066 C 
BRANCH  23  24
ATOM     24  C   UNL     1       4.378  -5.137  24.370  0.00  0.00    -0.007 A 
ATOM     25  S   UNL     1       4.260  -6.805  24.749  0.00  0.00    -0.082 S 
ATOM     26  C   UNL     1       2.803  -6.938  23.902  0.00  0.00    +0.078 A 
ATOM     27 CL   UNL     1       1.989  -8.447  23.849  0.00  0.00    -0.076 Cl
ATOM     28  C   UNL     1       2.399  -5.765  23.320  0.00  0.00    +0.028 A 
ATOM     29  C   UNL     1       3.322  -4.713  23.587  0.00  0.00    +0.013 A 
ENDBRANCH  23  24
ENDBRANCH  22  23
ENDBRANCH  19  22
ENDBRANCH  17  19
ENDBRANCH   4  17
TORSDOF 7
ENDMDL
MODEL 9
REMARK VINA RESULT:      -6.0      2.802      4.830
REMARK  Name = 
REMARK  8 active torsions:
REMARK  status: ('A' for Active; 'I' for Inactive)
REMARK    1  A    between atoms: C_2  and  C_3
REMARK    2  A    between atoms: C_2  and  N_4
REMARK    3  A    between atoms: C_2  and  C_23
REMARK    4  A    between atoms: C_7  and  N_9
REMARK    5  A    between atoms: N_9  and  S_10
REMARK    6  A    between atoms: S_10  and  C_13
REMARK    7  A    between atoms: C_13  and  C_14
REMARK    8  A    between atoms: C_14  and  C_15
REMARK                            x       y       z     vdW  Elec       q    Type
REMARK                         _______ _______ _______ _____ _____    ______ ____
ROOT
ATOM      1  N   UNL     1       5.680  -2.175  25.885  0.00  0.00    -0.289 N 
ATOM      2  C   UNL     1       6.638  -2.809  25.105  0.00  0.00    +0.235 C 
ATOM      3  O   UNL     1       6.805  -4.011  25.060  0.00  0.00    -0.274 OA
ATOM      4  C   UNL     1       7.405  -1.722  24.397  0.00  0.00    +0.163 C 
ATOM      5  C   UNL     1       6.272  -0.726  24.130  0.00  0.00    +0.049 C 
ATOM      6  C   UNL     1       5.425  -0.832  25.403  0.00  0.00    +0.110 C 
ENDROOT
BRANCH   1   7
ATOM      7  C   UNL     1       4.711  -2.964  26.647  0.00  0.00    +0.159 C 
ATOM      8  C   UNL     1       4.133  -2.129  27.795  0.00  0.00    +0.038 C 
BRANCH   7   9
ATOM      9  C   UNL     1       3.539  -3.538  25.779  0.00  0.00    +0.236 C 
ATOM     10  N   UNL     1       3.380  -4.907  25.608  0.00  0.00    -0.296 N 
ATOM     11  C   UNL     1       4.087  -5.995  26.281  0.00  0.00    +0.136 C 
ATOM     12  C   UNL     1       4.734  -6.937  25.252  0.00  0.00    +0.179 C 
ATOM     13  O   UNL     1       3.758  -7.422  24.315  0.00  0.00    -0.377 OA
ATOM     14  C   UNL     1       3.150  -6.322  23.612  0.00  0.00    +0.179 C 
ATOM     15  C   UNL     1       2.434  -5.385  24.593  0.00  0.00    +0.136 C 
ATOM     16  O   UNL     1       2.679  -2.765  25.335  0.00  0.00    -0.274 OA
ENDBRANCH   7   9
ENDBRANCH   1   7
BRANCH   4  17
ATOM     17  N   UNL     1       8.142  -2.103  23.169  0.00  0.00    -0.183 NA
ATOM     18  H   UNL     1       7.918  -1.451  22.419  0.00  0.00    +0.148 HD
BRANCH  17  19
ATOM     19  S   UNL     1       9.836  -2.128  23.429  0.00  0.00    +0.030 S 
ATOM     20  O   UNL     1      10.547  -1.820  22.215  0.00  0.00    -0.158 OA
ATOM     21  O   UNL     1      10.094  -3.353  24.156  0.00  0.00    -0.158 OA
BRANCH  19  22
ATOM     22  C   UNL     1      10.077  -0.751  24.523  0.00  0.00    +0.190 C 
BRANCH  22  23
ATOM     23  C   UNL     1      10.616   0.447  23.770  0.00  0.00    +0.066 C 
BRANCH  23  24
ATOM     24  C   UNL     1       9.516   1.292  23.223  0.00  0.00    -0.007 A 
ATOM     25  S   UNL     1       8.636   2.338  24.258  0.00  0.00    -0.082 S 
ATOM     26  C   UNL     1       7.709   2.908  22.964  0.00  0.00    +0.078 A 
ATOM     27 CL   UNL     1       6.517   4.110  23.239  0.00  0.00    -0.076 Cl
ATOM     28  C   UNL     1       8.025   2.323  21.766  0.00  0.00    +0.028 A 
ATOM     29  C   UNL     1       9.077   1.373  21.917  0.00  0.00    +0.013 A 
ENDBRANCH  23  24
ENDBRANCH  22  23
ENDBRANCH  19  22
ENDBRANCH  17  19
ENDBRANCH   4  17
TORSDOF 7
ENDMDL
