MODEL 1
REMARK VINA RESULT:      -7.3      0.000      0.000
REMARK  Name = 
REMARK  3 active torsions:
REMARK  status: ('A' for Active; 'I' for Inactive)
REMARK    1  A    between atoms: C_2  and  C_14
REMARK    2  A    between atoms: N_4  and  C_5
REMARK    3  A    between atoms: N_16  and  C_17
REMARK                            x       y       z     vdW  Elec       q    Type
REMARK                         _______ _______ _______ _____ _____    ______ ____
ROOT
ATOM      1  C   UNL     1       9.049  -4.202  24.795  0.00  0.00    +0.101 C 
ATOM      2  C   UNL     1       9.109  -4.488  26.281  0.00  0.00    +0.110 C 
ATOM      3  C   UNL     1       7.859  -5.269  26.576  0.00  0.00    +0.217 C 
ATOM      4  O   UNL     1       7.545  -5.619  27.701  0.00  0.00    -0.276 OA
ATOM      5  N   UNL     1       7.158  -5.476  25.395  0.00  0.00    -0.298 N 
ATOM      6  C   UNL     1       7.915  -5.035  24.243  0.00  0.00    +0.121 C 
ENDROOT
BRANCH   5   7
ATOM      7  C   UNL     1       5.741  -5.896  25.310  0.00  0.00    +0.076 C 
ATOM      8  C   UNL     1       5.206  -6.055  23.877  0.00  0.00    +0.022 C 
ATOM      9  C   UNL     1       5.177  -4.718  23.146  0.00  0.00    +0.002 C 
ATOM     10  C   UNL     1       4.341  -3.679  23.895  0.00  0.00    +0.000 C 
ATOM     11  C   UNL     1       4.654  -3.595  25.389  0.00  0.00    +0.002 C 
ATOM     12  C   UNL     1       4.764  -4.967  26.055  0.00  0.00    +0.022 C 
ENDBRANCH   5   7
BRANCH   1  13
ATOM     13  C   UNL     1       8.896  -2.736  24.443  0.00  0.00    +0.222 C 
ATOM     14  N   UNL     1       9.927  -2.171  23.715  0.00  0.00    -0.285 N 
ATOM     15  H   UNL     1      10.576  -2.790  23.242  0.00  0.00    +0.155 HD
ATOM     16  O   UNL     1       7.890  -2.147  24.824  0.00  0.00    -0.275 OA
BRANCH  14  17
ATOM     17  C   UNL     1      10.084  -0.786  23.464  0.00  0.00    +0.033 A 
ATOM     18  C   UNL     1       9.795  -0.306  22.182  0.00  0.00    +0.023 A 
ATOM     19  C   UNL     1       9.882   1.061  21.900  0.00  0.00    +0.002 A 
ATOM     20  C   UNL     1      10.289   1.958  22.887  0.00  0.00    +0.000 A 
ATOM     21  C   UNL     1      10.627   1.482  24.150  0.00  0.00    +0.002 A 
ATOM     22  C   UNL     1      10.528   0.117  24.434  0.00  0.00    +0.023 A 
ENDBRANCH  14  17
ENDBRANCH   1  13
TORSDOF 3
ENDMDL
MODEL 2
REMARK VINA RESULT:      -7.1      1.494      2.052
REMARK  Name = 
REMARK  3 active torsions:
REMARK  status: ('A' for Active; 'I' for Inactive)
REMARK    1  A    between atoms: C_2  and  C_14
REMARK    2  A    between atoms: N_4  and  C_5
REMARK    3  A    between atoms: N_16  and  C_17
REMARK                            x       y       z     vdW  Elec       q    Type
REMARK                         _______ _______ _______ _____ _____    ______ ____
ROOT
ATOM      1  C   UNL     1       9.039  -3.894  25.202  0.00  0.00    +0.101 C 
ATOM      2  C   UNL     1       8.156  -3.399  26.329  0.00  0.00    +0.110 C 
ATOM      3  C   UNL     1       6.784  -3.920  26.004  0.00  0.00    +0.217 C 
ATOM      4  O   UNL     1       5.798  -3.659  26.673  0.00  0.00    -0.276 OA
ATOM      5  N   UNL     1       6.846  -4.685  24.845  0.00  0.00    -0.298 N 
ATOM      6  C   UNL     1       8.212  -4.883  24.412  0.00  0.00    +0.121 C 
ENDROOT
BRANCH   5   7
ATOM      7  C   UNL     1       5.679  -5.082  24.026  0.00  0.00    +0.076 C 
ATOM      8  C   UNL     1       6.025  -5.924  22.786  0.00  0.00    +0.022 C 
ATOM      9  C   UNL     1       6.849  -5.122  21.786  0.00  0.00    +0.002 C 
ATOM     10  C   UNL     1       6.130  -3.842  21.354  0.00  0.00    +0.000 C 
ATOM     11  C   UNL     1       5.556  -3.034  22.518  0.00  0.00    +0.002 C 
ATOM     12  C   UNL     1       4.820  -3.899  23.541  0.00  0.00    +0.022 C 
ENDBRANCH   5   7
BRANCH   1  13
ATOM     13  C   UNL     1       9.603  -2.799  24.319  0.00  0.00    +0.222 C 
ATOM     14  N   UNL     1       9.075  -1.534  24.503  0.00  0.00    -0.285 N 
ATOM     15  H   UNL     1       8.559  -1.349  25.355  0.00  0.00    +0.155 HD
ATOM     16  O   UNL     1      10.470  -3.096  23.504  0.00  0.00    -0.275 OA
BRANCH  14  17
ATOM     17  C   UNL     1       9.306  -0.425  23.653  0.00  0.00    +0.033 A 
ATOM     18  C   UNL     1      10.060   0.645  24.146  0.00  0.00    +0.023 A 
ATOM     19  C   UNL     1      10.360   1.740  23.327  0.00  0.00    +0.002 A 
ATOM     20  C   UNL     1       9.883   1.789  22.019  0.00  0.00    +0.000 A 
ATOM     21  C   UNL     1       9.089   0.753  21.537  0.00  0.00    +0.002 A 
ATOM     22  C   UNL     1       8.799  -0.345  22.352  0.00  0.00    +0.023 A 
ENDBRANCH  14  17
ENDBRANCH   1  13
TORSDOF 3
ENDMDL
MODEL 3
REMARK VINA RESULT:      -6.7      1.785      6.905
REMARK  Name = 
REMARK  3 active torsions:
REMARK  status: ('A' for Active; 'I' for Inactive)
REMARK    1  A    between atoms: C_2  and  C_14
REMARK    2  A    between atoms: N_4  and  C_5
REMARK    3  A    between atoms: N_16  and  C_17
REMARK                            x       y       z     vdW  Elec       q    Type
REMARK                         _______ _______ _______ _____ _____    ______ ____
ROOT
ATOM      1  C   UNL     1       8.899  -2.173  25.139  0.00  0.00    +0.101 C 
ATOM      2  C   UNL     1       9.783  -2.689  24.022  0.00  0.00    +0.110 C 
ATOM      3  C   UNL     1       9.789  -1.592  22.995  0.00  0.00    +0.217 C 
ATOM      4  O   UNL     1      10.358  -1.691  21.920  0.00  0.00    -0.276 OA
ATOM      5  N   UNL     1       9.041  -0.519  23.464  0.00  0.00    -0.298 N 
ATOM      6  C   UNL     1       8.637  -0.715  24.840  0.00  0.00    +0.121 C 
ENDROOT
BRANCH   5   7
ATOM      7  C   UNL     1       8.533   0.593  22.629  0.00  0.00    +0.076 C 
ATOM      8  C   UNL     1       9.626   1.416  21.927  0.00  0.00    +0.022 C 
ATOM      9  C   UNL     1      10.494   2.157  22.937  0.00  0.00    +0.002 C 
ATOM     10  C   UNL     1       9.662   3.070  23.839  0.00  0.00    +0.000 C 
ATOM     11  C   UNL     1       8.419   2.396  24.422  0.00  0.00    +0.002 C 
ATOM     12  C   UNL     1       7.635   1.589  23.388  0.00  0.00    +0.022 C 
ENDBRANCH   5   7
BRANCH   1  13
ATOM     13  C   UNL     1       7.612  -2.950  25.331  0.00  0.00    +0.222 C 
ATOM     14  N   UNL     1       7.686  -4.315  25.125  0.00  0.00    -0.285 N 
ATOM     15  H   UNL     1       8.600  -4.751  25.121  0.00  0.00    +0.155 HD
ATOM     16  O   UNL     1       6.599  -2.331  25.643  0.00  0.00    -0.275 OA
BRANCH  14  17
ATOM     17  C   UNL     1       6.573  -5.187  25.047  0.00  0.00    +0.033 A 
ATOM     18  C   UNL     1       6.029  -5.460  23.787  0.00  0.00    +0.023 A 
ATOM     19  C   UNL     1       4.964  -6.358  23.653  0.00  0.00    +0.002 A 
ATOM     20  C   UNL     1       4.412  -6.966  24.779  0.00  0.00    +0.000 A 
ATOM     21  C   UNL     1       4.914  -6.661  26.040  0.00  0.00    +0.002 A 
ATOM     22  C   UNL     1       5.985  -5.773  26.172  0.00  0.00    +0.023 A 
ENDBRANCH  14  17
ENDBRANCH   1  13
TORSDOF 3
ENDMDL
MODEL 4
REMARK VINA RESULT:      -6.6      2.386      3.773
REMARK  Name = 
REMARK  3 active torsions:
REMARK  status: ('A' for Active; 'I' for Inactive)
REMARK    1  A    between atoms: C_2  and  C_14
REMARK    2  A    between atoms: N_4  and  C_5
REMARK    3  A    between atoms: N_16  and  C_17
REMARK                            x       y       z     vdW  Elec       q    Type
REMARK                         _______ _______ _______ _____ _____    ______ ____
ROOT
ATOM      1  C   UNL     1       8.988  -1.039  22.348  0.00  0.00    +0.101 C 
ATOM      2  C   UNL     1      10.066  -1.701  23.181  0.00  0.00    +0.110 C 
ATOM      3  C   UNL     1       9.431  -2.957  23.709  0.00  0.00    +0.217 C 
ATOM      4  O   UNL     1       9.998  -3.716  24.478  0.00  0.00    -0.276 OA
ATOM      5  N   UNL     1       8.140  -3.064  23.207  0.00  0.00    -0.298 N 
ATOM      6  C   UNL     1       7.869  -2.046  22.215  0.00  0.00    +0.121 C 
ENDROOT
BRANCH   5   7
ATOM      7  C   UNL     1       7.091  -3.959  23.746  0.00  0.00    +0.076 C 
ATOM      8  C   UNL     1       7.388  -5.460  23.587  0.00  0.00    +0.022 C 
ATOM      9  C   UNL     1       7.418  -5.866  22.119  0.00  0.00    +0.002 C 
ATOM     10  C   UNL     1       6.108  -5.523  21.407  0.00  0.00    +0.000 C 
ATOM     11  C   UNL     1       5.612  -4.102  21.678  0.00  0.00    +0.002 C 
ATOM     12  C   UNL     1       5.690  -3.712  23.154  0.00  0.00    +0.022 C 
ENDBRANCH   5   7
BRANCH   1  13
ATOM     13  C   UNL     1       8.494   0.284  22.898  0.00  0.00    +0.222 C 
ATOM     14  N   UNL     1       8.875   1.416  22.201  0.00  0.00    -0.285 N 
ATOM     15  H   UNL     1       9.220   1.303  21.255  0.00  0.00    +0.155 HD
ATOM     16  O   UNL     1       7.806   0.273  23.914  0.00  0.00    -0.275 OA
BRANCH  14  17
ATOM     17  C   UNL     1       8.701   2.747  22.652  0.00  0.00    +0.033 A 
ATOM     18  C   UNL     1       9.665   3.289  23.508  0.00  0.00    +0.023 A 
ATOM     19  C   UNL     1       9.567   4.617  23.938  0.00  0.00    +0.002 A 
ATOM     20  C   UNL     1       8.488   5.405  23.541  0.00  0.00    +0.000 A 
ATOM     21  C   UNL     1       7.498   4.858  22.732  0.00  0.00    +0.002 A 
ATOM     22  C   UNL     1       7.603   3.535  22.294  0.00  0.00    +0.023 A 
ENDBRANCH  14  17
ENDBRANCH   1  13
TORSDOF 3
ENDMDL
MODEL 5
REMARK VINA RESULT:      -6.5      1.345      1.740
REMARK  Name = 
REMARK  3 active torsions:
REMARK  status: ('A' for Active; 'I' for Inactive)
REMARK    1  A    between atoms: C_2  and  C_14
REMARK    2  A    between atoms: N_4  and  C_5
REMARK    3  A    between atoms: N_16  and  C_17
REMARK                            x       y       z     vdW  Elec       q    Type
REMARK                         _______ _______ _______ _____ _____    ______ ____
ROOT
ATOM      1  C   UNL     1       9.012  -4.416  24.495  0.00  0.00    +0.101 C 
ATOM      2  C   UNL     1       9.198  -4.849  25.935  0.00  0.00    +0.110 C 
ATOM      3  C   UNL     1       7.805  -5.006  26.476  0.00  0.00    +0.217 C 
ATOM      4  O   UNL     1       7.572  -5.290  27.639  0.00  0.00    -0.276 OA
ATOM      5  N   UNL     1       6.888  -4.750  25.464  0.00  0.00    -0.298 N 
ATOM      6  C   UNL     1       7.542  -4.583  24.184  0.00  0.00    +0.121 C 
ENDROOT
BRANCH   5   7
ATOM      7  C   UNL     1       5.448  -4.473  25.671  0.00  0.00    +0.076 C 
ATOM      8  C   UNL     1       4.590  -5.720  25.944  0.00  0.00    +0.022 C 
ATOM      9  C   UNL     1       4.558  -6.644  24.733  0.00  0.00    +0.002 C 
ATOM     10  C   UNL     1       4.040  -5.928  23.485  0.00  0.00    +0.000 C 
ATOM     11  C   UNL     1       4.688  -4.564  23.243  0.00  0.00    +0.002 C 
ATOM     12  C   UNL     1       4.781  -3.713  24.509  0.00  0.00    +0.022 C 
ENDBRANCH   5   7
BRANCH   1  13
ATOM     13  C   UNL     1       9.496  -3.011  24.195  0.00  0.00    +0.222 C 
ATOM     14  N   UNL     1       8.900  -1.993  24.915  0.00  0.00    -0.285 N 
ATOM     15  H   UNL     1       8.390  -2.235  25.757  0.00  0.00    +0.155 HD
ATOM     16  O   UNL     1      10.363  -2.864  23.340  0.00  0.00    -0.275 OA
BRANCH  14  17
ATOM     17  C   UNL     1       9.050  -0.610  24.648  0.00  0.00    +0.033 A 
ATOM     18  C   UNL     1       7.925   0.113  24.238  0.00  0.00    +0.023 A 
ATOM     19  C   UNL     1       8.011   1.492  24.013  0.00  0.00    +0.002 A 
ATOM     20  C   UNL     1       9.228   2.154  24.166  0.00  0.00    +0.000 A 
ATOM     21  C   UNL     1      10.362   1.433  24.523  0.00  0.00    +0.002 A 
ATOM     22  C   UNL     1      10.273   0.058  24.758  0.00  0.00    +0.023 A 
ENDBRANCH  14  17
ENDBRANCH   1  13
TORSDOF 3
ENDMDL
MODEL 6
REMARK VINA RESULT:      -6.5      2.404      6.758
REMARK  Name = 
REMARK  3 active torsions:
REMARK  status: ('A' for Active; 'I' for Inactive)
REMARK    1  A    between atoms: C_2  and  C_14
REMARK    2  A    between atoms: N_4  and  C_5
REMARK    3  A    between atoms: N_16  and  C_17
REMARK                            x       y       z     vdW  Elec       q    Type
REMARK                         _______ _______ _______ _____ _____    ______ ____
ROOT
ATOM      1  C   UNL     1       9.912  -1.599  23.751  0.00  0.00    +0.101 C 
ATOM      2  C   UNL     1      10.251  -1.095  22.363  0.00  0.00    +0.110 C 
ATOM      3  C   UNL     1       9.369   0.105  22.160  0.00  0.00    +0.217 C 
ATOM      4  O   UNL     1       9.332   0.733  21.115  0.00  0.00    -0.276 OA
ATOM      5  N   UNL     1       8.628   0.329  23.313  0.00  0.00    -0.298 N 
ATOM      6  C   UNL     1       9.047  -0.538  24.393  0.00  0.00    +0.121 C 
ENDROOT
BRANCH   5   7
ATOM      7  C   UNL     1       7.424   1.188  23.396  0.00  0.00    +0.076 C 
ATOM      8  C   UNL     1       7.619   2.614  22.854  0.00  0.00    +0.022 C 
ATOM      9  C   UNL     1       8.617   3.396  23.700  0.00  0.00    +0.002 C 
ATOM     10  C   UNL     1       8.192   3.457  25.168  0.00  0.00    +0.000 C 
ATOM     11  C   UNL     1       7.770   2.106  25.745  0.00  0.00    +0.002 C 
ATOM     12  C   UNL     1       6.844   1.321  24.817  0.00  0.00    +0.022 C 
ENDBRANCH   5   7
BRANCH   1  13
ATOM     13  C   UNL     1       9.249  -2.962  23.781  0.00  0.00    +0.222 C 
ATOM     14  N   UNL     1       8.077  -3.086  23.058  0.00  0.00    -0.285 N 
ATOM     15  H   UNL     1       7.866  -2.382  22.360  0.00  0.00    +0.155 HD
ATOM     16  O   UNL     1       9.776  -3.852  24.439  0.00  0.00    -0.275 OA
BRANCH  14  17
ATOM     17  C   UNL     1       7.197  -4.194  23.119  0.00  0.00    +0.033 A 
ATOM     18  C   UNL     1       6.333  -4.297  24.215  0.00  0.00    +0.023 A 
ATOM     19  C   UNL     1       5.407  -5.343  24.293  0.00  0.00    +0.002 A 
ATOM     20  C   UNL     1       5.359  -6.314  23.294  0.00  0.00    +0.000 A 
ATOM     21  C   UNL     1       6.249  -6.248  22.227  0.00  0.00    +0.002 A 
ATOM     22  C   UNL     1       7.165  -5.195  22.144  0.00  0.00    +0.023 A 
ENDBRANCH  14  17
ENDBRANCH   1  13
TORSDOF 3
ENDMDL
MODEL 7
REMARK VINA RESULT:      -6.5      2.679      6.676
REMARK  Name = 
REMARK  3 active torsions:
REMARK  status: ('A' for Active; 'I' for Inactive)
REMARK    1  A    between atoms: C_2  and  C_14
REMARK    2  A    between atoms: N_4  and  C_5
REMARK    3  A    between atoms: N_16  and  C_17
REMARK                            x       y       z     vdW  Elec       q    Type
REMARK                         _______ _______ _______ _____ _____    ______ ____
ROOT
ATOM      1  C   UNL     1       6.046   0.766  24.272  0.00  0.00    +0.101 C 
ATOM      2  C   UNL     1       6.356   1.799  25.335  0.00  0.00    +0.110 C 
ATOM      3  C   UNL     1       7.601   2.489  24.853  0.00  0.00    +0.217 C 
ATOM      4  O   UNL     1       8.177   3.349  25.500  0.00  0.00    -0.276 OA
ATOM      5  N   UNL     1       7.966   1.968  23.618  0.00  0.00    -0.298 N 
ATOM      6  C   UNL     1       6.960   1.062  23.105  0.00  0.00    +0.121 C 
ENDROOT
BRANCH   5   7
ATOM      7  C   UNL     1       9.292   2.137  22.982  0.00  0.00    +0.076 C 
ATOM      8  C   UNL     1       9.496   1.314  21.699  0.00  0.00    +0.022 C 
ATOM      9  C   UNL     1       9.480  -0.182  21.994  0.00  0.00    +0.002 C 
ATOM     10  C   UNL     1      10.540  -0.568  23.026  0.00  0.00    +0.000 C 
ATOM     11  C   UNL     1      10.560   0.336  24.259  0.00  0.00    +0.002 C 
ATOM     12  C   UNL     1      10.479   1.823  23.912  0.00  0.00    +0.022 C 
ENDBRANCH   5   7
BRANCH   1  13
ATOM     13  C   UNL     1       6.173  -0.672  24.737  0.00  0.00    +0.222 C 
ATOM     14  N   UNL     1       7.460  -1.149  24.900  0.00  0.00    -0.285 N 
ATOM     15  H   UNL     1       8.217  -0.478  24.960  0.00  0.00    +0.155 HD
ATOM     16  O   UNL     1       5.147  -1.315  24.928  0.00  0.00    -0.275 OA
BRANCH  14  17
ATOM     17  C   UNL     1       7.803  -2.505  25.120  0.00  0.00    +0.033 A 
ATOM     18  C   UNL     1       7.953  -3.342  24.009  0.00  0.00    +0.023 A 
ATOM     19  C   UNL     1       8.344  -4.676  24.173  0.00  0.00    +0.002 A 
ATOM     20  C   UNL     1       8.558  -5.193  25.449  0.00  0.00    +0.000 A 
ATOM     21  C   UNL     1       8.362  -4.382  26.562  0.00  0.00    +0.002 A 
ATOM     22  C   UNL     1       7.982  -3.047  26.397  0.00  0.00    +0.023 A 
ENDBRANCH  14  17
ENDBRANCH   1  13
TORSDOF 3
ENDMDL
MODEL 8
REMARK VINA RESULT:      -6.5      2.473      6.736
REMARK  Name = 
REMARK  3 active torsions:
REMARK  status: ('A' for Active; 'I' for Inactive)
REMARK    1  A    between atoms: C_2  and  C_14
REMARK    2  A    between atoms: N_4  and  C_5
REMARK    3  A    between atoms: N_16  and  C_17
REMARK                            x       y       z     vdW  Elec       q    Type
REMARK                         _______ _______ _______ _____ _____    ______ ____
ROOT
ATOM      1  C   UNL     1       7.589  -0.744  25.454  0.00  0.00    +0.101 C 
ATOM      2  C   UNL     1       9.065  -1.015  25.655  0.00  0.00    +0.110 C 
ATOM      3  C   UNL     1       9.757   0.229  25.175  0.00  0.00    +0.217 C 
ATOM      4  O   UNL     1      10.971   0.341  25.134  0.00  0.00    -0.276 OA
ATOM      5  N   UNL     1       8.805   1.161  24.782  0.00  0.00    -0.298 N 
ATOM      6  C   UNL     1       7.465   0.723  25.110  0.00  0.00    +0.121 C 
ENDROOT
BRANCH   5   7
ATOM      7  C   UNL     1       9.077   2.356  23.951  0.00  0.00    +0.076 C 
ATOM      8  C   UNL     1       7.837   2.952  23.263  0.00  0.00    +0.022 C 
ATOM      9  C   UNL     1       7.256   1.986  22.237  0.00  0.00    +0.002 C 
ATOM     10  C   UNL     1       8.289   1.589  21.182  0.00  0.00    +0.000 C 
ATOM     11  C   UNL     1       9.642   1.180  21.765  0.00  0.00    +0.002 C 
ATOM     12  C   UNL     1      10.136   2.131  22.855  0.00  0.00    +0.022 C 
ENDBRANCH   5   7
BRANCH   1  13
ATOM     13  C   UNL     1       6.924  -1.625  24.414  0.00  0.00    +0.222 C 
ATOM     14  N   UNL     1       6.927  -2.983  24.673  0.00  0.00    -0.285 N 
ATOM     15  H   UNL     1       7.120  -3.291  25.619  0.00  0.00    +0.155 HD
ATOM     16  O   UNL     1       6.441  -1.091  23.421  0.00  0.00    -0.275 OA
BRANCH  14  17
ATOM     17  C   UNL     1       6.552  -3.988  23.749  0.00  0.00    +0.033 A 
ATOM     18  C   UNL     1       7.540  -4.529  22.918  0.00  0.00    +0.023 A 
ATOM     19  C   UNL     1       7.231  -5.562  22.026  0.00  0.00    +0.002 A 
ATOM     20  C   UNL     1       5.925  -6.042  21.934  0.00  0.00    +0.000 A 
ATOM     21  C   UNL     1       4.927  -5.476  22.720  0.00  0.00    +0.002 A 
ATOM     22  C   UNL     1       5.240  -4.452  23.618  0.00  0.00    +0.023 A 
ENDBRANCH  14  17
ENDBRANCH   1  13
TORSDOF 3
ENDMDL
MODEL 9
REMARK VINA RESULT:      -6.5      1.985      3.486
REMARK  Name = 
REMARK  3 active torsions:
REMARK  status: ('A' for Active; 'I' for Inactive)
REMARK    1  A    between atoms: C_2  and  C_14
REMARK    2  A    between atoms: N_4  and  C_5
REMARK    3  A    between atoms: N_16  and  C_17
REMARK                            x       y       z     vdW  Elec       q    Type
REMARK                         _______ _______ _______ _____ _____    ______ ____
ROOT
ATOM      1  C   UNL     1       5.793  -2.537  22.965  0.00  0.00    +0.101 C 
ATOM      2  C   UNL     1       6.317  -3.354  21.802  0.00  0.00    +0.110 C 
ATOM      3  C   UNL     1       6.821  -4.628  22.419  0.00  0.00    +0.217 C 
ATOM      4  O   UNL     1       7.374  -5.504  21.776  0.00  0.00    -0.276 OA
ATOM      5  N   UNL     1       6.578  -4.603  23.787  0.00  0.00    -0.298 N 
ATOM      6  C   UNL     1       5.777  -3.458  24.164  0.00  0.00    +0.121 C 
ENDROOT
BRANCH   5   7
ATOM      7  C   UNL     1       7.214  -5.498  24.780  0.00  0.00    +0.076 C 
ATOM      8  C   UNL     1       6.792  -5.240  26.236  0.00  0.00    +0.022 C 
ATOM      9  C   UNL     1       7.258  -3.868  26.711  0.00  0.00    +0.002 C 
ATOM     10  C   UNL     1       8.773  -3.705  26.578  0.00  0.00    +0.000 C 
ATOM     11  C   UNL     1       9.324  -4.143  25.220  0.00  0.00    +0.002 C 
ATOM     12  C   UNL     1       8.754  -5.480  24.746  0.00  0.00    +0.022 C 
ENDBRANCH   5   7
BRANCH   1  13
ATOM     13  C   UNL     1       6.571  -1.265  23.241  0.00  0.00    +0.222 C 
ATOM     14  N   UNL     1       7.827  -1.182  22.669  0.00  0.00    -0.285 N 
ATOM     15  H   UNL     1       8.052  -1.817  21.912  0.00  0.00    +0.155 HD
ATOM     16  O   UNL     1       6.054  -0.408  23.949  0.00  0.00    -0.275 OA
BRANCH  14  17
ATOM     17  C   UNL     1       8.792  -0.189  22.965  0.00  0.00    +0.033 A 
ATOM     18  C   UNL     1       9.478  -0.271  24.182  0.00  0.00    +0.023 A 
ATOM     19  C   UNL     1      10.479   0.654  24.496  0.00  0.00    +0.002 A 
ATOM     20  C   UNL     1      10.781   1.689  23.613  0.00  0.00    +0.000 A 
ATOM     21  C   UNL     1      10.068   1.809  22.424  0.00  0.00    +0.002 A 
ATOM     22  C   UNL     1       9.077   0.877  22.106  0.00  0.00    +0.023 A 
ENDBRANCH  14  17
ENDBRANCH   1  13
TORSDOF 3
ENDMDL
