MODEL 1
REMARK VINA RESULT:      -7.0      0.000      0.000
REMARK  Name = 
REMARK  7 active torsions:
REMARK  status: ('A' for Active; 'I' for Inactive)
REMARK    1  A    between atoms: C_1  and  N_2
REMARK    2  A    between atoms: C_9  and  C_10
REMARK    3  A    between atoms: C_9  and  C_12
REMARK    4  A    between atoms: N_14  and  C_15
REMARK    5  A    between atoms: C_15  and  C_16
REMARK    6  A    between atoms: C_16  and  C_17
REMARK    7  A    between atoms: C_17  and  O_18
REMARK                            x       y       z     vdW  Elec       q    Type
REMARK                         _______ _______ _______ _____ _____    ______ ____
ROOT
ATOM      1  C   UNL     1       4.174  -2.780  25.280  0.00  0.00    +0.135 C 
ATOM      2  N   UNL     1       5.573  -2.912  24.836  0.00  0.00    -0.303 N 
ATOM      3  C   UNL     1       6.506  -2.104  25.538  0.00  0.00    +0.039 A 
ATOM      4  C   UNL     1       6.124  -1.147  26.501  0.00  0.00    +0.024 A 
ATOM      5  C   UNL     1       7.058  -0.359  27.185  0.00  0.00    +0.002 A 
ATOM      6  C   UNL     1       8.407  -0.502  26.917  0.00  0.00    +0.000 A 
ATOM      7  C   UNL     1       8.817  -1.436  25.976  0.00  0.00    +0.008 A 
ATOM      8  C   UNL     1       7.880  -2.246  25.283  0.00  0.00    +0.007 A 
ATOM      9  C   UNL     1       8.392  -3.291  24.278  0.00  0.00    +0.186 C 
ATOM     10  C   UNL     1       7.290  -4.116  23.594  0.00  0.00    +0.007 A 
ATOM     11  C   UNL     1       7.666  -5.137  22.684  0.00  0.00    +0.008 A 
ATOM     12  C   UNL     1       6.715  -5.944  22.073  0.00  0.00    +0.000 A 
ATOM     13  C   UNL     1       5.376  -5.729  22.343  0.00  0.00    +0.002 A 
ATOM     14  C   UNL     1       4.993  -4.721  23.234  0.00  0.00    +0.024 A 
ATOM     15  C   UNL     1       5.930  -3.904  23.900  0.00  0.00    +0.039 A 
ENDROOT
BRANCH   9  16
ATOM     16  C   UNL     1       9.240  -2.543  23.210  0.00  0.00    +0.242 C 
ATOM     17  N   UNL     1       8.529  -1.668  22.380  0.00  0.00    -0.313 N 
ATOM     18  H   UNL     1       7.533  -1.857  22.272  0.00  0.00    +0.149 HD
ATOM     19  O   UNL     1      10.462  -2.640  23.115  0.00  0.00    -0.273 OA
BRANCH  17  20
ATOM     20  C   UNL     1       9.234  -0.936  21.337  0.00  0.00    +0.115 C 
BRANCH  20  21
ATOM     21  C   UNL     1       9.031   0.569  21.409  0.00  0.00    +0.139 C 
BRANCH  21  22
ATOM     22  C   UNL     1      10.007   1.361  22.251  0.00  0.00    +0.306 C 
ATOM     23  O   UNL     1      10.404   0.945  23.333  0.00  0.00    -0.251 OA
BRANCH  22  24
ATOM     24  O   UNL     1      10.442   2.532  21.754  0.00  0.00    -0.481 OA
ATOM     25  H   UNL     1      10.122   2.765  20.857  0.00  0.00    +0.295 HD
ENDBRANCH  22  24
ENDBRANCH  21  22
ENDBRANCH  20  21
ENDBRANCH  17  20
ENDBRANCH   9  16
BRANCH   9  26
ATOM     26  C   UNL     1       9.260  -4.264  25.060  0.00  0.00    +0.088 C 
ATOM     27  N   UNL     1       9.981  -5.070  25.709  0.00  0.00    -0.195 NA
ENDBRANCH   9  26
TORSDOF 6
ENDMDL
MODEL 2
REMARK VINA RESULT:      -6.4      1.186      1.324
REMARK  Name = 
REMARK  7 active torsions:
REMARK  status: ('A' for Active; 'I' for Inactive)
REMARK    1  A    between atoms: C_1  and  N_2
REMARK    2  A    between atoms: C_9  and  C_10
REMARK    3  A    between atoms: C_9  and  C_12
REMARK    4  A    between atoms: N_14  and  C_15
REMARK    5  A    between atoms: C_15  and  C_16
REMARK    6  A    between atoms: C_16  and  C_17
REMARK    7  A    between atoms: C_17  and  O_18
REMARK                            x       y       z     vdW  Elec       q    Type
REMARK                         _______ _______ _______ _____ _____    ______ ____
ROOT
ATOM      1  C   UNL     1       3.577  -4.135  25.127  0.00  0.00    +0.135 C 
ATOM      2  N   UNL     1       4.940  -3.831  24.657  0.00  0.00    -0.303 N 
ATOM      3  C   UNL     1       5.649  -2.882  25.439  0.00  0.00    +0.039 A 
ATOM      4  C   UNL     1       5.064  -2.177  26.511  0.00  0.00    +0.024 A 
ATOM      5  C   UNL     1       5.778  -1.244  27.272  0.00  0.00    +0.002 A 
ATOM      6  C   UNL     1       7.103  -0.984  26.975  0.00  0.00    +0.000 A 
ATOM      7  C   UNL     1       7.711  -1.662  25.927  0.00  0.00    +0.008 A 
ATOM      8  C   UNL     1       6.999  -2.616  25.154  0.00  0.00    +0.007 A 
ATOM      9  C   UNL     1       7.730  -3.365  24.028  0.00  0.00    +0.186 C 
ATOM     10  C   UNL     1       6.864  -4.378  23.264  0.00  0.00    +0.007 A 
ATOM     11  C   UNL     1       7.463  -5.152  22.237  0.00  0.00    +0.008 A 
ATOM     12  C   UNL     1       6.740  -6.115  21.546  0.00  0.00    +0.000 A 
ATOM     13  C   UNL     1       5.404  -6.304  21.853  0.00  0.00    +0.002 A 
ATOM     14  C   UNL     1       4.802  -5.542  22.860  0.00  0.00    +0.024 A 
ATOM     15  C   UNL     1       5.511  -4.580  23.607  0.00  0.00    +0.039 A 
ENDROOT
BRANCH   9  16
ATOM     16  C   UNL     1       8.300  -2.302  23.047  0.00  0.00    +0.242 C 
ATOM     17  N   UNL     1       9.688  -2.127  23.086  0.00  0.00    -0.313 N 
ATOM     18  H   UNL     1      10.153  -2.394  23.952  0.00  0.00    +0.149 HD
ATOM     19  O   UNL     1       7.615  -1.685  22.233  0.00  0.00    -0.273 OA
BRANCH  17  20
ATOM     20  C   UNL     1      10.313  -1.140  22.216  0.00  0.00    +0.115 C 
BRANCH  20  21
ATOM     21  C   UNL     1      10.244   0.278  22.759  0.00  0.00    +0.139 C 
BRANCH  21  22
ATOM     22  C   UNL     1       9.699   1.347  21.837  0.00  0.00    +0.306 C 
ATOM     23  O   UNL     1       8.654   1.186  21.217  0.00  0.00    -0.251 OA
BRANCH  22  24
ATOM     24  O   UNL     1      10.393   2.495  21.744  0.00  0.00    -0.481 OA
ATOM     25  H   UNL     1      11.354   2.405  21.575  0.00  0.00    +0.295 HD
ENDBRANCH  22  24
ENDBRANCH  21  22
ENDBRANCH  20  21
ENDBRANCH  17  20
ENDBRANCH   9  16
BRANCH   9  26
ATOM     26  C   UNL     1       8.860  -4.144  24.683  0.00  0.00    +0.088 C 
ATOM     27  N   UNL     1       9.798  -4.790  25.226  0.00  0.00    -0.195 NA
ENDBRANCH   9  26
TORSDOF 6
ENDMDL
MODEL 3
REMARK VINA RESULT:      -6.3      2.722      5.355
REMARK  Name = 
REMARK  7 active torsions:
REMARK  status: ('A' for Active; 'I' for Inactive)
REMARK    1  A    between atoms: C_1  and  N_2
REMARK    2  A    between atoms: C_9  and  C_10
REMARK    3  A    between atoms: C_9  and  C_12
REMARK    4  A    between atoms: N_14  and  C_15
REMARK    5  A    between atoms: C_15  and  C_16
REMARK    6  A    between atoms: C_16  and  C_17
REMARK    7  A    between atoms: C_17  and  O_18
REMARK                            x       y       z     vdW  Elec       q    Type
REMARK                         _______ _______ _______ _____ _____    ______ ____
ROOT
ATOM      1  C   UNL     1       7.312   1.544  25.641  0.00  0.00    +0.135 C 
ATOM      2  N   UNL     1       7.324   0.217  24.999  0.00  0.00    -0.303 N 
ATOM      3  C   UNL     1       8.154   0.109  23.853  0.00  0.00    +0.039 A 
ATOM      4  C   UNL     1       8.821   1.211  23.280  0.00  0.00    +0.024 A 
ATOM      5  C   UNL     1       9.637   1.088  22.149  0.00  0.00    +0.002 A 
ATOM      6  C   UNL     1       9.801  -0.148  21.551  0.00  0.00    +0.000 A 
ATOM      7  C   UNL     1       9.160  -1.255  22.091  0.00  0.00    +0.008 A 
ATOM      8  C   UNL     1       8.338  -1.143  23.242  0.00  0.00    +0.007 A 
ATOM      9  C   UNL     1       7.680  -2.406  23.820  0.00  0.00    +0.186 C 
ATOM     10  C   UNL     1       6.820  -2.167  25.071  0.00  0.00    +0.007 A 
ATOM     11  C   UNL     1       6.209  -3.280  25.703  0.00  0.00    +0.008 A 
ATOM     12  C   UNL     1       5.460  -3.128  26.862  0.00  0.00    +0.000 A 
ATOM     13  C   UNL     1       5.290  -1.863  27.394  0.00  0.00    +0.002 A 
ATOM     14  C   UNL     1       5.884  -0.757  26.775  0.00  0.00    +0.024 A 
ATOM     15  C   UNL     1       6.679  -0.874  25.618  0.00  0.00    +0.039 A 
ENDROOT
BRANCH   9  16
ATOM     16  C   UNL     1       6.819  -3.047  22.694  0.00  0.00    +0.242 C 
ATOM     17  N   UNL     1       7.192  -4.341  22.312  0.00  0.00    -0.313 N 
ATOM     18  H   UNL     1       8.159  -4.606  22.496  0.00  0.00    +0.149 HD
ATOM     19  O   UNL     1       5.833  -2.509  22.197  0.00  0.00    -0.273 OA
BRANCH  17  20
ATOM     20  C   UNL     1       6.457  -5.017  21.253  0.00  0.00    +0.115 C 
BRANCH  20  21
ATOM     21  C   UNL     1       5.760  -6.287  21.712  0.00  0.00    +0.139 C 
BRANCH  21  22
ATOM     22  C   UNL     1       4.722  -6.153  22.805  0.00  0.00    +0.306 C 
ATOM     23  O   UNL     1       3.993  -5.171  22.879  0.00  0.00    -0.251 OA
BRANCH  22  24
ATOM     24  O   UNL     1       4.613  -7.167  23.681  0.00  0.00    -0.481 OA
ATOM     25  H   UNL     1       4.922  -8.042  23.367  0.00  0.00    +0.295 HD
ENDBRANCH  22  24
ENDBRANCH  21  22
ENDBRANCH  20  21
ENDBRANCH  17  20
ENDBRANCH   9  16
BRANCH   9  26
ATOM     26  C   UNL     1       8.809  -3.342  24.224  0.00  0.00    +0.088 C 
ATOM     27  N   UNL     1       9.745  -4.118  24.558  0.00  0.00    -0.195 NA
ENDBRANCH   9  26
TORSDOF 6
ENDMDL
MODEL 4
REMARK VINA RESULT:      -6.1      2.884      5.278
REMARK  Name = 
REMARK  7 active torsions:
REMARK  status: ('A' for Active; 'I' for Inactive)
REMARK    1  A    between atoms: C_1  and  N_2
REMARK    2  A    between atoms: C_9  and  C_10
REMARK    3  A    between atoms: C_9  and  C_12
REMARK    4  A    between atoms: N_14  and  C_15
REMARK    5  A    between atoms: C_15  and  C_16
REMARK    6  A    between atoms: C_16  and  C_17
REMARK    7  A    between atoms: C_17  and  O_18
REMARK                            x       y       z     vdW  Elec       q    Type
REMARK                         _______ _______ _______ _____ _____    ______ ____
ROOT
ATOM      1  C   UNL     1       6.471   1.213  25.134  0.00  0.00    +0.135 C 
ATOM      2  N   UNL     1       6.753  -0.114  24.558  0.00  0.00    -0.303 N 
ATOM      3  C   UNL     1       5.877  -1.150  24.973  0.00  0.00    +0.039 A 
ATOM      4  C   UNL     1       4.886  -0.971  25.962  0.00  0.00    +0.024 A 
ATOM      5  C   UNL     1       4.030  -2.004  26.359  0.00  0.00    +0.002 A 
ATOM      6  C   UNL     1       4.146  -3.255  25.782  0.00  0.00    +0.000 A 
ATOM      7  C   UNL     1       5.109  -3.466  24.805  0.00  0.00    +0.008 A 
ATOM      8  C   UNL     1       5.978  -2.423  24.388  0.00  0.00    +0.007 A 
ATOM      9  C   UNL     1       7.002  -2.701  23.275  0.00  0.00    +0.186 C 
ATOM     10  C   UNL     1       7.883  -1.499  22.900  0.00  0.00    +0.007 A 
ATOM     11  C   UNL     1       8.827  -1.644  21.851  0.00  0.00    +0.008 A 
ATOM     12  C   UNL     1       9.615  -0.578  21.439  0.00  0.00    +0.000 A 
ATOM     13  C   UNL     1       9.490   0.640  22.081  0.00  0.00    +0.002 A 
ATOM     14  C   UNL     1       8.565   0.794  23.120  0.00  0.00    +0.024 A 
ATOM     15  C   UNL     1       7.723  -0.254  23.544  0.00  0.00    +0.039 A 
ENDROOT
BRANCH   9  16
ATOM     16  C   UNL     1       7.891  -3.890  23.739  0.00  0.00    +0.242 C 
ATOM     17  N   UNL     1       8.700  -3.640  24.853  0.00  0.00    -0.313 N 
ATOM     18  H   UNL     1       8.934  -2.664  25.032  0.00  0.00    +0.149 HD
ATOM     19  O   UNL     1       7.862  -5.007  23.226  0.00  0.00    -0.273 OA
BRANCH  17  20
ATOM     20  C   UNL     1       9.582  -4.686  25.351  0.00  0.00    +0.115 C 
BRANCH  20  21
ATOM     21  C   UNL     1       8.963  -5.527  26.456  0.00  0.00    +0.139 C 
BRANCH  21  22
ATOM     22  C   UNL     1       7.559  -5.173  26.893  0.00  0.00    +0.306 C 
ATOM     23  O   UNL     1       7.293  -4.076  27.370  0.00  0.00    -0.251 OA
BRANCH  22  24
ATOM     24  O   UNL     1       6.604  -6.103  26.715  0.00  0.00    -0.481 OA
ATOM     25  H   UNL     1       6.796  -6.993  27.076  0.00  0.00    +0.295 HD
ENDBRANCH  22  24
ENDBRANCH  21  22
ENDBRANCH  20  21
ENDBRANCH  17  20
ENDBRANCH   9  16
BRANCH   9  26
ATOM     26  C   UNL     1       6.210  -3.082  22.035  0.00  0.00    +0.088 C 
ATOM     27  N   UNL     1       5.553  -3.397  21.006  0.00  0.00    -0.195 NA
ENDBRANCH   9  26
TORSDOF 6
ENDMDL
MODEL 5
REMARK VINA RESULT:      -6.0      3.436      6.796
REMARK  Name = 
REMARK  7 active torsions:
REMARK  status: ('A' for Active; 'I' for Inactive)
REMARK    1  A    between atoms: C_1  and  N_2
REMARK    2  A    between atoms: C_9  and  C_10
REMARK    3  A    between atoms: C_9  and  C_12
REMARK    4  A    between atoms: N_14  and  C_15
REMARK    5  A    between atoms: C_15  and  C_16
REMARK    6  A    between atoms: C_16  and  C_17
REMARK    7  A    between atoms: C_17  and  O_18
REMARK                            x       y       z     vdW  Elec       q    Type
REMARK                         _______ _______ _______ _____ _____    ______ ____
ROOT
ATOM      1  C   UNL     1       8.591  -1.864  21.751  0.00  0.00    +0.135 C 
ATOM      2  N   UNL     1       8.003  -2.453  22.968  0.00  0.00    -0.303 N 
ATOM      3  C   UNL     1       7.316  -3.679  22.771  0.00  0.00    +0.039 A 
ATOM      4  C   UNL     1       7.091  -4.240  21.497  0.00  0.00    +0.024 A 
ATOM      5  C   UNL     1       6.411  -5.451  21.322  0.00  0.00    +0.002 A 
ATOM      6  C   UNL     1       5.928  -6.135  22.423  0.00  0.00    +0.000 A 
ATOM      7  C   UNL     1       6.134  -5.612  23.692  0.00  0.00    +0.008 A 
ATOM      8  C   UNL     1       6.829  -4.389  23.882  0.00  0.00    +0.007 A 
ATOM      9  C   UNL     1       7.062  -3.873  25.312  0.00  0.00    +0.186 C 
ATOM     10  C   UNL     1       7.831  -2.546  25.398  0.00  0.00    +0.007 A 
ATOM     11  C   UNL     1       8.134  -2.013  26.677  0.00  0.00    +0.008 A 
ATOM     12  C   UNL     1       8.868  -0.842  26.813  0.00  0.00    +0.000 A 
ATOM     13  C   UNL     1       9.289  -0.174  25.678  0.00  0.00    +0.002 A 
ATOM     14  C   UNL     1       8.991  -0.687  24.412  0.00  0.00    +0.024 A 
ATOM     15  C   UNL     1       8.279  -1.890  24.231  0.00  0.00    +0.039 A 
ENDROOT
BRANCH   9  16
ATOM     16  C   UNL     1       5.671  -3.729  25.993  0.00  0.00    +0.242 C 
ATOM     17  N   UNL     1       5.458  -4.546  27.109  0.00  0.00    -0.313 N 
ATOM     18  H   UNL     1       6.023  -5.393  27.163  0.00  0.00    +0.149 HD
ATOM     19  O   UNL     1       4.817  -2.917  25.641  0.00  0.00    -0.273 OA
BRANCH  17  20
ATOM     20  C   UNL     1       4.180  -4.496  27.804  0.00  0.00    +0.115 C 
BRANCH  20  21
ATOM     21  C   UNL     1       4.071  -5.490  28.949  0.00  0.00    +0.139 C 
BRANCH  21  22
ATOM     22  C   UNL     1       5.284  -6.344  29.244  0.00  0.00    +0.306 C 
ATOM     23  O   UNL     1       6.140  -5.987  30.044  0.00  0.00    -0.251 OA
BRANCH  22  24
ATOM     24  O   UNL     1       5.374  -7.527  28.611  0.00  0.00    -0.481 OA
ATOM     25  H   UNL     1       5.820  -8.247  29.104  0.00  0.00    +0.295 HD
ENDBRANCH  22  24
ENDBRANCH  21  22
ENDBRANCH  20  21
ENDBRANCH  17  20
ENDBRANCH   9  16
BRANCH   9  26
ATOM     26  C   UNL     1       7.897  -4.923  26.026  0.00  0.00    +0.088 C 
ATOM     27  N   UNL     1       8.590  -5.794  26.619  0.00  0.00    -0.195 NA
ENDBRANCH   9  26
TORSDOF 6
ENDMDL
MODEL 6
REMARK VINA RESULT:      -5.9      2.840      5.874
REMARK  Name = 
REMARK  7 active torsions:
REMARK  status: ('A' for Active; 'I' for Inactive)
REMARK    1  A    between atoms: C_1  and  N_2
REMARK    2  A    between atoms: C_9  and  C_10
REMARK    3  A    between atoms: C_9  and  C_12
REMARK    4  A    between atoms: N_14  and  C_15
REMARK    5  A    between atoms: C_15  and  C_16
REMARK    6  A    between atoms: C_16  and  C_17
REMARK    7  A    between atoms: C_17  and  O_18
REMARK                            x       y       z     vdW  Elec       q    Type
REMARK                         _______ _______ _______ _____ _____    ______ ____
ROOT
ATOM      1  C   UNL     1       6.837   2.769  22.369  0.00  0.00    +0.135 C 
ATOM      2  N   UNL     1       6.867   1.541  23.183  0.00  0.00    -0.303 N 
ATOM      3  C   UNL     1       7.914   0.637  22.870  0.00  0.00    +0.039 A 
ATOM      4  C   UNL     1       8.790   0.820  21.779  0.00  0.00    +0.024 A 
ATOM      5  C   UNL     1       9.818  -0.083  21.485  0.00  0.00    +0.002 A 
ATOM      6  C   UNL     1       9.996  -1.205  22.272  0.00  0.00    +0.000 A 
ATOM      7  C   UNL     1       9.152  -1.416  23.355  0.00  0.00    +0.008 A 
ATOM      8  C   UNL     1       8.112  -0.503  23.668  0.00  0.00    +0.007 A 
ATOM      9  C   UNL     1       7.230  -0.765  24.900  0.00  0.00    +0.186 C 
ATOM     10  C   UNL     1       6.143   0.292  25.147  0.00  0.00    +0.007 A 
ATOM     11  C   UNL     1       5.308   0.161  26.287  0.00  0.00    +0.008 A 
ATOM     12  C   UNL     1       4.341   1.112  26.584  0.00  0.00    +0.000 A 
ATOM     13  C   UNL     1       4.176   2.193  25.738  0.00  0.00    +0.002 A 
ATOM     14  C   UNL     1       4.989   2.329  24.608  0.00  0.00    +0.024 A 
ATOM     15  C   UNL     1       6.005   1.405  24.291  0.00  0.00    +0.039 A 
ENDROOT
BRANCH   9  16
ATOM     16  C   UNL     1       6.582  -2.168  24.727  0.00  0.00    +0.242 C 
ATOM     17  N   UNL     1       6.900  -3.106  25.716  0.00  0.00    -0.313 N 
ATOM     18  H   UNL     1       7.770  -2.950  26.223  0.00  0.00    +0.149 HD
ATOM     19  O   UNL     1       5.789  -2.449  23.830  0.00  0.00    -0.273 OA
BRANCH  17  20
ATOM     20  C   UNL     1       6.355  -4.453  25.629  0.00  0.00    +0.115 C 
BRANCH  20  21
ATOM     21  C   UNL     1       7.410  -5.521  25.386  0.00  0.00    +0.139 C 
BRANCH  21  22
ATOM     22  C   UNL     1       8.840  -5.176  25.738  0.00  0.00    +0.306 C 
ATOM     23  O   UNL     1       9.114  -4.517  26.734  0.00  0.00    -0.251 OA
BRANCH  22  24
ATOM     24  O   UNL     1       9.806  -5.642  24.927  0.00  0.00    -0.481 OA
ATOM     25  H   UNL     1       9.530  -5.868  24.014  0.00  0.00    +0.295 HD
ENDBRANCH  22  24
ENDBRANCH  21  22
ENDBRANCH  20  21
ENDBRANCH  17  20
ENDBRANCH   9  16
BRANCH   9  26
ATOM     26  C   UNL     1       8.152  -0.751  26.109  0.00  0.00    +0.088 C 
ATOM     27  N   UNL     1       8.917  -0.739  27.112  0.00  0.00    -0.195 NA
ENDBRANCH   9  26
TORSDOF 6
ENDMDL
MODEL 7
REMARK VINA RESULT:      -5.9      2.088      3.317
REMARK  Name = 
REMARK  7 active torsions:
REMARK  status: ('A' for Active; 'I' for Inactive)
REMARK    1  A    between atoms: C_1  and  N_2
REMARK    2  A    between atoms: C_9  and  C_10
REMARK    3  A    between atoms: C_9  and  C_12
REMARK    4  A    between atoms: N_14  and  C_15
REMARK    5  A    between atoms: C_15  and  C_16
REMARK    6  A    between atoms: C_16  and  C_17
REMARK    7  A    between atoms: C_17  and  O_18
REMARK                            x       y       z     vdW  Elec       q    Type
REMARK                         _______ _______ _______ _____ _____    ______ ____
ROOT
ATOM      1  C   UNL     1       2.718  -5.018  23.438  0.00  0.00    +0.135 C 
ATOM      2  N   UNL     1       3.961  -4.588  24.103  0.00  0.00    -0.303 N 
ATOM      3  C   UNL     1       3.781  -3.924  25.344  0.00  0.00    +0.039 A 
ATOM      4  C   UNL     1       2.513  -3.578  25.856  0.00  0.00    +0.024 A 
ATOM      5  C   UNL     1       2.354  -2.923  27.083  0.00  0.00    +0.002 A 
ATOM      6  C   UNL     1       3.466  -2.587  27.833  0.00  0.00    +0.000 A 
ATOM      7  C   UNL     1       4.729  -2.915  27.360  0.00  0.00    +0.008 A 
ATOM      8  C   UNL     1       4.902  -3.586  26.122  0.00  0.00    +0.007 A 
ATOM      9  C   UNL     1       6.321  -3.959  25.662  0.00  0.00    +0.186 C 
ATOM     10  C   UNL     1       6.388  -4.689  24.312  0.00  0.00    +0.007 A 
ATOM     11  C   UNL     1       7.650  -5.115  23.826  0.00  0.00    +0.008 A 
ATOM     12  C   UNL     1       7.764  -5.820  22.636  0.00  0.00    +0.000 A 
ATOM     13  C   UNL     1       6.623  -6.091  21.902  0.00  0.00    +0.002 A 
ATOM     14  C   UNL     1       5.373  -5.671  22.369  0.00  0.00    +0.024 A 
ATOM     15  C   UNL     1       5.213  -4.984  23.588  0.00  0.00    +0.039 A 
ENDROOT
BRANCH   9  16
ATOM     16  C   UNL     1       7.156  -2.648  25.602  0.00  0.00    +0.242 C 
ATOM     17  N   UNL     1       6.835  -1.776  24.556  0.00  0.00    -0.313 N 
ATOM     18  H   UNL     1       6.390  -2.194  23.740  0.00  0.00    +0.149 HD
ATOM     19  O   UNL     1       8.004  -2.337  26.437  0.00  0.00    -0.273 OA
BRANCH  17  20
ATOM     20  C   UNL     1       7.575  -0.531  24.406  0.00  0.00    +0.115 C 
BRANCH  20  21
ATOM     21  C   UNL     1       8.814  -0.661  23.535  0.00  0.00    +0.139 C 
BRANCH  21  22
ATOM     22  C   UNL     1       8.740  -1.611  22.360  0.00  0.00    +0.306 C 
ATOM     23  O   UNL     1       7.678  -2.110  22.006  0.00  0.00    -0.251 OA
BRANCH  22  24
ATOM     24  O   UNL     1       9.883  -1.867  21.700  0.00  0.00    -0.481 OA
ATOM     25  H   UNL     1      10.674  -1.372  21.999  0.00  0.00    +0.295 HD
ENDBRANCH  22  24
ENDBRANCH  21  22
ENDBRANCH  20  21
ENDBRANCH  17  20
ENDBRANCH   9  16
BRANCH   9  26
ATOM     26  C   UNL     1       6.888  -4.902  26.711  0.00  0.00    +0.088 C 
ATOM     27  N   UNL     1       7.357  -5.685  27.581  0.00  0.00    -0.195 NA
ENDBRANCH   9  26
TORSDOF 6
ENDMDL
MODEL 8
REMARK VINA RESULT:      -5.9      4.085      7.590
REMARK  Name = 
REMARK  7 active torsions:
REMARK  status: ('A' for Active; 'I' for Inactive)
REMARK    1  A    between atoms: C_1  and  N_2
REMARK    2  A    between atoms: C_9  and  C_10
REMARK    3  A    between atoms: C_9  and  C_12
REMARK    4  A    between atoms: N_14  and  C_15
REMARK    5  A    between atoms: C_15  and  C_16
REMARK    6  A    between atoms: C_16  and  C_17
REMARK    7  A    between atoms: C_17  and  O_18
REMARK                            x       y       z     vdW  Elec       q    Type
REMARK                         _______ _______ _______ _____ _____    ______ ____
ROOT
ATOM      1  C   UNL     1       7.534   7.086  23.732  0.00  0.00    +0.135 C 
ATOM      2  N   UNL     1       7.822   5.642  23.778  0.00  0.00    -0.303 N 
ATOM      3  C   UNL     1       6.681   4.799  23.733  0.00  0.00    +0.039 A 
ATOM      4  C   UNL     1       5.359   5.289  23.774  0.00  0.00    +0.024 A 
ATOM      5  C   UNL     1       4.245   4.443  23.728  0.00  0.00    +0.002 A 
ATOM      6  C   UNL     1       4.422   3.074  23.649  0.00  0.00    +0.000 A 
ATOM      7  C   UNL     1       5.711   2.558  23.605  0.00  0.00    +0.008 A 
ATOM      8  C   UNL     1       6.847   3.407  23.642  0.00  0.00    +0.007 A 
ATOM      9  C   UNL     1       8.251   2.784  23.554  0.00  0.00    +0.186 C 
ATOM     10  C   UNL     1       9.405   3.797  23.595  0.00  0.00    +0.007 A 
ATOM     11  C   UNL     1      10.736   3.322  23.474  0.00  0.00    +0.008 A 
ATOM     12  C   UNL     1      11.814   4.197  23.457  0.00  0.00    +0.000 A 
ATOM     13  C   UNL     1      11.583   5.554  23.585  0.00  0.00    +0.002 A 
ATOM     14  C   UNL     1      10.275   6.034  23.711  0.00  0.00    +0.024 A 
ATOM     15  C   UNL     1       9.152   5.182  23.697  0.00  0.00    +0.039 A 
ENDROOT
BRANCH   9  16
ATOM     16  C   UNL     1       8.390   1.768  24.723  0.00  0.00    +0.242 C 
ATOM     17  N   UNL     1       8.893   0.510  24.372  0.00  0.00    -0.313 N 
ATOM     18  H   UNL     1       8.773   0.231  23.400  0.00  0.00    +0.149 HD
ATOM     19  O   UNL     1       8.146   2.038  25.897  0.00  0.00    -0.273 OA
BRANCH  17  20
ATOM     20  C   UNL     1       9.042  -0.515  25.395  0.00  0.00    +0.115 C 
BRANCH  20  21
ATOM     21  C   UNL     1       8.716  -1.916  24.904  0.00  0.00    +0.139 C 
BRANCH  21  22
ATOM     22  C   UNL     1       9.741  -2.599  24.024  0.00  0.00    +0.306 C 
ATOM     23  O   UNL     1      10.095  -3.753  24.230  0.00  0.00    -0.251 OA
BRANCH  22  24
ATOM     24  O   UNL     1      10.232  -1.895  22.989  0.00  0.00    -0.481 OA
ATOM     25  H   UNL     1       9.575  -1.411  22.447  0.00  0.00    +0.295 HD
ENDBRANCH  22  24
ENDBRANCH  21  22
ENDBRANCH  20  21
ENDBRANCH  17  20
ENDBRANCH   9  16
BRANCH   9  26
ATOM     26  C   UNL     1       8.329   2.068  22.215  0.00  0.00    +0.088 C 
ATOM     27  N   UNL     1       8.394   1.475  21.104  0.00  0.00    -0.195 NA
ENDBRANCH   9  26
TORSDOF 6
ENDMDL
MODEL 9
REMARK VINA RESULT:      -5.8      2.721      5.392
REMARK  Name = 
REMARK  7 active torsions:
REMARK  status: ('A' for Active; 'I' for Inactive)
REMARK    1  A    between atoms: C_1  and  N_2
REMARK    2  A    between atoms: C_9  and  C_10
REMARK    3  A    between atoms: C_9  and  C_12
REMARK    4  A    between atoms: N_14  and  C_15
REMARK    5  A    between atoms: C_15  and  C_16
REMARK    6  A    between atoms: C_16  and  C_17
REMARK    7  A    between atoms: C_17  and  O_18
REMARK                            x       y       z     vdW  Elec       q    Type
REMARK                         _______ _______ _______ _____ _____    ______ ____
ROOT
ATOM      1  C   UNL     1       7.746   1.822  25.421  0.00  0.00    +0.135 C 
ATOM      2  N   UNL     1       7.455   0.381  25.321  0.00  0.00    -0.303 N 
ATOM      3  C   UNL     1       8.281  -0.339  24.419  0.00  0.00    +0.039 A 
ATOM      4  C   UNL     1       9.227   0.282  23.578  0.00  0.00    +0.024 A 
ATOM      5  C   UNL     1      10.035  -0.444  22.694  0.00  0.00    +0.002 A 
ATOM      6  C   UNL     1       9.912  -1.819  22.621  0.00  0.00    +0.000 A 
ATOM      7  C   UNL     1       8.991  -2.463  23.437  0.00  0.00    +0.008 A 
ATOM      8  C   UNL     1       8.174  -1.738  24.342  0.00  0.00    +0.007 A 
ATOM      9  C   UNL     1       7.197  -2.505  25.249  0.00  0.00    +0.186 C 
ATOM     10  C   UNL     1       6.369  -1.620  26.194  0.00  0.00    +0.007 A 
ATOM     11  C   UNL     1       5.473  -2.240  27.101  0.00  0.00    +0.008 A 
ATOM     12  C   UNL     1       4.735  -1.492  28.009  0.00  0.00    +0.000 A 
ATOM     13  C   UNL     1       4.863  -0.115  28.009  0.00  0.00    +0.002 A 
ATOM     14  C   UNL     1       5.740   0.507  27.115  0.00  0.00    +0.024 A 
ATOM     15  C   UNL     1       6.531  -0.219  26.202  0.00  0.00    +0.039 A 
ENDROOT
BRANCH   9  16
ATOM     16  C   UNL     1       6.254  -3.334  24.331  0.00  0.00    +0.242 C 
ATOM     17  N   UNL     1       6.434  -4.722  24.376  0.00  0.00    -0.313 N 
ATOM     18  H   UNL     1       7.352  -5.048  24.677  0.00  0.00    +0.149 HD
ATOM     19  O   UNL     1       5.357  -2.843  23.649  0.00  0.00    -0.273 OA
BRANCH  17  20
ATOM     20  C   UNL     1       5.611  -5.581  23.539  0.00  0.00    +0.115 C 
BRANCH  20  21
ATOM     21  C   UNL     1       6.319  -6.065  22.283  0.00  0.00    +0.139 C 
BRANCH  21  22
ATOM     22  C   UNL     1       6.064  -5.298  21.004  0.00  0.00    +0.306 C 
ATOM     23  O   UNL     1       6.017  -5.862  19.917  0.00  0.00    -0.251 OA
BRANCH  22  24
ATOM     24  O   UNL     1       5.866  -3.972  21.109  0.00  0.00    -0.481 OA
ATOM     25  H   UNL     1       5.721  -3.628  22.014  0.00  0.00    +0.295 HD
ENDBRANCH  22  24
ENDBRANCH  21  22
ENDBRANCH  20  21
ENDBRANCH  17  20
ENDBRANCH   9  16
BRANCH   9  26
ATOM     26  C   UNL     1       8.037  -3.426  26.118  0.00  0.00    +0.088 C 
ATOM     27  N   UNL     1       8.734  -4.191  26.840  0.00  0.00    -0.195 NA
ENDBRANCH   9  26
TORSDOF 6
ENDMDL
