MODEL 1
REMARK VINA RESULT:      -6.7      0.000      0.000
REMARK  Name = 
REMARK  5 active torsions:
REMARK  status: ('A' for Active; 'I' for Inactive)
REMARK    1  A    between atoms: C_2  and  O_3
REMARK    2  A    between atoms: N_5  and  C_6
REMARK    3  A    between atoms: C_6  and  C_7
REMARK    4  A    between atoms: C_18  and  S_20
REMARK    5  A    between atoms: S_20  and  N_21
REMARK                            x       y       z     vdW  Elec       q    Type
REMARK                         _______ _______ _______ _____ _____    ______ ____
ROOT
ATOM      1  C   UNL     1       7.022  -1.830  22.838  0.00  0.00    +0.163 C 
ATOM      2  C   UNL     1       6.446  -3.070  23.465  0.00  0.00    +0.018 A 
ATOM      3  C   UNL     1       5.200  -3.706  23.158  0.00  0.00    +0.044 A 
ATOM      4  C   UNL     1       4.970  -4.826  23.940  0.00  0.00    +0.144 A 
ATOM      5  S   UNL     1       6.253  -5.099  25.046  0.00  0.00    -0.048 S 
ATOM      6  C   UNL     1       7.100  -3.750  24.471  0.00  0.00    +0.150 A 
ATOM      7  S   UNL     1       8.708  -3.395  25.116  0.00  0.00    +0.068 S 
ATOM      8  O   UNL     1       8.583  -3.352  26.553  0.00  0.00    -0.152 OA
ATOM      9  O   UNL     1       9.564  -4.325  24.419  0.00  0.00    -0.152 OA
ATOM     10  N   UNL     1       9.031  -1.841  24.499  0.00  0.00    -0.168 NA
ATOM     11  C   UNL     1       8.555  -1.621  23.085  0.00  0.00    +0.146 C 
ENDROOT
BRANCH   4  12
ATOM     12  S   UNL     1       3.614  -5.976  24.013  0.00  0.00    +0.062 S 
ATOM     13  O   UNL     1       2.892  -5.821  22.778  0.00  0.00    -0.153 OA
ATOM     14  O   UNL     1       3.024  -5.759  25.313  0.00  0.00    -0.153 OA
BRANCH  12  15
ATOM     15  N   UNL     1       4.287  -7.515  24.030  0.00  0.00    -0.203 NA
ATOM     16  H   UNL     1       4.123  -8.002  24.907  0.00  0.00    +0.144 HD
ATOM     17  H   UNL     1       4.074  -8.041  23.186  0.00  0.00    +0.144 HD
ENDBRANCH  12  15
ENDBRANCH   4  12
BRANCH   1  18
ATOM     18  O   UNL     1       6.295  -0.694  23.310  0.00  0.00    -0.386 OA
ATOM     19  H   UNL     1       5.669  -1.011  23.986  0.00  0.00    +0.210 HD
ENDBRANCH   1  18
BRANCH  10  20
ATOM     20  C   UNL     1       8.853  -0.721  25.442  0.00  0.00    +0.151 C 
BRANCH  20  21
ATOM     21  C   UNL     1       9.400   0.543  24.826  0.00  0.00    +0.005 A 
ATOM     22  S   UNL     1       8.388   1.910  24.615  0.00  0.00    -0.100 S 
ATOM     23  C   UNL     1       9.664   2.834  23.949  0.00  0.00    +0.045 A 
ATOM     24  C   UNL     1      10.840   2.123  23.887  0.00  0.00    +0.008 A 
ATOM     25  C   UNL     1      10.690   0.801  24.397  0.00  0.00    +0.012 A 
ENDBRANCH  20  21
ENDBRANCH  10  20
TORSDOF 5
ENDMDL
MODEL 2
REMARK VINA RESULT:      -6.6      2.547      3.123
REMARK  Name = 
REMARK  5 active torsions:
REMARK  status: ('A' for Active; 'I' for Inactive)
REMARK    1  A    between atoms: C_2  and  O_3
REMARK    2  A    between atoms: N_5  and  C_6
REMARK    3  A    between atoms: C_6  and  C_7
REMARK    4  A    between atoms: C_18  and  S_20
REMARK    5  A    between atoms: S_20  and  N_21
REMARK                            x       y       z     vdW  Elec       q    Type
REMARK                         _______ _______ _______ _____ _____    ______ ____
ROOT
ATOM      1  C   UNL     1       6.568  -1.680  25.393  0.00  0.00    +0.163 C 
ATOM      2  C   UNL     1       6.584  -3.028  26.059  0.00  0.00    +0.018 A 
ATOM      3  C   UNL     1       5.799  -3.461  27.176  0.00  0.00    +0.044 A 
ATOM      4  C   UNL     1       6.078  -4.766  27.547  0.00  0.00    +0.144 A 
ATOM      5  S   UNL     1       7.291  -5.460  26.551  0.00  0.00    -0.048 S 
ATOM      6  C   UNL     1       7.422  -4.040  25.638  0.00  0.00    +0.150 A 
ATOM      7  S   UNL     1       8.504  -4.004  24.240  0.00  0.00    +0.068 S 
ATOM      8  O   UNL     1       9.799  -4.443  24.701  0.00  0.00    -0.152 OA
ATOM      9  O   UNL     1       7.752  -4.686  23.213  0.00  0.00    -0.152 OA
ATOM     10  N   UNL     1       8.545  -2.351  23.832  0.00  0.00    -0.168 NA
ATOM     11  C   UNL     1       7.220  -1.643  23.969  0.00  0.00    +0.146 C 
ENDROOT
BRANCH   4  12
ATOM     12  S   UNL     1       5.438  -5.804  28.843  0.00  0.00    +0.062 S 
ATOM     13  O   UNL     1       4.052  -5.447  28.992  0.00  0.00    -0.153 OA
ATOM     14  O   UNL     1       6.408  -5.695  29.907  0.00  0.00    -0.153 OA
BRANCH  12  15
ATOM     15  N   UNL     1       5.508  -7.383  28.275  0.00  0.00    -0.203 NA
ATOM     16  H   UNL     1       5.293  -7.449  27.283  0.00  0.00    +0.144 HD
ATOM     17  H   UNL     1       6.348  -7.869  28.578  0.00  0.00    +0.144 HD
ENDBRANCH  12  15
ENDBRANCH   4  12
BRANCH   1  18
ATOM     18  O   UNL     1       7.215  -0.736  26.248  0.00  0.00    -0.386 OA
ATOM     19  H   UNL     1       8.011  -1.167  26.606  0.00  0.00    +0.210 HD
ENDBRANCH   1  18
BRANCH  10  20
ATOM     20  C   UNL     1       9.744  -1.608  24.264  0.00  0.00    +0.151 C 
BRANCH  20  21
ATOM     21  C   UNL     1       9.796  -0.282  23.546  0.00  0.00    +0.005 A 
ATOM     22  S   UNL     1       9.804   1.182  24.435  0.00  0.00    -0.100 S 
ATOM     23  C   UNL     1       9.898   2.124  23.010  0.00  0.00    +0.045 A 
ATOM     24  C   UNL     1       9.924   1.345  21.876  0.00  0.00    +0.008 A 
ATOM     25  C   UNL     1       9.869  -0.046  22.184  0.00  0.00    +0.012 A 
ENDBRANCH  20  21
ENDBRANCH  10  20
TORSDOF 5
ENDMDL
MODEL 3
REMARK VINA RESULT:      -6.6      3.063      4.141
REMARK  Name = 
REMARK  5 active torsions:
REMARK  status: ('A' for Active; 'I' for Inactive)
REMARK    1  A    between atoms: C_2  and  O_3
REMARK    2  A    between atoms: N_5  and  C_6
REMARK    3  A    between atoms: C_6  and  C_7
REMARK    4  A    between atoms: C_18  and  S_20
REMARK    5  A    between atoms: S_20  and  N_21
REMARK                            x       y       z     vdW  Elec       q    Type
REMARK                         _______ _______ _______ _____ _____    ______ ____
ROOT
ATOM      1  C   UNL     1       6.675   0.169  23.868  0.00  0.00    +0.163 C 
ATOM      2  C   UNL     1       7.601  -1.014  23.935  0.00  0.00    +0.018 A 
ATOM      3  C   UNL     1       7.273  -2.362  24.292  0.00  0.00    +0.044 A 
ATOM      4  C   UNL     1       8.375  -3.200  24.266  0.00  0.00    +0.144 A 
ATOM      5  S   UNL     1       9.801  -2.356  23.821  0.00  0.00    -0.048 S 
ATOM      6  C   UNL     1       8.947  -0.903  23.653  0.00  0.00    +0.150 A 
ATOM      7  S   UNL     1       9.792   0.539  23.078  0.00  0.00    +0.068 S 
ATOM      8  O   UNL     1      10.947   0.714  23.926  0.00  0.00    -0.152 OA
ATOM      9  O   UNL     1       9.876   0.335  21.651  0.00  0.00    -0.152 OA
ATOM     10  N   UNL     1       8.658   1.780  23.352  0.00  0.00    -0.168 NA
ATOM     11  C   UNL     1       7.230   1.393  23.062  0.00  0.00    +0.146 C 
ENDROOT
BRANCH   4  12
ATOM     12  S   UNL     1       8.570  -4.933  24.625  0.00  0.00    +0.062 S 
ATOM     13  O   UNL     1       8.347  -5.624  23.383  0.00  0.00    -0.153 OA
ATOM     14  O   UNL     1       7.774  -5.149  25.811  0.00  0.00    -0.153 OA
BRANCH  12  15
ATOM     15  N   UNL     1      10.175  -5.158  25.062  0.00  0.00    -0.203 NA
ATOM     16  H   UNL     1      10.492  -6.111  24.902  0.00  0.00    +0.144 HD
ATOM     17  H   UNL     1      10.782  -4.425  24.704  0.00  0.00    +0.144 HD
ENDBRANCH  12  15
ENDBRANCH   4  12
BRANCH   1  18
ATOM     18  O   UNL     1       6.346   0.573  25.198  0.00  0.00    -0.386 OA
ATOM     19  H   UNL     1       7.166   0.538  25.723  0.00  0.00    +0.210 HD
ENDBRANCH   1  18
BRANCH  10  20
ATOM     20  C   UNL     1       8.891   2.618  24.544  0.00  0.00    +0.151 C 
BRANCH  20  21
ATOM     21  C   UNL     1       9.163   4.037  24.111  0.00  0.00    +0.005 A 
ATOM     22  S   UNL     1       7.866   5.132  23.876  0.00  0.00    -0.100 S 
ATOM     23  C   UNL     1       8.930   6.407  23.466  0.00  0.00    +0.045 A 
ATOM     24  C   UNL     1      10.248   6.014  23.507  0.00  0.00    +0.008 A 
ATOM     25  C   UNL     1      10.384   4.647  23.884  0.00  0.00    +0.012 A 
ENDBRANCH  20  21
ENDBRANCH  10  20
TORSDOF 5
ENDMDL
MODEL 4
REMARK VINA RESULT:      -6.5      2.914      4.279
REMARK  Name = 
REMARK  5 active torsions:
REMARK  status: ('A' for Active; 'I' for Inactive)
REMARK    1  A    between atoms: C_2  and  O_3
REMARK    2  A    between atoms: N_5  and  C_6
REMARK    3  A    between atoms: C_6  and  C_7
REMARK    4  A    between atoms: C_18  and  S_20
REMARK    5  A    between atoms: S_20  and  N_21
REMARK                            x       y       z     vdW  Elec       q    Type
REMARK                         _______ _______ _______ _____ _____    ______ ____
ROOT
ATOM      1  C   UNL     1       9.479   0.573  21.499  0.00  0.00    +0.163 C 
ATOM      2  C   UNL     1       9.016  -0.552  22.384  0.00  0.00    +0.018 A 
ATOM      3  C   UNL     1       8.564  -1.850  21.982  0.00  0.00    +0.044 A 
ATOM      4  C   UNL     1       8.195  -2.640  23.058  0.00  0.00    +0.144 A 
ATOM      5  S   UNL     1       8.386  -1.808  24.547  0.00  0.00    -0.048 S 
ATOM      6  C   UNL     1       8.966  -0.427  23.756  0.00  0.00    +0.150 A 
ATOM      7  S   UNL     1       9.511   0.956  24.713  0.00  0.00    +0.068 S 
ATOM      8  O   UNL     1       8.436   1.291  25.616  0.00  0.00    -0.152 OA
ATOM      9  O   UNL     1      10.828   0.563  25.155  0.00  0.00    -0.152 OA
ATOM     10  N   UNL     1       9.708   2.176  23.542  0.00  0.00    -0.168 NA
ATOM     11  C   UNL     1      10.287   1.696  22.234  0.00  0.00    +0.146 C 
ENDROOT
BRANCH   4  12
ATOM     12  S   UNL     1       7.557  -4.298  23.163  0.00  0.00    +0.062 S 
ATOM     13  O   UNL     1       8.544  -5.060  23.882  0.00  0.00    -0.153 OA
ATOM     14  O   UNL     1       7.134  -4.610  21.818  0.00  0.00    -0.153 OA
BRANCH  12  15
ATOM     15  N   UNL     1       6.171  -4.223  24.109  0.00  0.00    -0.203 NA
ATOM     16  H   UNL     1       5.801  -5.144  24.331  0.00  0.00    +0.144 HD
ATOM     17  H   UNL     1       6.271  -3.586  24.896  0.00  0.00    +0.144 HD
ENDBRANCH  12  15
ENDBRANCH   4  12
BRANCH   1  18
ATOM     18  O   UNL     1       8.344   1.141  20.843  0.00  0.00    -0.386 OA
ATOM     19  H   UNL     1       8.593   2.039  20.560  0.00  0.00    +0.210 HD
ENDBRANCH   1  18
BRANCH  10  20
ATOM     20  C   UNL     1       8.627   3.177  23.463  0.00  0.00    +0.151 C 
BRANCH  20  21
ATOM     21  C   UNL     1       9.066   4.443  24.156  0.00  0.00    +0.005 A 
ATOM     22  S   UNL     1       8.227   5.005  25.541  0.00  0.00    -0.100 S 
ATOM     23  C   UNL     1       9.278   6.343  25.716  0.00  0.00    +0.045 A 
ATOM     24  C   UNL     1      10.252   6.366  24.744  0.00  0.00    +0.008 A 
ATOM     25  C   UNL     1      10.133   5.267  23.845  0.00  0.00    +0.012 A 
ENDBRANCH  20  21
ENDBRANCH  10  20
TORSDOF 5
ENDMDL
MODEL 5
REMARK VINA RESULT:      -6.5      2.124      2.933
REMARK  Name = 
REMARK  5 active torsions:
REMARK  status: ('A' for Active; 'I' for Inactive)
REMARK    1  A    between atoms: C_2  and  O_3
REMARK    2  A    between atoms: N_5  and  C_6
REMARK    3  A    between atoms: C_6  and  C_7
REMARK    4  A    between atoms: C_18  and  S_20
REMARK    5  A    between atoms: S_20  and  N_21
REMARK                            x       y       z     vdW  Elec       q    Type
REMARK                         _______ _______ _______ _____ _____    ______ ____
ROOT
ATOM      1  C   UNL     1       9.746  -1.966  22.952  0.00  0.00    +0.163 C 
ATOM      2  C   UNL     1       8.363  -2.504  23.198  0.00  0.00    +0.018 A 
ATOM      3  C   UNL     1       7.862  -3.806  22.874  0.00  0.00    +0.044 A 
ATOM      4  C   UNL     1       6.532  -3.964  23.226  0.00  0.00    +0.144 A 
ATOM      5  S   UNL     1       5.893  -2.540  23.937  0.00  0.00    -0.048 S 
ATOM      6  C   UNL     1       7.378  -1.740  23.787  0.00  0.00    +0.150 A 
ATOM      7  S   UNL     1       7.553  -0.107  24.440  0.00  0.00    +0.068 S 
ATOM      8  O   UNL     1       6.482   0.685  23.885  0.00  0.00    -0.152 OA
ATOM      9  O   UNL     1       7.730  -0.326  25.856  0.00  0.00    -0.152 OA
ATOM     10  N   UNL     1       9.054   0.396  23.810  0.00  0.00    -0.168 NA
ATOM     11  C   UNL     1      10.107  -0.682  23.776  0.00  0.00    +0.146 C 
ENDROOT
BRANCH   4  12
ATOM     12  S   UNL     1       5.403  -5.330  23.054  0.00  0.00    +0.062 S 
ATOM     13  O   UNL     1       4.184  -4.775  22.527  0.00  0.00    -0.153 OA
ATOM     14  O   UNL     1       5.481  -6.026  24.317  0.00  0.00    -0.153 OA
BRANCH  12  15
ATOM     15  N   UNL     1       6.053  -6.350  21.889  0.00  0.00    -0.203 NA
ATOM     16  H   UNL     1       5.366  -6.999  21.513  0.00  0.00    +0.144 HD
ATOM     17  H   UNL     1       6.611  -5.849  21.202  0.00  0.00    +0.144 HD
ENDBRANCH  12  15
ENDBRANCH   4  12
BRANCH   1  18
ATOM     18  O   UNL     1       9.899  -1.706  21.556  0.00  0.00    -0.386 OA
ATOM     19  H   UNL     1      10.842  -1.524  21.396  0.00  0.00    +0.210 HD
ENDBRANCH   1  18
BRANCH  10  20
ATOM     20  C   UNL     1       8.996   1.307  22.651  0.00  0.00    +0.151 C 
BRANCH  20  21
ATOM     21  C   UNL     1       9.411   2.691  23.082  0.00  0.00    +0.005 A 
ATOM     22  S   UNL     1       8.230   3.903  23.354  0.00  0.00    -0.100 S 
ATOM     23  C   UNL     1       9.416   5.052  23.801  0.00  0.00    +0.045 A 
ATOM     24  C   UNL     1      10.688   4.530  23.748  0.00  0.00    +0.008 A 
ATOM     25  C   UNL     1      10.687   3.165  23.337  0.00  0.00    +0.012 A 
ENDBRANCH  20  21
ENDBRANCH  10  20
TORSDOF 5
ENDMDL
MODEL 6
REMARK VINA RESULT:      -6.5      3.221      4.641
REMARK  Name = 
REMARK  5 active torsions:
REMARK  status: ('A' for Active; 'I' for Inactive)
REMARK    1  A    between atoms: C_2  and  O_3
REMARK    2  A    between atoms: N_5  and  C_6
REMARK    3  A    between atoms: C_6  and  C_7
REMARK    4  A    between atoms: C_18  and  S_20
REMARK    5  A    between atoms: S_20  and  N_21
REMARK                            x       y       z     vdW  Elec       q    Type
REMARK                         _______ _______ _______ _____ _____    ______ ____
ROOT
ATOM      1  C   UNL     1      10.086  -0.117  22.851  0.00  0.00    +0.163 C 
ATOM      2  C   UNL     1       9.396  -1.214  23.616  0.00  0.00    +0.018 A 
ATOM      3  C   UNL     1       9.770  -2.594  23.692  0.00  0.00    +0.044 A 
ATOM      4  C   UNL     1       8.901  -3.336  24.475  0.00  0.00    +0.144 A 
ATOM      5  S   UNL     1       7.634  -2.365  25.106  0.00  0.00    -0.048 S 
ATOM      6  C   UNL     1       8.255  -0.981  24.354  0.00  0.00    +0.150 A 
ATOM      7  S   UNL     1       7.475   0.581  24.633  0.00  0.00    +0.068 S 
ATOM      8  O   UNL     1       6.075   0.412  24.328  0.00  0.00    -0.152 OA
ATOM      9  O   UNL     1       7.966   0.976  25.932  0.00  0.00    -0.152 OA
ATOM     10  N   UNL     1       8.219   1.589  23.479  0.00  0.00    -0.168 NA
ATOM     11  C   UNL     1       9.693   1.335  23.287  0.00  0.00    +0.146 C 
ENDROOT
BRANCH   4  12
ATOM     12  S   UNL     1       8.856  -5.062  24.907  0.00  0.00    +0.062 S 
ATOM     13  O   UNL     1       8.597  -5.772  23.682  0.00  0.00    -0.153 OA
ATOM     14  O   UNL     1       7.990  -5.124  26.062  0.00  0.00    -0.153 OA
BRANCH  12  15
ATOM     15  N   UNL     1      10.399  -5.470  25.427  0.00  0.00    -0.203 NA
ATOM     16  H   UNL     1      10.935  -5.955  24.711  0.00  0.00    +0.144 HD
ATOM     17  H   UNL     1      10.873  -4.695  25.885  0.00  0.00    +0.144 HD
ENDBRANCH  12  15
ENDBRANCH   4  12
BRANCH   1  18
ATOM     18  O   UNL     1       9.827  -0.293  21.457  0.00  0.00    -0.386 OA
ATOM     19  H   UNL     1      10.634  -0.035  20.977  0.00  0.00    +0.210 HD
ENDBRANCH   1  18
BRANCH  10  20
ATOM     20  C   UNL     1       7.430   1.874  22.265  0.00  0.00    +0.151 C 
BRANCH  20  21
ATOM     21  C   UNL     1       6.786   3.232  22.394  0.00  0.00    +0.005 A 
ATOM     22  S   UNL     1       5.098   3.366  22.659  0.00  0.00    -0.100 S 
ATOM     23  C   UNL     1       5.176   5.074  22.715  0.00  0.00    +0.045 A 
ATOM     24  C   UNL     1       6.459   5.539  22.537  0.00  0.00    +0.008 A 
ATOM     25  C   UNL     1       7.390   4.476  22.356  0.00  0.00    +0.012 A 
ENDBRANCH  20  21
ENDBRANCH  10  20
TORSDOF 5
ENDMDL
MODEL 7
REMARK VINA RESULT:      -6.4      2.448      3.273
REMARK  Name = 
REMARK  5 active torsions:
REMARK  status: ('A' for Active; 'I' for Inactive)
REMARK    1  A    between atoms: C_2  and  O_3
REMARK    2  A    between atoms: N_5  and  C_6
REMARK    3  A    between atoms: C_6  and  C_7
REMARK    4  A    between atoms: C_18  and  S_20
REMARK    5  A    between atoms: S_20  and  N_21
REMARK                            x       y       z     vdW  Elec       q    Type
REMARK                         _______ _______ _______ _____ _____    ______ ____
ROOT
ATOM      1  C   UNL     1       5.868  -5.096  23.076  0.00  0.00    +0.163 C 
ATOM      2  C   UNL     1       5.997  -5.216  24.570  0.00  0.00    +0.018 A 
ATOM      3  C   UNL     1       5.204  -6.017  25.453  0.00  0.00    +0.044 A 
ATOM      4  C   UNL     1       5.583  -5.879  26.778  0.00  0.00    +0.144 A 
ATOM      5  S   UNL     1       6.888  -4.777  26.950  0.00  0.00    -0.048 S 
ATOM      6  C   UNL     1       6.945  -4.509  25.279  0.00  0.00    +0.150 A 
ATOM      7  S   UNL     1       8.206  -3.465  24.611  0.00  0.00    +0.068 S 
ATOM      8  O   UNL     1       8.142  -2.217  25.333  0.00  0.00    -0.152 OA
ATOM      9  O   UNL     1       9.373  -4.315  24.591  0.00  0.00    -0.152 OA
ATOM     10  N   UNL     1       7.705  -3.247  22.998  0.00  0.00    -0.168 NA
ATOM     11  C   UNL     1       7.117  -4.479  22.357  0.00  0.00    +0.146 C 
ENDROOT
BRANCH   4  12
ATOM     12  S   UNL     1       4.962  -6.600  28.282  0.00  0.00    +0.062 S 
ATOM     13  O   UNL     1       4.683  -5.499  29.166  0.00  0.00    -0.153 OA
ATOM     14  O   UNL     1       5.899  -7.654  28.593  0.00  0.00    -0.153 OA
BRANCH  12  15
ATOM     15  N   UNL     1       3.503  -7.337  27.897  0.00  0.00    -0.203 NA
ATOM     16  H   UNL     1       2.833  -7.294  28.661  0.00  0.00    +0.144 HD
ATOM     17  H   UNL     1       3.153  -7.054  26.985  0.00  0.00    +0.144 HD
ENDBRANCH  12  15
ENDBRANCH   4  12
BRANCH   1  18
ATOM     18  O   UNL     1       4.704  -4.325  22.774  0.00  0.00    -0.386 OA
ATOM     19  H   UNL     1       4.965  -3.651  22.120  0.00  0.00    +0.210 HD
ENDBRANCH   1  18
BRANCH  10  20
ATOM     20  C   UNL     1       7.049  -1.961  22.692  0.00  0.00    +0.151 C 
BRANCH  20  21
ATOM     21  C   UNL     1       8.102  -0.915  22.424  0.00  0.00    +0.005 A 
ATOM     22  S   UNL     1       7.855   0.707  22.920  0.00  0.00    -0.100 S 
ATOM     23  C   UNL     1       9.384   1.191  22.325  0.00  0.00    +0.045 A 
ATOM     24  C   UNL     1      10.074   0.143  21.760  0.00  0.00    +0.008 A 
ATOM     25  C   UNL     1       9.337  -1.074  21.820  0.00  0.00    +0.012 A 
ENDBRANCH  20  21
ENDBRANCH  10  20
TORSDOF 5
ENDMDL
MODEL 8
REMARK VINA RESULT:      -6.3      1.628      2.620
REMARK  Name = 
REMARK  5 active torsions:
REMARK  status: ('A' for Active; 'I' for Inactive)
REMARK    1  A    between atoms: C_2  and  O_3
REMARK    2  A    between atoms: N_5  and  C_6
REMARK    3  A    between atoms: C_6  and  C_7
REMARK    4  A    between atoms: C_18  and  S_20
REMARK    5  A    between atoms: S_20  and  N_21
REMARK                            x       y       z     vdW  Elec       q    Type
REMARK                         _______ _______ _______ _____ _____    ______ ____
ROOT
ATOM      1  C   UNL     1       8.204  -4.683  25.172  0.00  0.00    +0.163 C 
ATOM      2  C   UNL     1       6.752  -4.649  24.781  0.00  0.00    +0.018 A 
ATOM      3  C   UNL     1       5.841  -5.752  24.709  0.00  0.00    +0.044 A 
ATOM      4  C   UNL     1       4.576  -5.368  24.296  0.00  0.00    +0.144 A 
ATOM      5  S   UNL     1       4.496  -3.682  23.988  0.00  0.00    -0.048 S 
ATOM      6  C   UNL     1       6.122  -3.478  24.417  0.00  0.00    +0.150 A 
ATOM      7  S   UNL     1       6.815  -1.851  24.442  0.00  0.00    +0.068 S 
ATOM      8  O   UNL     1       6.542  -1.259  23.155  0.00  0.00    -0.152 OA
ATOM      9  O   UNL     1       6.338  -1.301  25.689  0.00  0.00    -0.152 OA
ATOM     10  N   UNL     1       8.482  -2.150  24.620  0.00  0.00    -0.168 NA
ATOM     11  C   UNL     1       8.815  -3.290  25.550  0.00  0.00    +0.146 C 
ENDROOT
BRANCH   4  12
ATOM     12  S   UNL     1       3.078  -6.288  24.016  0.00  0.00    +0.062 S 
ATOM     13  O   UNL     1       2.703  -6.032  22.650  0.00  0.00    -0.153 OA
ATOM     14  O   UNL     1       2.239  -5.967  25.147  0.00  0.00    -0.153 OA
BRANCH  12  15
ATOM     15  N   UNL     1       3.478  -7.913  24.147  0.00  0.00    -0.203 NA
ATOM     16  H   UNL     1       2.795  -8.440  24.686  0.00  0.00    +0.144 HD
ATOM     17  H   UNL     1       3.746  -8.321  23.254  0.00  0.00    +0.144 HD
ENDBRANCH  12  15
ENDBRANCH   4  12
BRANCH   1  18
ATOM     18  O   UNL     1       8.955  -5.269  24.108  0.00  0.00    -0.386 OA
ATOM     19  H   UNL     1       8.521  -5.016  23.273  0.00  0.00    +0.210 HD
ENDBRANCH   1  18
BRANCH  10  20
ATOM     20  C   UNL     1       9.294  -2.034  23.394  0.00  0.00    +0.151 C 
BRANCH  20  21
ATOM     21  C   UNL     1       9.686  -0.592  23.189  0.00  0.00    +0.005 A 
ATOM     22  S   UNL     1      10.271   0.340  24.502  0.00  0.00    -0.100 S 
ATOM     23  C   UNL     1      10.496   1.716  23.512  0.00  0.00    +0.045 A 
ATOM     24  C   UNL     1      10.135   1.477  22.205  0.00  0.00    +0.008 A 
ATOM     25  C   UNL     1       9.672   0.143  22.016  0.00  0.00    +0.012 A 
ENDBRANCH  20  21
ENDBRANCH  10  20
TORSDOF 5
ENDMDL
MODEL 9
REMARK VINA RESULT:      -6.2      2.619      3.204
REMARK  Name = 
REMARK  5 active torsions:
REMARK  status: ('A' for Active; 'I' for Inactive)
REMARK    1  A    between atoms: C_2  and  O_3
REMARK    2  A    between atoms: N_5  and  C_6
REMARK    3  A    between atoms: C_6  and  C_7
REMARK    4  A    between atoms: C_18  and  S_20
REMARK    5  A    between atoms: S_20  and  N_21
REMARK                            x       y       z     vdW  Elec       q    Type
REMARK                         _______ _______ _______ _____ _____    ______ ____
ROOT
ATOM      1  C   UNL     1       8.679  -4.493  24.535  0.00  0.00    +0.163 C 
ATOM      2  C   UNL     1       7.559  -4.471  25.538  0.00  0.00    +0.018 A 
ATOM      3  C   UNL     1       6.891  -5.593  26.127  0.00  0.00    +0.044 A 
ATOM      4  C   UNL     1       5.889  -5.213  27.004  0.00  0.00    +0.144 A 
ATOM      5  S   UNL     1       5.753  -3.506  27.107  0.00  0.00    -0.048 S 
ATOM      6  C   UNL     1       7.023  -3.290  26.008  0.00  0.00    +0.150 A 
ATOM      7  S   UNL     1       7.582  -1.654  25.639  0.00  0.00    +0.068 S 
ATOM      8  O   UNL     1       6.422  -0.893  25.243  0.00  0.00    -0.152 OA
ATOM      9  O   UNL     1       8.407  -1.315  26.775  0.00  0.00    -0.152 OA
ATOM     10  N   UNL     1       8.619  -1.896  24.310  0.00  0.00    -0.168 NA
ATOM     11  C   UNL     1       9.463  -3.143  24.397  0.00  0.00    +0.146 C 
ENDROOT
BRANCH   4  12
ATOM     12  S   UNL     1       4.743  -6.152  27.991  0.00  0.00    +0.062 S 
ATOM     13  O   UNL     1       3.688  -6.555  27.100  0.00  0.00    -0.153 OA
ATOM     14  O   UNL     1       4.527  -5.340  29.166  0.00  0.00    -0.153 OA
BRANCH  12  15
ATOM     15  N   UNL     1       5.556  -7.534  28.491  0.00  0.00    -0.203 NA
ATOM     16  H   UNL     1       5.340  -7.786  29.452  0.00  0.00    +0.144 HD
ATOM     17  H   UNL     1       5.493  -8.288  27.812  0.00  0.00    +0.144 HD
ENDBRANCH  12  15
ENDBRANCH   4  12
BRANCH   1  18
ATOM     18  O   UNL     1       8.154  -4.880  23.264  0.00  0.00    -0.386 OA
ATOM     19  H   UNL     1       8.908  -4.982  22.657  0.00  0.00    +0.210 HD
ENDBRANCH   1  18
BRANCH  10  20
ATOM     20  C   UNL     1       8.060  -1.563  22.985  0.00  0.00    +0.151 C 
BRANCH  20  21
ATOM     21  C   UNL     1       8.547  -0.198  22.566  0.00  0.00    +0.005 A 
ATOM     22  S   UNL     1       7.460   1.125  22.504  0.00  0.00    -0.100 S 
ATOM     23  C   UNL     1       8.696   2.202  22.017  0.00  0.00    +0.045 A 
ATOM     24  C   UNL     1       9.916   1.574  21.904  0.00  0.00    +0.008 A 
ATOM     25  C   UNL     1       9.831   0.188  22.225  0.00  0.00    +0.012 A 
ENDBRANCH  20  21
ENDBRANCH  10  20
TORSDOF 5
ENDMDL
