MODEL 1
REMARK VINA RESULT:      -6.9      0.000      0.000
REMARK  Name = 
REMARK  4 active torsions:
REMARK  status: ('A' for Active; 'I' for Inactive)
REMARK    1  A    between atoms: N_1  and  C_2
REMARK    2  A    between atoms: C_5  and  N_6
REMARK    3  A    between atoms: C_12  and  O_13
REMARK    4  A    between atoms: C_16  and  O_17
REMARK                            x       y       z     vdW  Elec       q    Type
REMARK                         _______ _______ _______ _____ _____    ______ ____
ROOT
ATOM      1  C   UNL     1       6.301  -3.400  26.552  0.00  0.00    +0.036 A 
ATOM      2  C   UNL     1       7.150  -2.875  25.548  0.00  0.00    +0.056 A 
ATOM      3  C   UNL     1       6.756  -1.654  24.806  0.00  0.00    +0.200 C 
ATOM      4  C   UNL     1       7.634  -1.089  23.768  0.00  0.00    +0.078 A 
ATOM      5  C   UNL     1       8.839  -1.715  23.443  0.00  0.00    +0.078 A 
ATOM      6  C   UNL     1       9.245  -2.937  24.183  0.00  0.00    +0.200 C 
ATOM      7  O   UNL     1      10.349  -3.444  24.007  0.00  0.00    -0.286 OA
ATOM      8  C   UNL     1       9.639  -1.152  22.429  0.00  0.00    +0.129 A 
ATOM      9  C   UNL     1       9.250   0.016  21.765  0.00  0.00    +0.050 A 
ATOM     10  C   UNL     1       8.055   0.638  22.103  0.00  0.00    +0.050 A 
ATOM     11  C   UNL     1       7.252   0.087  23.095  0.00  0.00    +0.129 A 
ATOM     12  O   UNL     1       5.671  -1.108  25.010  0.00  0.00    -0.286 OA
ATOM     13  C   UNL     1       8.337  -3.534  25.203  0.00  0.00    +0.056 A 
ATOM     14  C   UNL     1       8.706  -4.721  25.881  0.00  0.00    +0.036 A 
ATOM     15  C   UNL     1       7.853  -5.236  26.862  0.00  0.00    +0.025 A 
ATOM     16  C   UNL     1       6.689  -4.562  27.221  0.00  0.00    +0.025 A 
ENDROOT
BRANCH   1  17
ATOM     17  N   UNL     1       5.199  -2.691  27.065  0.00  0.00    -0.357 N 
ATOM     18  H   UNL     1       4.338  -3.249  27.057  0.00  0.00    +0.142 HD
ATOM     19  H   UNL     1       5.360  -2.239  27.960  0.00  0.00    +0.142 HD
ENDBRANCH   1  17
BRANCH  14  20
ATOM     20  N   UNL     1       9.780  -5.530  25.467  0.00  0.00    -0.357 N 
ATOM     21  H   UNL     1      10.118  -5.259  24.532  0.00  0.00    +0.142 HD
ATOM     22  H   UNL     1      10.538  -5.609  26.136  0.00  0.00    +0.142 HD
ENDBRANCH  14  20
BRANCH   8  23
ATOM     23  O   UNL     1      10.816  -1.735  22.054  0.00  0.00    -0.506 OA
ATOM     24  H   UNL     1      10.665  -2.420  21.382  0.00  0.00    +0.292 HD
ENDBRANCH   8  23
BRANCH  11  25
ATOM     25  O   UNL     1       6.090   0.763  23.356  0.00  0.00    -0.506 OA
ATOM     26  H   UNL     1       5.546   0.211  23.963  0.00  0.00    +0.292 HD
ENDBRANCH  11  25
TORSDOF 4
ENDMDL
MODEL 2
REMARK VINA RESULT:      -6.9      0.076      3.492
REMARK  Name = 
REMARK  4 active torsions:
REMARK  status: ('A' for Active; 'I' for Inactive)
REMARK    1  A    between atoms: N_1  and  C_2
REMARK    2  A    between atoms: C_5  and  N_6
REMARK    3  A    between atoms: C_12  and  O_13
REMARK    4  A    between atoms: C_16  and  O_17
REMARK                            x       y       z     vdW  Elec       q    Type
REMARK                         _______ _______ _______ _____ _____    ______ ____
ROOT
ATOM      1  C   UNL     1       8.734  -4.646  25.912  0.00  0.00    +0.036 A 
ATOM      2  C   UNL     1       8.344  -3.470  25.226  0.00  0.00    +0.056 A 
ATOM      3  C   UNL     1       9.223  -2.893  24.183  0.00  0.00    +0.200 C 
ATOM      4  C   UNL     1       8.824  -1.678  23.452  0.00  0.00    +0.078 A 
ATOM      5  C   UNL     1       7.626  -1.031  23.755  0.00  0.00    +0.078 A 
ATOM      6  C   UNL     1       6.735  -1.604  24.798  0.00  0.00    +0.200 C 
ATOM      7  O   UNL     1       5.622  -1.130  25.006  0.00  0.00    -0.286 OA
ATOM      8  C   UNL     1       7.293   0.141  23.046  0.00  0.00    +0.129 A 
ATOM      9  C   UNL     1       8.133   0.645  22.048  0.00  0.00    +0.050 A 
ATOM     10  C   UNL     1       9.319  -0.012  21.746  0.00  0.00    +0.050 A 
ATOM     11  C   UNL     1       9.663  -1.163  22.445  0.00  0.00    +0.129 A 
ATOM     12  O   UNL     1      10.322  -3.389  23.929  0.00  0.00    -0.286 OA
ATOM     13  C   UNL     1       7.157  -2.808  25.567  0.00  0.00    +0.056 A 
ATOM     14  C   UNL     1       6.327  -3.331  26.588  0.00  0.00    +0.036 A 
ATOM     15  C   UNL     1       6.729  -4.486  27.265  0.00  0.00    +0.025 A 
ATOM     16  C   UNL     1       7.894  -5.156  26.904  0.00  0.00    +0.025 A 
ENDROOT
BRANCH   1  17
ATOM     17  N   UNL     1       9.810  -5.449  25.493  0.00  0.00    -0.357 N 
ATOM     18  H   UNL     1       9.666  -5.837  24.554  0.00  0.00    +0.142 HD
ATOM     19  H   UNL     1      10.727  -5.027  25.601  0.00  0.00    +0.142 HD
ENDBRANCH   1  17
BRANCH  14  20
ATOM     20  N   UNL     1       5.224  -2.627  27.106  0.00  0.00    -0.357 N 
ATOM     21  H   UNL     1       4.335  -3.091  26.869  0.00  0.00    +0.142 HD
ATOM     22  H   UNL     1       5.285  -2.404  28.093  0.00  0.00    +0.142 HD
ENDBRANCH  14  20
BRANCH   8  23
ATOM     23  O   UNL     1       6.143   0.827  23.318  0.00  0.00    -0.506 OA
ATOM     24  H   UNL     1       5.958   0.828  24.271  0.00  0.00    +0.292 HD
ENDBRANCH   8  23
BRANCH  11  25
ATOM     25  O   UNL     1      10.853  -1.738  22.085  0.00  0.00    -0.506 OA
ATOM     26  H   UNL     1      10.870  -1.813  21.104  0.00  0.00    +0.292 HD
ENDBRANCH  11  25
TORSDOF 4
ENDMDL
MODEL 3
REMARK VINA RESULT:      -6.4      3.636      6.150
REMARK  Name = 
REMARK  4 active torsions:
REMARK  status: ('A' for Active; 'I' for Inactive)
REMARK    1  A    between atoms: N_1  and  C_2
REMARK    2  A    between atoms: C_5  and  N_6
REMARK    3  A    between atoms: C_12  and  O_13
REMARK    4  A    between atoms: C_16  and  O_17
REMARK                            x       y       z     vdW  Elec       q    Type
REMARK                         _______ _______ _______ _____ _____    ______ ____
ROOT
ATOM      1  C   UNL     1       8.740  -4.324  25.514  0.00  0.00    +0.036 A 
ATOM      2  C   UNL     1       7.416  -4.644  25.128  0.00  0.00    +0.056 A 
ATOM      3  C   UNL     1       6.617  -5.593  25.938  0.00  0.00    +0.200 C 
ATOM      4  C   UNL     1       5.233  -5.926  25.557  0.00  0.00    +0.078 A 
ATOM      5  C   UNL     1       4.665  -5.378  24.406  0.00  0.00    +0.078 A 
ATOM      6  C   UNL     1       5.457  -4.423  23.589  0.00  0.00    +0.200 C 
ATOM      7  O   UNL     1       4.949  -3.832  22.641  0.00  0.00    -0.286 OA
ATOM      8  C   UNL     1       3.346  -5.740  24.067  0.00  0.00    +0.129 A 
ATOM      9  C   UNL     1       2.609  -6.619  24.867  0.00  0.00    +0.050 A 
ATOM     10  C   UNL     1       3.180  -7.151  26.017  0.00  0.00    +0.050 A 
ATOM     11  C   UNL     1       4.483  -6.810  26.356  0.00  0.00    +0.129 A 
ATOM     12  O   UNL     1       7.100  -6.155  26.922  0.00  0.00    -0.286 OA
ATOM     13  C   UNL     1       6.871  -4.118  23.950  0.00  0.00    +0.056 A 
ATOM     14  C   UNL     1       7.639  -3.239  23.149  0.00  0.00    +0.036 A 
ATOM     15  C   UNL     1       8.949  -2.939  23.534  0.00  0.00    +0.025 A 
ATOM     16  C   UNL     1       9.477  -3.441  24.720  0.00  0.00    +0.025 A 
ENDROOT
BRANCH   1  17
ATOM     17  N   UNL     1       9.273  -4.670  26.768  0.00  0.00    -0.357 N 
ATOM     18  H   UNL     1       9.187  -5.674  26.965  0.00  0.00    +0.142 HD
ATOM     19  H   UNL     1      10.208  -4.319  26.948  0.00  0.00    +0.142 HD
ENDBRANCH   1  17
BRANCH  14  20
ATOM     20  N   UNL     1       7.228  -2.821  21.869  0.00  0.00    -0.357 N 
ATOM     21  H   UNL     1       8.034  -2.654  21.251  0.00  0.00    +0.142 HD
ATOM     22  H   UNL     1       6.529  -3.412  21.432  0.00  0.00    +0.142 HD
ENDBRANCH  14  20
BRANCH   8  23
ATOM     23  O   UNL     1       2.748  -5.252  22.940  0.00  0.00    -0.506 OA
ATOM     24  H   UNL     1       3.334  -4.630  22.479  0.00  0.00    +0.292 HD
ENDBRANCH   8  23
BRANCH  11  25
ATOM     25  O   UNL     1       4.965  -7.387  27.501  0.00  0.00    -0.506 OA
ATOM     26  H   UNL     1       5.459  -8.200  27.248  0.00  0.00    +0.292 HD
ENDBRANCH  11  25
TORSDOF 4
ENDMDL
MODEL 4
REMARK VINA RESULT:      -6.4      3.631      5.809
REMARK  Name = 
REMARK  4 active torsions:
REMARK  status: ('A' for Active; 'I' for Inactive)
REMARK    1  A    between atoms: N_1  and  C_2
REMARK    2  A    between atoms: C_5  and  N_6
REMARK    3  A    between atoms: C_12  and  O_13
REMARK    4  A    between atoms: C_16  and  O_17
REMARK                            x       y       z     vdW  Elec       q    Type
REMARK                         _______ _______ _______ _____ _____    ______ ____
ROOT
ATOM      1  C   UNL     1       7.590  -3.158  23.154  0.00  0.00    +0.036 A 
ATOM      2  C   UNL     1       6.853  -4.063  23.955  0.00  0.00    +0.056 A 
ATOM      3  C   UNL     1       5.457  -4.405  23.596  0.00  0.00    +0.200 C 
ATOM      4  C   UNL     1       4.682  -5.355  24.411  0.00  0.00    +0.078 A 
ATOM      5  C   UNL     1       5.240  -5.924  25.557  0.00  0.00    +0.078 A 
ATOM      6  C   UNL     1       6.641  -5.592  25.924  0.00  0.00    +0.200 C 
ATOM      7  O   UNL     1       7.202  -6.164  26.853  0.00  0.00    -0.286 OA
ATOM      8  C   UNL     1       4.456  -6.813  26.320  0.00  0.00    +0.129 A 
ATOM      9  C   UNL     1       3.149  -7.134  25.939  0.00  0.00    +0.050 A 
ATOM     10  C   UNL     1       2.606  -6.570  24.792  0.00  0.00    +0.050 A 
ATOM     11  C   UNL     1       3.365  -5.685  24.036  0.00  0.00    +0.129 A 
ATOM     12  O   UNL     1       4.898  -3.874  22.634  0.00  0.00    -0.286 OA
ATOM     13  C   UNL     1       7.411  -4.598  25.123  0.00  0.00    +0.056 A 
ATOM     14  C   UNL     1       8.733  -4.251  25.496  0.00  0.00    +0.036 A 
ATOM     15  C   UNL     1       9.446  -3.346  24.703  0.00  0.00    +0.025 A 
ATOM     16  C   UNL     1       8.898  -2.840  23.528  0.00  0.00    +0.025 A 
ENDROOT
BRANCH   1  17
ATOM     17  N   UNL     1       7.156  -2.736  21.885  0.00  0.00    -0.357 N 
ATOM     18  H   UNL     1       7.739  -1.983  21.503  0.00  0.00    +0.142 HD
ATOM     19  H   UNL     1       7.001  -3.483  21.216  0.00  0.00    +0.142 HD
ENDBRANCH   1  17
BRANCH  14  20
ATOM     20  N   UNL     1       9.288  -4.600  26.741  0.00  0.00    -0.357 N 
ATOM     21  H   UNL     1       9.484  -5.610  26.796  0.00  0.00    +0.142 HD
ATOM     22  H   UNL     1      10.086  -4.042  27.024  0.00  0.00    +0.142 HD
ENDBRANCH  14  20
BRANCH   8  23
ATOM     23  O   UNL     1       4.944  -7.381  27.462  0.00  0.00    -0.506 OA
ATOM     24  H   UNL     1       4.830  -6.786  28.221  0.00  0.00    +0.292 HD
ENDBRANCH   8  23
BRANCH  11  25
ATOM     25  O   UNL     1       2.746  -5.174  22.927  0.00  0.00    -0.506 OA
ATOM     26  H   UNL     1       3.442  -4.868  22.302  0.00  0.00    +0.292 HD
ENDBRANCH  11  25
TORSDOF 4
ENDMDL
MODEL 5
REMARK VINA RESULT:      -6.3      3.256      4.453
REMARK  Name = 
REMARK  4 active torsions:
REMARK  status: ('A' for Active; 'I' for Inactive)
REMARK    1  A    between atoms: N_1  and  C_2
REMARK    2  A    between atoms: C_5  and  N_6
REMARK    3  A    between atoms: C_12  and  O_13
REMARK    4  A    between atoms: C_16  and  O_17
REMARK                            x       y       z     vdW  Elec       q    Type
REMARK                         _______ _______ _______ _____ _____    ______ ____
ROOT
ATOM      1  C   UNL     1       3.455  -5.818  24.769  0.00  0.00    +0.036 A 
ATOM      2  C   UNL     1       4.799  -5.484  25.064  0.00  0.00    +0.056 A 
ATOM      3  C   UNL     1       5.593  -4.681  24.105  0.00  0.00    +0.200 C 
ATOM      4  C   UNL     1       6.988  -4.315  24.404  0.00  0.00    +0.078 A 
ATOM      5  C   UNL     1       7.596  -4.749  25.583  0.00  0.00    +0.078 A 
ATOM      6  C   UNL     1       6.807  -5.551  26.554  0.00  0.00    +0.200 C 
ATOM      7  O   UNL     1       7.271  -5.846  27.651  0.00  0.00    -0.286 OA
ATOM      8  C   UNL     1       8.938  -4.393  25.820  0.00  0.00    +0.129 A 
ATOM      9  C   UNL     1       9.652  -3.612  24.905  0.00  0.00    +0.050 A 
ATOM     10  C   UNL     1       9.035  -3.177  23.739  0.00  0.00    +0.050 A 
ATOM     11  C   UNL     1       7.714  -3.529  23.489  0.00  0.00    +0.129 A 
ATOM     12  O   UNL     1       5.121  -4.336  23.020  0.00  0.00    -0.286 OA
ATOM     13  C   UNL     1       5.410  -5.957  26.232  0.00  0.00    +0.056 A 
ATOM     14  C   UNL     1       4.672  -6.756  27.139  0.00  0.00    +0.036 A 
ATOM     15  C   UNL     1       3.350  -7.088  26.831  0.00  0.00    +0.025 A 
ATOM     16  C   UNL     1       2.738  -6.592  25.683  0.00  0.00    +0.025 A 
ENDROOT
BRANCH   1  17
ATOM     17  N   UNL     1       2.738  -5.226  23.714  0.00  0.00    -0.357 N 
ATOM     18  H   UNL     1       2.968  -4.232  23.595  0.00  0.00    +0.142 HD
ATOM     19  H   UNL     1       2.766  -5.737  22.837  0.00  0.00    +0.142 HD
ENDBRANCH   1  17
BRANCH  14  20
ATOM     20  N   UNL     1       5.268  -7.414  28.232  0.00  0.00    -0.357 N 
ATOM     21  H   UNL     1       5.058  -6.936  29.120  0.00  0.00    +0.142 HD
ATOM     22  H   UNL     1       5.082  -8.410  28.283  0.00  0.00    +0.142 HD
ENDBRANCH  14  20
BRANCH   8  23
ATOM     23  O   UNL     1       9.590  -4.809  26.947  0.00  0.00    -0.506 OA
ATOM     24  H   UNL     1      10.270  -4.167  27.209  0.00  0.00    +0.292 HD
ENDBRANCH   8  23
BRANCH  11  25
ATOM     25  O   UNL     1       7.191  -3.061  22.313  0.00  0.00    -0.506 OA
ATOM     26  H   UNL     1       6.226  -2.918  22.443  0.00  0.00    +0.292 HD
ENDBRANCH  11  25
TORSDOF 4
ENDMDL
MODEL 6
REMARK VINA RESULT:      -6.3      3.310      4.885
REMARK  Name = 
REMARK  4 active torsions:
REMARK  status: ('A' for Active; 'I' for Inactive)
REMARK    1  A    between atoms: N_1  and  C_2
REMARK    2  A    between atoms: C_5  and  N_6
REMARK    3  A    between atoms: C_12  and  O_13
REMARK    4  A    between atoms: C_16  and  O_17
REMARK                            x       y       z     vdW  Elec       q    Type
REMARK                         _______ _______ _______ _____ _____    ______ ____
ROOT
ATOM      1  C   UNL     1       4.572  -6.739  26.963  0.00  0.00    +0.036 A 
ATOM      2  C   UNL     1       5.324  -5.944  26.065  0.00  0.00    +0.056 A 
ATOM      3  C   UNL     1       6.717  -5.565  26.396  0.00  0.00    +0.200 C 
ATOM      4  C   UNL     1       7.516  -4.749  25.467  0.00  0.00    +0.078 A 
ATOM      5  C   UNL     1       6.961  -4.290  24.272  0.00  0.00    +0.078 A 
ATOM      6  C   UNL     1       5.565  -4.667  23.928  0.00  0.00    +0.200 C 
ATOM      7  O   UNL     1       5.086  -4.382  22.834  0.00  0.00    -0.286 OA
ATOM      8  C   UNL     1       7.753  -3.494  23.421  0.00  0.00    +0.129 A 
ATOM      9  C   UNL     1       9.075  -3.177  23.751  0.00  0.00    +0.050 A 
ATOM     10  C   UNL     1       9.622  -3.647  24.939  0.00  0.00    +0.050 A 
ATOM     11  C   UNL     1       8.847  -4.424  25.791  0.00  0.00    +0.129 A 
ATOM     12  O   UNL     1       7.226  -5.888  27.471  0.00  0.00    -0.286 OA
ATOM     13  C   UNL     1       4.742  -5.457  24.887  0.00  0.00    +0.056 A 
ATOM     14  C   UNL     1       3.400  -5.782  24.577  0.00  0.00    +0.036 A 
ATOM     15  C   UNL     1       2.664  -6.559  25.478  0.00  0.00    +0.025 A 
ATOM     16  C   UNL     1       3.254  -7.064  26.632  0.00  0.00    +0.025 A 
ENDROOT
BRANCH   1  17
ATOM     17  N   UNL     1       5.151  -7.404  28.059  0.00  0.00    -0.357 N 
ATOM     18  H   UNL     1       4.567  -8.176  28.400  0.00  0.00    +0.142 HD
ATOM     19  H   UNL     1       6.119  -7.679  27.930  0.00  0.00    +0.142 HD
ENDBRANCH   1  17
BRANCH  14  20
ATOM     20  N   UNL     1       2.698  -5.183  23.514  0.00  0.00    -0.357 N 
ATOM     21  H   UNL     1       2.056  -4.451  23.851  0.00  0.00    +0.142 HD
ATOM     22  H   UNL     1       3.279  -4.857  22.750  0.00  0.00    +0.142 HD
ENDBRANCH  14  20
BRANCH   8  23
ATOM     23  O   UNL     1       7.254  -2.999  22.250  0.00  0.00    -0.506 OA
ATOM     24  H   UNL     1       6.604  -2.298  22.420  0.00  0.00    +0.292 HD
ENDBRANCH   8  23
BRANCH  11  25
ATOM     25  O   UNL     1       9.467  -4.837  26.940  0.00  0.00    -0.506 OA
ATOM     26  H   UNL     1       8.842  -5.416  27.433  0.00  0.00    +0.292 HD
ENDBRANCH  11  25
TORSDOF 4
ENDMDL
MODEL 7
REMARK VINA RESULT:      -6.3      1.979      5.897
REMARK  Name = 
REMARK  4 active torsions:
REMARK  status: ('A' for Active; 'I' for Inactive)
REMARK    1  A    between atoms: N_1  and  C_2
REMARK    2  A    between atoms: C_5  and  N_6
REMARK    3  A    between atoms: C_12  and  O_13
REMARK    4  A    between atoms: C_16  and  O_17
REMARK                            x       y       z     vdW  Elec       q    Type
REMARK                         _______ _______ _______ _____ _____    ______ ____
ROOT
ATOM      1  C   UNL     1       9.298  -0.519  22.269  0.00  0.00    +0.036 A 
ATOM      2  C   UNL     1       8.664  -1.191  23.341  0.00  0.00    +0.056 A 
ATOM      3  C   UNL     1       9.195  -2.488  23.822  0.00  0.00    +0.200 C 
ATOM      4  C   UNL     1       8.555  -3.193  24.945  0.00  0.00    +0.078 A 
ATOM      5  C   UNL     1       7.415  -2.666  25.554  0.00  0.00    +0.078 A 
ATOM      6  C   UNL     1       6.876  -1.364  25.082  0.00  0.00    +0.200 C 
ATOM      7  O   UNL     1       5.950  -0.814  25.670  0.00  0.00    -0.286 OA
ATOM      8  C   UNL     1       6.822  -3.383  26.611  0.00  0.00    +0.129 A 
ATOM      9  C   UNL     1       7.364  -4.593  27.059  0.00  0.00    +0.050 A 
ATOM     10  C   UNL     1       8.505  -5.104  26.453  0.00  0.00    +0.050 A 
ATOM     11  C   UNL     1       9.094  -4.411  25.402  0.00  0.00    +0.129 A 
ATOM     12  O   UNL     1      10.157  -3.026  23.271  0.00  0.00    -0.286 OA
ATOM     13  C   UNL     1       7.498  -0.671  23.918  0.00  0.00    +0.056 A 
ATOM     14  C   UNL     1       6.961   0.549  23.442  0.00  0.00    +0.036 A 
ATOM     15  C   UNL     1       7.589   1.198  22.375  0.00  0.00    +0.025 A 
ATOM     16  C   UNL     1       8.763   0.693  21.824  0.00  0.00    +0.025 A 
ENDROOT
BRANCH   1  17
ATOM     17  N   UNL     1      10.562  -0.891  21.776  0.00  0.00    -0.357 N 
ATOM     18  H   UNL     1      10.729  -0.542  20.826  0.00  0.00    +0.142 HD
ATOM     19  H   UNL     1      11.338  -0.700  22.402  0.00  0.00    +0.142 HD
ENDBRANCH   1  17
BRANCH  14  20
ATOM     20  N   UNL     1       5.702   1.034  23.845  0.00  0.00    -0.357 N 
ATOM     21  H   UNL     1       5.217   0.361  24.456  0.00  0.00    +0.142 HD
ATOM     22  H   UNL     1       5.710   1.968  24.239  0.00  0.00    +0.142 HD
ENDBRANCH  14  20
BRANCH   8  23
ATOM     23  O   UNL     1       5.692  -2.926  27.228  0.00  0.00    -0.506 OA
ATOM     24  H   UNL     1       4.937  -2.935  26.618  0.00  0.00    +0.292 HD
ENDBRANCH   8  23
BRANCH  11  25
ATOM     25  O   UNL     1      10.209  -4.993  24.863  0.00  0.00    -0.506 OA
ATOM     26  H   UNL     1      10.806  -5.252  25.602  0.00  0.00    +0.292 HD
ENDBRANCH  11  25
TORSDOF 4
ENDMDL
MODEL 8
REMARK VINA RESULT:      -6.2      2.989      4.819
REMARK  Name = 
REMARK  4 active torsions:
REMARK  status: ('A' for Active; 'I' for Inactive)
REMARK    1  A    between atoms: N_1  and  C_2
REMARK    2  A    between atoms: C_5  and  N_6
REMARK    3  A    between atoms: C_12  and  O_13
REMARK    4  A    between atoms: C_16  and  O_17
REMARK                            x       y       z     vdW  Elec       q    Type
REMARK                         _______ _______ _______ _____ _____    ______ ____
ROOT
ATOM      1  C   UNL     1       9.317  -0.697  25.682  0.00  0.00    +0.036 A 
ATOM      2  C   UNL     1       8.631  -1.697  24.952  0.00  0.00    +0.056 A 
ATOM      3  C   UNL     1       7.801  -2.697  25.662  0.00  0.00    +0.200 C 
ATOM      4  C   UNL     1       7.071  -3.735  24.915  0.00  0.00    +0.078 A 
ATOM      5  C   UNL     1       7.178  -3.814  23.525  0.00  0.00    +0.078 A 
ATOM      6  C   UNL     1       8.005  -2.813  22.803  0.00  0.00    +0.200 C 
ATOM      7  O   UNL     1       8.025  -2.779  21.576  0.00  0.00    -0.286 OA
ATOM      8  C   UNL     1       6.480  -4.836  22.851  0.00  0.00    +0.129 A 
ATOM      9  C   UNL     1       5.683  -5.749  23.550  0.00  0.00    +0.050 A 
ATOM     10  C   UNL     1       5.575  -5.657  24.932  0.00  0.00    +0.050 A 
ATOM     11  C   UNL     1       6.267  -4.659  25.609  0.00  0.00    +0.129 A 
ATOM     12  O   UNL     1       7.733  -2.711  26.892  0.00  0.00    -0.286 OA
ATOM     13  C   UNL     1       8.777  -1.789  23.562  0.00  0.00    +0.056 A 
ATOM     14  C   UNL     1       9.597  -0.860  22.876  0.00  0.00    +0.036 A 
ATOM     15  C   UNL     1      10.279   0.115  23.610  0.00  0.00    +0.025 A 
ATOM     16  C   UNL     1      10.108   0.221  24.987  0.00  0.00    +0.025 A 
ENDROOT
BRANCH   1  17
ATOM     17  N   UNL     1       9.067  -0.442  27.043  0.00  0.00    -0.357 N 
ATOM     18  H   UNL     1       9.931  -0.363  27.590  0.00  0.00    +0.142 HD
ATOM     19  H   UNL     1       8.424   0.323  27.224  0.00  0.00    +0.142 HD
ENDBRANCH   1  17
BRANCH  14  20
ATOM     20  N   UNL     1       9.935  -1.002  21.517  0.00  0.00    -0.357 N 
ATOM     21  H   UNL     1       9.156  -0.720  20.904  0.00  0.00    +0.142 HD
ATOM     22  H   UNL     1      10.809  -0.565  21.246  0.00  0.00    +0.142 HD
ENDBRANCH  14  20
BRANCH   8  23
ATOM     23  O   UNL     1       6.566  -4.974  21.495  0.00  0.00    -0.506 OA
ATOM     24  H   UNL     1       5.752  -4.665  21.064  0.00  0.00    +0.292 HD
ENDBRANCH   8  23
BRANCH  11  25
ATOM     25  O   UNL     1       6.106  -4.649  26.969  0.00  0.00    -0.506 OA
ATOM     26  H   UNL     1       6.962  -4.909  27.379  0.00  0.00    +0.292 HD
ENDBRANCH  11  25
TORSDOF 4
ENDMDL
MODEL 9
REMARK VINA RESULT:      -6.2      3.011      5.226
REMARK  Name = 
REMARK  4 active torsions:
REMARK  status: ('A' for Active; 'I' for Inactive)
REMARK    1  A    between atoms: N_1  and  C_2
REMARK    2  A    between atoms: C_5  and  N_6
REMARK    3  A    between atoms: C_12  and  O_13
REMARK    4  A    between atoms: C_16  and  O_17
REMARK                            x       y       z     vdW  Elec       q    Type
REMARK                         _______ _______ _______ _____ _____    ______ ____
ROOT
ATOM      1  C   UNL     1       9.545  -0.862  22.857  0.00  0.00    +0.036 A 
ATOM      2  C   UNL     1       8.742  -1.791  23.560  0.00  0.00    +0.056 A 
ATOM      3  C   UNL     1       7.979  -2.823  22.820  0.00  0.00    +0.200 C 
ATOM      4  C   UNL     1       7.150  -3.805  23.539  0.00  0.00    +0.078 A 
ATOM      5  C   UNL     1       7.043  -3.758  24.930  0.00  0.00    +0.078 A 
ATOM      6  C   UNL     1       7.808  -2.730  25.682  0.00  0.00    +0.200 C 
ATOM      7  O   UNL     1       7.833  -2.735  26.909  0.00  0.00    -0.286 OA
ATOM      8  C   UNL     1       6.223  -4.704  25.576  0.00  0.00    +0.129 A 
ATOM      9  C   UNL     1       5.535  -5.682  24.850  0.00  0.00    +0.050 A 
ATOM     10  C   UNL     1       5.655  -5.727  23.466  0.00  0.00    +0.050 A 
ATOM     11  C   UNL     1       6.454  -4.793  22.816  0.00  0.00    +0.129 A 
ATOM     12  O   UNL     1       7.986  -2.859  21.589  0.00  0.00    -0.286 OA
ATOM     13  C   UNL     1       8.613  -1.710  24.953  0.00  0.00    +0.056 A 
ATOM     14  C   UNL     1       9.310  -0.705  25.668  0.00  0.00    +0.036 A 
ATOM     15  C   UNL     1      10.090   0.214  24.960  0.00  0.00    +0.025 A 
ATOM     16  C   UNL     1      10.238   0.111  23.580  0.00  0.00    +0.025 A 
ENDROOT
BRANCH   1  17
ATOM     17  N   UNL     1       9.857  -1.005  21.493  0.00  0.00    -0.357 N 
ATOM     18  H   UNL     1       9.592  -1.926  21.126  0.00  0.00    +0.142 HD
ATOM     19  H   UNL     1       9.540  -0.245  20.899  0.00  0.00    +0.142 HD
ENDBRANCH   1  17
BRANCH  14  20
ATOM     20  N   UNL     1       9.085  -0.450  27.033  0.00  0.00    -0.357 N 
ATOM     21  H   UNL     1       9.811   0.167  27.426  0.00  0.00    +0.142 HD
ATOM     22  H   UNL     1       8.150  -0.128  27.259  0.00  0.00    +0.142 HD
ENDBRANCH  14  20
BRANCH   8  23
ATOM     23  O   UNL     1       6.064  -4.691  26.933  0.00  0.00    -0.506 OA
ATOM     24  H   UNL     1       5.136  -4.532  27.171  0.00  0.00    +0.292 HD
ENDBRANCH   8  23
BRANCH  11  25
ATOM     25  O   UNL     1       6.507  -4.910  21.453  0.00  0.00    -0.506 OA
ATOM     26  H   UNL     1       6.841  -4.059  21.087  0.00  0.00    +0.292 HD
ENDBRANCH  11  25
TORSDOF 4
ENDMDL
