MODEL 1
REMARK VINA RESULT:      -5.0      0.000      0.000
REMARK  Name = 
REMARK  20 active torsions:
REMARK  status: ('A' for Active; 'I' for Inactive)
REMARK    1  A    between atoms: C_1  and  C_2
REMARK    2  A    between atoms: C_2  and  C_3
REMARK    3  A    between atoms: C_2  and  C_4
REMARK    4  A    between atoms: C_4  and  C_5
REMARK    5  A    between atoms: C_5  and  C_6
REMARK    6  A    between atoms: C_6  and  C_7
REMARK    7  A    between atoms: C_7  and  C_9
REMARK    8  A    between atoms: C_7  and  C_10
REMARK    9  A    between atoms: C_10  and  C_11
REMARK   10  A    between atoms: C_11  and  C_12
REMARK   11  A    between atoms: C_12  and  C_13
REMARK   12  A    between atoms: C_13  and  C_15
REMARK   13  A    between atoms: C_13  and  C_16
REMARK   14  A    between atoms: C_16  and  C_17
REMARK   15  A    between atoms: C_17  and  C_18
REMARK   16  A    between atoms: C_18  and  C_19
REMARK   17  A    between atoms: C_19  and  C_21
REMARK   18  A    between atoms: C_19  and  C_22
REMARK   19  A    between atoms: C_22  and  C_23
REMARK   20  A    between atoms: C_23  and  O_24
REMARK                            x       y       z     vdW  Elec       q    Type
REMARK                         _______ _______ _______ _____ _____    ______ ____
ROOT
ATOM      1  C   UNL     1       7.641  -1.221  23.273  0.00  0.00    +0.003 C 
ENDROOT
BRANCH   1   2
ATOM      2  C   UNL     1       8.854  -1.725  22.455  0.00  0.00    -0.014 C 
ATOM      3  C   UNL     1       9.991  -2.192  23.374  0.00  0.00    +0.007 C 
BRANCH   2   4
ATOM      4  C   UNL     1       9.336  -0.641  21.466  0.00  0.00    +0.003 C 
BRANCH   4   5
ATOM      5  C   UNL     1       8.966   0.799  21.862  0.00  0.00    +0.001 C 
BRANCH   5   6
ATOM      6  C   UNL     1      10.186   1.711  22.051  0.00  0.00    +0.003 C 
BRANCH   6   7
ATOM      7  C   UNL     1      10.375   2.242  23.490  0.00  0.00    -0.012 C 
ATOM      8  C   UNL     1      10.848   1.080  24.375  0.00  0.00    +0.007 C 
BRANCH   7   9
ATOM      9  C   UNL     1       9.081   2.872  24.043  0.00  0.00    +0.031 C 
BRANCH   9  10
ATOM     10  C   UNL     1       9.030   4.392  23.923  0.00  0.00    +0.156 C 
BRANCH  10  11
ATOM     11  O   UNL     1       8.359   4.752  22.720  0.00  0.00    -0.395 OA
ATOM     12  H   UNL     1       7.513   5.163  22.967  0.00  0.00    +0.209 HD
ENDBRANCH  10  11
ENDBRANCH   9  10
ENDBRANCH   7   9
ENDBRANCH   6   7
ENDBRANCH   5   6
ENDBRANCH   4   5
ENDBRANCH   2   4
ENDBRANCH   1   2
BRANCH   1  13
ATOM     13  C   UNL     1       6.403  -2.082  23.001  0.00  0.00    +0.001 C 
BRANCH  13  14
ATOM     14  C   UNL     1       6.609  -3.118  21.906  0.00  0.00    +0.003 C 
BRANCH  14  15
ATOM     15  C   UNL     1       5.963  -4.482  22.260  0.00  0.00    -0.014 C 
ATOM     16  C   UNL     1       6.215  -5.536  21.175  0.00  0.00    +0.007 C 
BRANCH  15  17
ATOM     17  C   UNL     1       6.455  -5.038  23.616  0.00  0.00    +0.003 C 
BRANCH  17  18
ATOM     18  C   UNL     1       7.955  -5.328  23.618  0.00  0.00    +0.001 C 
BRANCH  18  19
ATOM     19  C   UNL     1       8.593  -5.173  24.998  0.00  0.00    +0.003 C 
BRANCH  19  21
ATOM     20  C   UNL     1       7.375  -5.314  27.197  0.00  0.00    +0.007 C 
ATOM     21  C   UNL     1       7.665  -4.431  25.983  0.00  0.00    -0.017 C 
ATOM     22  C   UNL     1       8.244  -3.093  26.451  0.00  0.00    +0.007 C 
ENDBRANCH  19  21
ENDBRANCH  18  19
ENDBRANCH  17  18
ENDBRANCH  15  17
ENDBRANCH  14  15
ENDBRANCH  13  14
ENDBRANCH   1  13
TORSDOF 15
ENDMDL
MODEL 2
REMARK VINA RESULT:      -4.9      2.544      6.829
REMARK  Name = 
REMARK  20 active torsions:
REMARK  status: ('A' for Active; 'I' for Inactive)
REMARK    1  A    between atoms: C_1  and  C_2
REMARK    2  A    between atoms: C_2  and  C_3
REMARK    3  A    between atoms: C_2  and  C_4
REMARK    4  A    between atoms: C_4  and  C_5
REMARK    5  A    between atoms: C_5  and  C_6
REMARK    6  A    between atoms: C_6  and  C_7
REMARK    7  A    between atoms: C_7  and  C_9
REMARK    8  A    between atoms: C_7  and  C_10
REMARK    9  A    between atoms: C_10  and  C_11
REMARK   10  A    between atoms: C_11  and  C_12
REMARK   11  A    between atoms: C_12  and  C_13
REMARK   12  A    between atoms: C_13  and  C_15
REMARK   13  A    between atoms: C_13  and  C_16
REMARK   14  A    between atoms: C_16  and  C_17
REMARK   15  A    between atoms: C_17  and  C_18
REMARK   16  A    between atoms: C_18  and  C_19
REMARK   17  A    between atoms: C_19  and  C_21
REMARK   18  A    between atoms: C_19  and  C_22
REMARK   19  A    between atoms: C_22  and  C_23
REMARK   20  A    between atoms: C_23  and  O_24
REMARK                            x       y       z     vdW  Elec       q    Type
REMARK                         _______ _______ _______ _____ _____    ______ ____
ROOT
ATOM      1  C   UNL     1       6.048  -3.447  21.952  0.00  0.00    +0.003 C 
ENDROOT
BRANCH   1   2
ATOM      2  C   UNL     1       6.528  -4.740  22.653  0.00  0.00    -0.014 C 
ATOM      3  C   UNL     1       7.068  -5.757  21.639  0.00  0.00    +0.007 C 
BRANCH   2   4
ATOM      4  C   UNL     1       5.400  -5.347  23.516  0.00  0.00    +0.003 C 
BRANCH   4   5
ATOM      5  C   UNL     1       5.349  -4.826  24.962  0.00  0.00    +0.001 C 
BRANCH   5   6
ATOM      6  C   UNL     1       6.443  -5.418  25.862  0.00  0.00    +0.003 C 
BRANCH   6   7
ATOM      7  C   UNL     1       7.232  -4.376  26.687  0.00  0.00    -0.012 C 
ATOM      8  C   UNL     1       6.492  -3.033  26.601  0.00  0.00    +0.007 C 
BRANCH   7   9
ATOM      9  C   UNL     1       8.687  -4.241  26.199  0.00  0.00    +0.031 C 
BRANCH   9  10
ATOM     10  C   UNL     1       9.173  -5.418  25.359  0.00  0.00    +0.156 C 
BRANCH  10  11
ATOM     11  O   UNL     1      10.563  -5.270  25.090  0.00  0.00    -0.395 OA
ATOM     12  H   UNL     1      10.860  -4.451  25.523  0.00  0.00    +0.209 HD
ENDBRANCH  10  11
ENDBRANCH   9  10
ENDBRANCH   7   9
ENDBRANCH   6   7
ENDBRANCH   5   6
ENDBRANCH   4   5
ENDBRANCH   2   4
ENDBRANCH   1   2
BRANCH   1  13
ATOM     13  C   UNL     1       6.567  -2.204  22.682  0.00  0.00    +0.001 C 
BRANCH  13  14
ATOM     14  C   UNL     1       8.002  -2.337  23.168  0.00  0.00    +0.003 C 
BRANCH  14  15
ATOM     15  C   UNL     1       8.742  -0.975  23.193  0.00  0.00    -0.014 C 
ATOM     16  C   UNL     1       9.881  -0.958  24.220  0.00  0.00    +0.007 C 
BRANCH  15  17
ATOM     17  C   UNL     1       9.312  -0.583  21.811  0.00  0.00    +0.003 C 
BRANCH  17  18
ATOM     18  C   UNL     1       9.800   0.864  21.770  0.00  0.00    +0.001 C 
BRANCH  18  19
ATOM     19  C   UNL     1       8.715   1.872  22.148  0.00  0.00    +0.003 C 
BRANCH  19  21
ATOM     20  C   UNL     1       8.535   2.516  24.575  0.00  0.00    +0.007 C 
ATOM     21  C   UNL     1       9.193   2.854  23.238  0.00  0.00    -0.017 C 
ATOM     22  C   UNL     1      10.715   2.861  23.404  0.00  0.00    +0.007 C 
ENDBRANCH  19  21
ENDBRANCH  18  19
ENDBRANCH  17  18
ENDBRANCH  15  17
ENDBRANCH  14  15
ENDBRANCH  13  14
ENDBRANCH   1  13
TORSDOF 15
ENDMDL
MODEL 3
REMARK VINA RESULT:      -4.7      2.737      6.705
REMARK  Name = 
REMARK  20 active torsions:
REMARK  status: ('A' for Active; 'I' for Inactive)
REMARK    1  A    between atoms: C_1  and  C_2
REMARK    2  A    between atoms: C_2  and  C_3
REMARK    3  A    between atoms: C_2  and  C_4
REMARK    4  A    between atoms: C_4  and  C_5
REMARK    5  A    between atoms: C_5  and  C_6
REMARK    6  A    between atoms: C_6  and  C_7
REMARK    7  A    between atoms: C_7  and  C_9
REMARK    8  A    between atoms: C_7  and  C_10
REMARK    9  A    between atoms: C_10  and  C_11
REMARK   10  A    between atoms: C_11  and  C_12
REMARK   11  A    between atoms: C_12  and  C_13
REMARK   12  A    between atoms: C_13  and  C_15
REMARK   13  A    between atoms: C_13  and  C_16
REMARK   14  A    between atoms: C_16  and  C_17
REMARK   15  A    between atoms: C_17  and  C_18
REMARK   16  A    between atoms: C_18  and  C_19
REMARK   17  A    between atoms: C_19  and  C_21
REMARK   18  A    between atoms: C_19  and  C_22
REMARK   19  A    between atoms: C_22  and  C_23
REMARK   20  A    between atoms: C_23  and  O_24
REMARK                            x       y       z     vdW  Elec       q    Type
REMARK                         _______ _______ _______ _____ _____    ______ ____
ROOT
ATOM      1  C   UNL     1       6.763  -0.372  22.799  0.00  0.00    +0.003 C 
ENDROOT
BRANCH   1   2
ATOM      2  C   UNL     1       7.149  -1.863  22.942  0.00  0.00    -0.014 C 
ATOM      3  C   UNL     1       8.575  -2.122  22.438  0.00  0.00    +0.007 C 
BRANCH   2   4
ATOM      4  C   UNL     1       6.123  -2.766  22.223  0.00  0.00    +0.003 C 
BRANCH   4   5
ATOM      5  C   UNL     1       5.999  -4.185  22.804  0.00  0.00    +0.001 C 
BRANCH   5   6
ATOM      6  C   UNL     1       5.636  -4.202  24.296  0.00  0.00    +0.003 C 
BRANCH   6   7
ATOM      7  C   UNL     1       6.537  -5.106  25.166  0.00  0.00    -0.012 C 
ATOM      8  C   UNL     1       6.380  -4.676  26.632  0.00  0.00    +0.007 C 
BRANCH   7   9
ATOM      9  C   UNL     1       8.012  -5.043  24.724  0.00  0.00    +0.031 C 
BRANCH   9  10
ATOM     10  C   UNL     1       9.009  -5.346  25.839  0.00  0.00    +0.156 C 
BRANCH  10  11
ATOM     11  O   UNL     1      10.294  -5.585  25.276  0.00  0.00    -0.395 OA
ATOM     12  H   UNL     1      10.296  -5.212  24.377  0.00  0.00    +0.209 HD
ENDBRANCH  10  11
ENDBRANCH   9  10
ENDBRANCH   7   9
ENDBRANCH   6   7
ENDBRANCH   5   6
ENDBRANCH   4   5
ENDBRANCH   2   4
ENDBRANCH   1   2
BRANCH   1  13
ATOM     13  C   UNL     1       6.377   0.226  24.156  0.00  0.00    +0.001 C 
BRANCH  13  14
ATOM     14  C   UNL     1       6.514  -0.752  25.314  0.00  0.00    +0.003 C 
BRANCH  14  15
ATOM     15  C   UNL     1       7.765  -0.461  26.181  0.00  0.00    -0.014 C 
ATOM     16  C   UNL     1       8.563  -1.735  26.485  0.00  0.00    +0.007 C 
BRANCH  15  17
ATOM     17  C   UNL     1       8.711   0.575  25.531  0.00  0.00    +0.003 C 
BRANCH  17  18
ATOM     18  C   UNL     1      10.068  -0.023  25.167  0.00  0.00    +0.001 C 
BRANCH  18  19
ATOM     19  C   UNL     1      10.898   0.886  24.260  0.00  0.00    +0.003 C 
BRANCH  19  21
ATOM     20  C   UNL     1      10.552   3.244  23.451  0.00  0.00    +0.007 C 
ATOM     21  C   UNL     1      10.010   1.816  23.407  0.00  0.00    -0.017 C 
ATOM     22  C   UNL     1       9.898   1.357  21.950  0.00  0.00    +0.007 C 
ENDBRANCH  19  21
ENDBRANCH  18  19
ENDBRANCH  17  18
ENDBRANCH  15  17
ENDBRANCH  14  15
ENDBRANCH  13  14
ENDBRANCH   1  13
TORSDOF 15
ENDMDL
MODEL 4
REMARK VINA RESULT:      -4.7      2.964      7.047
REMARK  Name = 
REMARK  20 active torsions:
REMARK  status: ('A' for Active; 'I' for Inactive)
REMARK    1  A    between atoms: C_1  and  C_2
REMARK    2  A    between atoms: C_2  and  C_3
REMARK    3  A    between atoms: C_2  and  C_4
REMARK    4  A    between atoms: C_4  and  C_5
REMARK    5  A    between atoms: C_5  and  C_6
REMARK    6  A    between atoms: C_6  and  C_7
REMARK    7  A    between atoms: C_7  and  C_9
REMARK    8  A    between atoms: C_7  and  C_10
REMARK    9  A    between atoms: C_10  and  C_11
REMARK   10  A    between atoms: C_11  and  C_12
REMARK   11  A    between atoms: C_12  and  C_13
REMARK   12  A    between atoms: C_13  and  C_15
REMARK   13  A    between atoms: C_13  and  C_16
REMARK   14  A    between atoms: C_16  and  C_17
REMARK   15  A    between atoms: C_17  and  C_18
REMARK   16  A    between atoms: C_18  and  C_19
REMARK   17  A    between atoms: C_19  and  C_21
REMARK   18  A    between atoms: C_19  and  C_22
REMARK   19  A    between atoms: C_22  and  C_23
REMARK   20  A    between atoms: C_23  and  O_24
REMARK                            x       y       z     vdW  Elec       q    Type
REMARK                         _______ _______ _______ _____ _____    ______ ____
ROOT
ATOM      1  C   UNL     1       8.262   0.451  25.508  0.00  0.00    +0.003 C 
ENDROOT
BRANCH   1   2
ATOM      2  C   UNL     1       7.162  -0.231  24.660  0.00  0.00    -0.014 C 
ATOM      3  C   UNL     1       5.851   0.566  24.702  0.00  0.00    +0.007 C 
BRANCH   2   4
ATOM      4  C   UNL     1       6.949  -1.693  25.111  0.00  0.00    +0.003 C 
BRANCH   4   5
ATOM      5  C   UNL     1       6.377  -2.622  24.027  0.00  0.00    +0.001 C 
BRANCH   5   6
ATOM      6  C   UNL     1       7.257  -3.849  23.751  0.00  0.00    +0.003 C 
BRANCH   6   7
ATOM      7  C   UNL     1       6.915  -5.091  24.605  0.00  0.00    -0.012 C 
ATOM      8  C   UNL     1       5.459  -4.966  25.076  0.00  0.00    +0.007 C 
BRANCH   7   9
ATOM      9  C   UNL     1       7.875  -5.248  25.800  0.00  0.00    +0.031 C 
BRANCH   9  10
ATOM     10  C   UNL     1       9.270  -4.683  25.554  0.00  0.00    +0.156 C 
BRANCH  10  11
ATOM     11  O   UNL     1      10.183  -5.751  25.325  0.00  0.00    -0.395 OA
ATOM     12  H   UNL     1       9.690  -6.585  25.420  0.00  0.00    +0.209 HD
ENDBRANCH  10  11
ENDBRANCH   9  10
ENDBRANCH   7   9
ENDBRANCH   6   7
ENDBRANCH   5   6
ENDBRANCH   4   5
ENDBRANCH   2   4
ENDBRANCH   1   2
BRANCH   1  13
ATOM     13  C   UNL     1       9.626  -0.204  25.262  0.00  0.00    +0.001 C 
BRANCH  13  14
ATOM     14  C   UNL     1      10.424   0.453  24.146  0.00  0.00    +0.003 C 
BRANCH  14  15
ATOM     15  C   UNL     1      10.526  -0.449  22.889  0.00  0.00    -0.014 C 
ATOM     16  C   UNL     1      10.188  -1.912  23.203  0.00  0.00    +0.007 C 
BRANCH  15  17
ATOM     17  C   UNL     1       9.618   0.034  21.736  0.00  0.00    +0.003 C 
BRANCH  17  18
ATOM     18  C   UNL     1       9.366   1.540  21.784  0.00  0.00    +0.001 C 
BRANCH  18  19
ATOM     19  C   UNL     1       7.887   1.903  21.657  0.00  0.00    +0.003 C 
BRANCH  19  21
ATOM     20  C   UNL     1       6.079   3.467  22.447  0.00  0.00    +0.007 C 
ATOM     21  C   UNL     1       7.583   3.302  22.233  0.00  0.00    -0.017 C 
ATOM     22  C   UNL     1       8.320   3.575  23.547  0.00  0.00    +0.007 C 
ENDBRANCH  19  21
ENDBRANCH  18  19
ENDBRANCH  17  18
ENDBRANCH  15  17
ENDBRANCH  14  15
ENDBRANCH  13  14
ENDBRANCH   1  13
TORSDOF 15
ENDMDL
MODEL 5
REMARK VINA RESULT:      -4.7      1.904      3.984
REMARK  Name = 
REMARK  20 active torsions:
REMARK  status: ('A' for Active; 'I' for Inactive)
REMARK    1  A    between atoms: C_1  and  C_2
REMARK    2  A    between atoms: C_2  and  C_3
REMARK    3  A    between atoms: C_2  and  C_4
REMARK    4  A    between atoms: C_4  and  C_5
REMARK    5  A    between atoms: C_5  and  C_6
REMARK    6  A    between atoms: C_6  and  C_7
REMARK    7  A    between atoms: C_7  and  C_9
REMARK    8  A    between atoms: C_7  and  C_10
REMARK    9  A    between atoms: C_10  and  C_11
REMARK   10  A    between atoms: C_11  and  C_12
REMARK   11  A    between atoms: C_12  and  C_13
REMARK   12  A    between atoms: C_13  and  C_15
REMARK   13  A    between atoms: C_13  and  C_16
REMARK   14  A    between atoms: C_16  and  C_17
REMARK   15  A    between atoms: C_17  and  C_18
REMARK   16  A    between atoms: C_18  and  C_19
REMARK   17  A    between atoms: C_19  and  C_21
REMARK   18  A    between atoms: C_19  and  C_22
REMARK   19  A    between atoms: C_22  and  C_23
REMARK   20  A    between atoms: C_23  and  O_24
REMARK                            x       y       z     vdW  Elec       q    Type
REMARK                         _______ _______ _______ _____ _____    ______ ____
ROOT
ATOM      1  C   UNL     1       9.908   0.642  22.329  0.00  0.00    +0.003 C 
ENDROOT
BRANCH   1   2
ATOM      2  C   UNL     1      10.177   1.360  23.672  0.00  0.00    -0.014 C 
ATOM      3  C   UNL     1      10.830   0.414  24.689  0.00  0.00    +0.007 C 
BRANCH   2   4
ATOM      4  C   UNL     1       8.879   1.982  24.232  0.00  0.00    +0.003 C 
BRANCH   4   5
ATOM      5  C   UNL     1       8.826   3.518  24.172  0.00  0.00    +0.001 C 
BRANCH   5   6
ATOM      6  C   UNL     1      10.152   4.156  23.734  0.00  0.00    +0.003 C 
BRANCH   6   7
ATOM      7  C   UNL     1      10.352   5.613  24.207  0.00  0.00    -0.012 C 
ATOM      8  C   UNL     1       9.400   6.514  23.407  0.00  0.00    +0.007 C 
BRANCH   7   9
ATOM      9  C   UNL     1      11.815   6.072  24.050  0.00  0.00    +0.031 C 
BRANCH   9  10
ATOM     10  C   UNL     1      12.692   5.095  23.273  0.00  0.00    +0.156 C 
BRANCH  10  11
ATOM     11  O   UNL     1      12.741   5.485  21.905  0.00  0.00    -0.395 OA
ATOM     12  H   UNL     1      11.884   5.260  21.504  0.00  0.00    +0.209 HD
ENDBRANCH  10  11
ENDBRANCH   9  10
ENDBRANCH   7   9
ENDBRANCH   6   7
ENDBRANCH   5   6
ENDBRANCH   4   5
ENDBRANCH   2   4
ENDBRANCH   1   2
BRANCH   1  13
ATOM     13  C   UNL     1      10.159  -0.864  22.453  0.00  0.00    +0.001 C 
BRANCH  13  14
ATOM     14  C   UNL     1       9.050  -1.719  21.857  0.00  0.00    +0.003 C 
BRANCH  14  15
ATOM     15  C   UNL     1       8.351  -2.600  22.924  0.00  0.00    -0.014 C 
ATOM     16  C   UNL     1       9.279  -2.921  24.102  0.00  0.00    +0.007 C 
BRANCH  15  17
ATOM     17  C   UNL     1       7.058  -1.954  23.473  0.00  0.00    +0.003 C 
BRANCH  17  18
ATOM     18  C   UNL     1       5.804  -2.731  23.076  0.00  0.00    +0.001 C 
BRANCH  18  19
ATOM     19  C   UNL     1       6.006  -3.595  21.831  0.00  0.00    +0.003 C 
BRANCH  19  21
ATOM     20  C   UNL     1       7.082  -5.869  21.740  0.00  0.00    +0.007 C 
ATOM     21  C   UNL     1       5.824  -5.097  22.136  0.00  0.00    -0.017 C 
ATOM     22  C   UNL     1       5.498  -5.369  23.607  0.00  0.00    +0.007 C 
ENDBRANCH  19  21
ENDBRANCH  18  19
ENDBRANCH  17  18
ENDBRANCH  15  17
ENDBRANCH  14  15
ENDBRANCH  13  14
ENDBRANCH   1  13
TORSDOF 15
ENDMDL
MODEL 6
REMARK VINA RESULT:      -4.7      2.759      7.052
REMARK  Name = 
REMARK  20 active torsions:
REMARK  status: ('A' for Active; 'I' for Inactive)
REMARK    1  A    between atoms: C_1  and  C_2
REMARK    2  A    between atoms: C_2  and  C_3
REMARK    3  A    between atoms: C_2  and  C_4
REMARK    4  A    between atoms: C_4  and  C_5
REMARK    5  A    between atoms: C_5  and  C_6
REMARK    6  A    between atoms: C_6  and  C_7
REMARK    7  A    between atoms: C_7  and  C_9
REMARK    8  A    between atoms: C_7  and  C_10
REMARK    9  A    between atoms: C_10  and  C_11
REMARK   10  A    between atoms: C_11  and  C_12
REMARK   11  A    between atoms: C_12  and  C_13
REMARK   12  A    between atoms: C_13  and  C_15
REMARK   13  A    between atoms: C_13  and  C_16
REMARK   14  A    between atoms: C_16  and  C_17
REMARK   15  A    between atoms: C_17  and  C_18
REMARK   16  A    between atoms: C_18  and  C_19
REMARK   17  A    between atoms: C_19  and  C_21
REMARK   18  A    between atoms: C_19  and  C_22
REMARK   19  A    between atoms: C_22  and  C_23
REMARK   20  A    between atoms: C_23  and  O_24
REMARK                            x       y       z     vdW  Elec       q    Type
REMARK                         _______ _______ _______ _____ _____    ______ ____
ROOT
ATOM      1  C   UNL     1       7.789  -4.875  26.004  0.00  0.00    +0.003 C 
ENDROOT
BRANCH   1   2
ATOM      2  C   UNL     1       6.523  -4.495  26.809  0.00  0.00    -0.014 C 
ATOM      3  C   UNL     1       5.489  -5.628  26.790  0.00  0.00    +0.007 C 
BRANCH   2   4
ATOM      4  C   UNL     1       5.921  -3.171  26.290  0.00  0.00    +0.003 C 
BRANCH   4   5
ATOM      5  C   UNL     1       4.791  -3.340  25.261  0.00  0.00    +0.001 C 
BRANCH   5   6
ATOM      6  C   UNL     1       5.269  -3.217  23.807  0.00  0.00    +0.003 C 
BRANCH   6   7
ATOM      7  C   UNL     1       4.967  -4.449  22.924  0.00  0.00    -0.012 C 
ATOM      8  C   UNL     1       3.669  -5.097  23.428  0.00  0.00    +0.007 C 
BRANCH   7   9
ATOM      9  C   UNL     1       6.131  -5.459  22.933  0.00  0.00    +0.031 C 
BRANCH   9  10
ATOM     10  C   UNL     1       6.893  -5.539  21.614  0.00  0.00    +0.156 C 
BRANCH  10  11
ATOM     11  O   UNL     1       5.984  -5.391  20.529  0.00  0.00    -0.395 OA
ATOM     12  H   UNL     1       5.120  -5.145  20.901  0.00  0.00    +0.209 HD
ENDBRANCH  10  11
ENDBRANCH   9  10
ENDBRANCH   7   9
ENDBRANCH   6   7
ENDBRANCH   5   6
ENDBRANCH   4   5
ENDBRANCH   2   4
ENDBRANCH   1   2
BRANCH   1  13
ATOM     13  C   UNL     1       8.743  -3.681  25.889  0.00  0.00    +0.001 C 
BRANCH  13  14
ATOM     14  C   UNL     1       9.471  -3.609  24.555  0.00  0.00    +0.003 C 
BRANCH  14  15
ATOM     15  C   UNL     1       9.362  -2.207  23.903  0.00  0.00    -0.014 C 
ATOM     16  C   UNL     1       8.540  -2.237  22.608  0.00  0.00    +0.007 C 
BRANCH  15  17
ATOM     17  C   UNL     1       8.751  -1.155  24.855  0.00  0.00    +0.003 C 
BRANCH  17  18
ATOM     18  C   UNL     1       9.757  -0.079  25.260  0.00  0.00    +0.001 C 
BRANCH  18  19
ATOM     19  C   UNL     1      10.608   0.414  24.090  0.00  0.00    +0.003 C 
BRANCH  19  21
ATOM     20  C   UNL     1      10.718   2.832  23.400  0.00  0.00    +0.007 C 
ATOM     21  C   UNL     1       9.908   1.540  23.300  0.00  0.00    -0.017 C 
ATOM     22  C   UNL     1       9.692   1.185  21.826  0.00  0.00    +0.007 C 
ENDBRANCH  19  21
ENDBRANCH  18  19
ENDBRANCH  17  18
ENDBRANCH  15  17
ENDBRANCH  14  15
ENDBRANCH  13  14
ENDBRANCH   1  13
TORSDOF 15
ENDMDL
MODEL 7
REMARK VINA RESULT:      -4.6      1.776      3.478
REMARK  Name = 
REMARK  20 active torsions:
REMARK  status: ('A' for Active; 'I' for Inactive)
REMARK    1  A    between atoms: C_1  and  C_2
REMARK    2  A    between atoms: C_2  and  C_3
REMARK    3  A    between atoms: C_2  and  C_4
REMARK    4  A    between atoms: C_4  and  C_5
REMARK    5  A    between atoms: C_5  and  C_6
REMARK    6  A    between atoms: C_6  and  C_7
REMARK    7  A    between atoms: C_7  and  C_9
REMARK    8  A    between atoms: C_7  and  C_10
REMARK    9  A    between atoms: C_10  and  C_11
REMARK   10  A    between atoms: C_11  and  C_12
REMARK   11  A    between atoms: C_12  and  C_13
REMARK   12  A    between atoms: C_13  and  C_15
REMARK   13  A    between atoms: C_13  and  C_16
REMARK   14  A    between atoms: C_16  and  C_17
REMARK   15  A    between atoms: C_17  and  C_18
REMARK   16  A    between atoms: C_18  and  C_19
REMARK   17  A    between atoms: C_19  and  C_21
REMARK   18  A    between atoms: C_19  and  C_22
REMARK   19  A    between atoms: C_22  and  C_23
REMARK   20  A    between atoms: C_23  and  O_24
REMARK                            x       y       z     vdW  Elec       q    Type
REMARK                         _______ _______ _______ _____ _____    ______ ____
ROOT
ATOM      1  C   UNL     1       7.178  -1.971  24.228  0.00  0.00    +0.003 C 
ENDROOT
BRANCH   1   2
ATOM      2  C   UNL     1       8.000  -2.356  22.975  0.00  0.00    -0.014 C 
ATOM      3  C   UNL     1       7.566  -3.719  22.419  0.00  0.00    +0.007 C 
BRANCH   2   4
ATOM      4  C   UNL     1       9.513  -2.327  23.282  0.00  0.00    +0.003 C 
BRANCH   4   5
ATOM      5  C   UNL     1      10.333  -1.388  22.380  0.00  0.00    +0.001 C 
BRANCH   5   6
ATOM      6  C   UNL     1       9.464  -0.493  21.485  0.00  0.00    +0.003 C 
BRANCH   6   7
ATOM      7  C   UNL     1       9.597   1.020  21.766  0.00  0.00    -0.012 C 
ATOM      8  C   UNL     1      10.186   1.200  23.173  0.00  0.00    +0.007 C 
BRANCH   7   9
ATOM      9  C   UNL     1       8.247   1.750  21.631  0.00  0.00    +0.031 C 
BRANCH   9  10
ATOM     10  C   UNL     1       7.369   1.666  22.876  0.00  0.00    +0.156 C 
BRANCH  10  11
ATOM     11  O   UNL     1       6.177   0.951  22.571  0.00  0.00    -0.395 OA
ATOM     12  H   UNL     1       5.936   0.431  23.356  0.00  0.00    +0.209 HD
ENDBRANCH  10  11
ENDBRANCH   9  10
ENDBRANCH   7   9
ENDBRANCH   6   7
ENDBRANCH   5   6
ENDBRANCH   4   5
ENDBRANCH   2   4
ENDBRANCH   1   2
BRANCH   1  13
ATOM     13  C   UNL     1       8.080  -1.868  25.463  0.00  0.00    +0.001 C 
BRANCH  13  14
ATOM     14  C   UNL     1       7.692  -2.823  26.582  0.00  0.00    +0.003 C 
BRANCH  14  15
ATOM     15  C   UNL     1       7.856  -4.308  26.168  0.00  0.00    -0.014 C 
ATOM     16  C   UNL     1       9.330  -4.713  26.050  0.00  0.00    +0.007 C 
BRANCH  15  17
ATOM     17  C   UNL     1       7.150  -5.278  27.143  0.00  0.00    +0.003 C 
BRANCH  17  18
ATOM     18  C   UNL     1       5.847  -5.834  26.572  0.00  0.00    +0.001 C 
BRANCH  18  19
ATOM     19  C   UNL     1       5.670  -5.534  25.084  0.00  0.00    +0.003 C 
BRANCH  19  21
ATOM     20  C   UNL     1       4.130  -3.620  25.632  0.00  0.00    +0.007 C 
ATOM     21  C   UNL     1       4.305  -4.879  24.785  0.00  0.00    -0.017 C 
ATOM     22  C   UNL     1       4.128  -4.528  23.304  0.00  0.00    +0.007 C 
ENDBRANCH  19  21
ENDBRANCH  18  19
ENDBRANCH  17  18
ENDBRANCH  15  17
ENDBRANCH  14  15
ENDBRANCH  13  14
ENDBRANCH   1  13
TORSDOF 15
ENDMDL
MODEL 8
REMARK VINA RESULT:      -4.6      1.464      2.302
REMARK  Name = 
REMARK  20 active torsions:
REMARK  status: ('A' for Active; 'I' for Inactive)
REMARK    1  A    between atoms: C_1  and  C_2
REMARK    2  A    between atoms: C_2  and  C_3
REMARK    3  A    between atoms: C_2  and  C_4
REMARK    4  A    between atoms: C_4  and  C_5
REMARK    5  A    between atoms: C_5  and  C_6
REMARK    6  A    between atoms: C_6  and  C_7
REMARK    7  A    between atoms: C_7  and  C_9
REMARK    8  A    between atoms: C_7  and  C_10
REMARK    9  A    between atoms: C_10  and  C_11
REMARK   10  A    between atoms: C_11  and  C_12
REMARK   11  A    between atoms: C_12  and  C_13
REMARK   12  A    between atoms: C_13  and  C_15
REMARK   13  A    between atoms: C_13  and  C_16
REMARK   14  A    between atoms: C_16  and  C_17
REMARK   15  A    between atoms: C_17  and  C_18
REMARK   16  A    between atoms: C_18  and  C_19
REMARK   17  A    between atoms: C_19  and  C_21
REMARK   18  A    between atoms: C_19  and  C_22
REMARK   19  A    between atoms: C_22  and  C_23
REMARK   20  A    between atoms: C_23  and  O_24
REMARK                            x       y       z     vdW  Elec       q    Type
REMARK                         _______ _______ _______ _____ _____    ______ ____
ROOT
ATOM      1  C   UNL     1       6.821  -1.639  23.339  0.00  0.00    +0.003 C 
ENDROOT
BRANCH   1   2
ATOM      2  C   UNL     1       8.299  -1.221  23.155  0.00  0.00    -0.014 C 
ATOM      3  C   UNL     1       8.919  -1.894  21.923  0.00  0.00    +0.007 C 
BRANCH   2   4
ATOM      4  C   UNL     1       9.115  -1.517  24.432  0.00  0.00    +0.003 C 
BRANCH   4   5
ATOM      5  C   UNL     1       9.398  -0.288  25.311  0.00  0.00    +0.001 C 
BRANCH   5   6
ATOM      6  C   UNL     1      10.345   0.727  24.653  0.00  0.00    +0.003 C 
BRANCH   6   7
ATOM      7  C   UNL     1       9.751   2.143  24.481  0.00  0.00    -0.012 C 
ATOM      8  C   UNL     1       8.250   2.079  24.804  0.00  0.00    +0.007 C 
BRANCH   7   9
ATOM      9  C   UNL     1       9.991   2.697  23.064  0.00  0.00    +0.031 C 
BRANCH   9  10
ATOM     10  C   UNL     1      10.080   1.624  21.984  0.00  0.00    +0.156 C 
BRANCH  10  11
ATOM     11  O   UNL     1       8.912   1.668  21.172  0.00  0.00    -0.395 OA
ATOM     12  H   UNL     1       8.163   1.901  21.747  0.00  0.00    +0.209 HD
ENDBRANCH  10  11
ENDBRANCH   9  10
ENDBRANCH   7   9
ENDBRANCH   6   7
ENDBRANCH   5   6
ENDBRANCH   4   5
ENDBRANCH   2   4
ENDBRANCH   1   2
BRANCH   1  13
ATOM     13  C   UNL     1       6.455  -2.789  22.394  0.00  0.00    +0.001 C 
BRANCH  13  14
ATOM     14  C   UNL     1       5.547  -3.833  23.027  0.00  0.00    +0.003 C 
BRANCH  14  15
ATOM     15  C   UNL     1       6.258  -5.198  23.205  0.00  0.00    -0.014 C 
ATOM     16  C   UNL     1       6.223  -6.037  21.922  0.00  0.00    +0.007 C 
BRANCH  15  17
ATOM     17  C   UNL     1       7.728  -5.047  23.660  0.00  0.00    +0.003 C 
BRANCH  17  18
ATOM     18  C   UNL     1       7.857  -4.890  25.174  0.00  0.00    +0.001 C 
BRANCH  18  19
ATOM     19  C   UNL     1       6.693  -5.515  25.941  0.00  0.00    +0.003 C 
BRANCH  19  21
ATOM     20  C   UNL     1       6.679  -3.132  26.753  0.00  0.00    +0.007 C 
ATOM     21  C   UNL     1       5.995  -4.494  26.865  0.00  0.00    -0.017 C 
ATOM     22  C   UNL     1       4.502  -4.344  26.562  0.00  0.00    +0.007 C 
ENDBRANCH  19  21
ENDBRANCH  18  19
ENDBRANCH  17  18
ENDBRANCH  15  17
ENDBRANCH  14  15
ENDBRANCH  13  14
ENDBRANCH   1  13
TORSDOF 15
ENDMDL
MODEL 9
REMARK VINA RESULT:      -4.6      2.271      4.469
REMARK  Name = 
REMARK  20 active torsions:
REMARK  status: ('A' for Active; 'I' for Inactive)
REMARK    1  A    between atoms: C_1  and  C_2
REMARK    2  A    between atoms: C_2  and  C_3
REMARK    3  A    between atoms: C_2  and  C_4
REMARK    4  A    between atoms: C_4  and  C_5
REMARK    5  A    between atoms: C_5  and  C_6
REMARK    6  A    between atoms: C_6  and  C_7
REMARK    7  A    between atoms: C_7  and  C_9
REMARK    8  A    between atoms: C_7  and  C_10
REMARK    9  A    between atoms: C_10  and  C_11
REMARK   10  A    between atoms: C_11  and  C_12
REMARK   11  A    between atoms: C_12  and  C_13
REMARK   12  A    between atoms: C_13  and  C_15
REMARK   13  A    between atoms: C_13  and  C_16
REMARK   14  A    between atoms: C_16  and  C_17
REMARK   15  A    between atoms: C_17  and  C_18
REMARK   16  A    between atoms: C_18  and  C_19
REMARK   17  A    between atoms: C_19  and  C_21
REMARK   18  A    between atoms: C_19  and  C_22
REMARK   19  A    between atoms: C_22  and  C_23
REMARK   20  A    between atoms: C_23  and  O_24
REMARK                            x       y       z     vdW  Elec       q    Type
REMARK                         _______ _______ _______ _____ _____    ______ ____
ROOT
ATOM      1  C   UNL     1       9.279   2.445  22.581  0.00  0.00    +0.003 C 
ENDROOT
BRANCH   1   2
ATOM      2  C   UNL     1       9.447   2.601  24.111  0.00  0.00    -0.014 C 
ATOM      3  C   UNL     1       8.728   1.477  24.868  0.00  0.00    +0.007 C 
BRANCH   2   4
ATOM      4  C   UNL     1       8.968   3.993  24.576  0.00  0.00    +0.003 C 
BRANCH   4   5
ATOM      5  C   UNL     1       8.834   5.034  23.451  0.00  0.00    +0.001 C 
BRANCH   5   6
ATOM      6  C   UNL     1       9.764   6.244  23.628  0.00  0.00    +0.003 C 
BRANCH   6   7
ATOM      7  C   UNL     1      10.867   6.057  24.692  0.00  0.00    -0.012 C 
ATOM      8  C   UNL     1      10.651   7.099  25.800  0.00  0.00    +0.007 C 
BRANCH   7   9
ATOM      9  C   UNL     1      12.278   6.178  24.084  0.00  0.00    +0.031 C 
BRANCH   9  10
ATOM     10  C   UNL     1      12.720   4.951  23.292  0.00  0.00    +0.156 C 
BRANCH  10  11
ATOM     11  O   UNL     1      14.138   4.949  23.170  0.00  0.00    -0.395 OA
ATOM     12  H   UNL     1      14.390   4.148  22.679  0.00  0.00    +0.209 HD
ENDBRANCH  10  11
ENDBRANCH   9  10
ENDBRANCH   7   9
ENDBRANCH   6   7
ENDBRANCH   5   6
ENDBRANCH   4   5
ENDBRANCH   2   4
ENDBRANCH   1   2
BRANCH   1  13
ATOM     13  C   UNL     1      10.065   1.235  22.065  0.00  0.00    +0.001 C 
BRANCH  13  14
ATOM     14  C   UNL     1       9.205   0.219  21.328  0.00  0.00    +0.003 C 
BRANCH  14  15
ATOM     15  C   UNL     1       9.465  -1.230  21.812  0.00  0.00    -0.014 C 
ATOM     16  C   UNL     1      10.460  -1.277  22.978  0.00  0.00    +0.007 C 
BRANCH  15  17
ATOM     17  C   UNL     1       8.168  -1.956  22.236  0.00  0.00    +0.003 C 
BRANCH  17  18
ATOM     18  C   UNL     1       8.056  -2.113  23.752  0.00  0.00    +0.001 C 
BRANCH  18  19
ATOM     19  C   UNL     1       7.718  -3.540  24.182  0.00  0.00    +0.003 C 
BRANCH  19  21
ATOM     20  C   UNL     1       5.494  -2.530  24.790  0.00  0.00    +0.007 C 
ATOM     21  C   UNL     1       6.536  -3.580  25.174  0.00  0.00    -0.017 C 
ATOM     22  C   UNL     1       5.871  -4.958  25.248  0.00  0.00    +0.007 C 
ENDBRANCH  19  21
ENDBRANCH  18  19
ENDBRANCH  17  18
ENDBRANCH  15  17
ENDBRANCH  14  15
ENDBRANCH  13  14
ENDBRANCH   1  13
TORSDOF 15
ENDMDL
