MODEL 1
REMARK VINA RESULT:      -9.2      0.000      0.000
REMARK  Name = 
REMARK  2 active torsions:
REMARK  status: ('A' for Active; 'I' for Inactive)
REMARK    1  A    between atoms: C_7  and  C_8
REMARK    2  A    between atoms: C_17  and  N_18
REMARK                            x       y       z     vdW  Elec       q    Type
REMARK                         _______ _______ _______ _____ _____    ______ ____
ROOT
ATOM      1  C   UNL     1       9.247   2.284  23.937  0.00  0.00    -0.001 A 
ATOM      2  C   UNL     1       9.558   1.223  23.071  0.00  0.00    +0.060 A 
ATOM      3  C   UNL     1       9.077   0.979  21.723  0.00  0.00    +0.260 A 
ATOM      4  N   UNL     1       9.757  -0.152  21.336  0.00  0.00    -0.289 N 
ATOM      5  H   UNL     1       9.498  -0.642  20.499  0.00  0.00    +0.172 HD
ATOM      6  C   UNL     1      10.310  -0.859  22.363  0.00  0.00    +0.260 A 
ATOM      7  O   UNL     1      10.943  -1.892  22.235  0.00  0.00    -0.267 OA
ATOM      8  O   UNL     1       8.104   1.403  21.110  0.00  0.00    -0.267 OA
ATOM      9  C   UNL     1       9.911  -0.079  23.493  0.00  0.00    +0.062 A 
ATOM     10  C   UNL     1       9.300  -0.441  24.717  0.00  0.00    +0.021 A 
ATOM     11  C   UNL     1       8.741  -1.710  24.892  0.00  0.00    +0.010 A 
ATOM     12  C   UNL     1       8.720  -2.963  24.231  0.00  0.00    +0.034 A 
ATOM     13  C   UNL     1       7.780  -3.926  24.595  0.00  0.00    +0.034 A 
ATOM     14  C   UNL     1       6.931  -3.698  25.677  0.00  0.00    +0.025 A 
ATOM     15  C   UNL     1       6.978  -2.503  26.402  0.00  0.00    +0.028 A 
ATOM     16  C   UNL     1       7.865  -1.523  25.973  0.00  0.00    +0.048 A 
ATOM     17  N   UNL     1       7.985  -0.207  26.406  0.00  0.00    -0.354 N 
ATOM     18  H   UNL     1       7.407   0.199  27.129  0.00  0.00    +0.166 HD
ATOM     19  C   UNL     1       8.650   0.520  25.449  0.00  0.00    +0.049 A 
ATOM     20  C   UNL     1       8.662   1.879  25.159  0.00  0.00    +0.035 A 
ENDROOT
BRANCH   1  23
ATOM     21 CL   UNL     1       7.805   5.179  24.588  0.00  0.00    -0.083 Cl
ATOM     22  C   UNL     1       9.432   4.880  24.110  0.00  0.00    +0.049 A 
ATOM     23  C   UNL     1       9.953   3.595  23.866  0.00  0.00    +0.001 A 
ATOM     24  C   UNL     1      11.318   3.551  23.468  0.00  0.00    +0.010 A 
ATOM     25  C   UNL     1      12.125   4.691  23.360  0.00  0.00    +0.001 A 
ATOM     26  C   UNL     1      11.581   5.935  23.623  0.00  0.00    +0.001 A 
ATOM     27  C   UNL     1      10.241   6.026  23.988  0.00  0.00    +0.020 A 
ENDBRANCH   1  23
BRANCH  13  28
ATOM     28  N   UNL     1       7.709  -5.076  23.789  0.00  0.00    -0.288 N 
ATOM     29  H   UNL     1       8.120  -5.935  24.136  0.00  0.00    +0.155 HD
ATOM     30  C   UNL     1       7.191  -5.187  22.533  0.00  0.00    +0.330 C 
ATOM     31  O   UNL     1       7.205  -6.238  21.900  0.00  0.00    -0.279 OA
ENDBRANCH  13  28
TORSDOF 2
ENDMDL
MODEL 2
REMARK VINA RESULT:      -8.4      3.184      7.759
REMARK  Name = 
REMARK  2 active torsions:
REMARK  status: ('A' for Active; 'I' for Inactive)
REMARK    1  A    between atoms: C_7  and  C_8
REMARK    2  A    between atoms: C_17  and  N_18
REMARK                            x       y       z     vdW  Elec       q    Type
REMARK                         _______ _______ _______ _____ _____    ______ ____
ROOT
ATOM      1  C   UNL     1       6.532  -2.892  24.304  0.00  0.00    -0.001 A 
ATOM      2  C   UNL     1       7.883  -2.708  23.966  0.00  0.00    +0.060 A 
ATOM      3  C   UNL     1       9.064  -2.958  24.772  0.00  0.00    +0.260 A 
ATOM      4  N   UNL     1      10.105  -2.671  23.920  0.00  0.00    -0.289 N 
ATOM      5  H   UNL     1      11.044  -2.602  24.266  0.00  0.00    +0.172 HD
ATOM      6  C   UNL     1       9.755  -1.933  22.828  0.00  0.00    +0.260 A 
ATOM      7  O   UNL     1      10.526  -1.567  21.959  0.00  0.00    -0.267 OA
ATOM      8  O   UNL     1       9.220  -3.082  25.982  0.00  0.00    -0.267 OA
ATOM      9  C   UNL     1       8.355  -1.741  23.050  0.00  0.00    +0.062 A 
ATOM     10  C   UNL     1       7.548  -0.578  23.018  0.00  0.00    +0.021 A 
ATOM     11  C   UNL     1       8.125   0.694  22.991  0.00  0.00    +0.010 A 
ATOM     12  C   UNL     1       9.401   1.279  22.799  0.00  0.00    +0.034 A 
ATOM     13  C   UNL     1       9.613   2.613  23.143  0.00  0.00    +0.034 A 
ATOM     14  C   UNL     1       8.547   3.400  23.576  0.00  0.00    +0.025 A 
ATOM     15  C   UNL     1       7.257   2.875  23.703  0.00  0.00    +0.028 A 
ATOM     16  C   UNL     1       7.082   1.522  23.434  0.00  0.00    +0.048 A 
ATOM     17  N   UNL     1       5.958   0.731  23.642  0.00  0.00    -0.354 N 
ATOM     18  H   UNL     1       5.092   1.080  24.031  0.00  0.00    +0.166 HD
ATOM     19  C   UNL     1       6.338  -0.588  23.663  0.00  0.00    +0.049 A 
ATOM     20  C   UNL     1       5.754  -1.712  24.235  0.00  0.00    +0.035 A 
ENDROOT
BRANCH   1  23
ATOM     21 CL   UNL     1       6.007  -4.424  21.430  0.00  0.00    -0.083 Cl
ATOM     22  C   UNL     1       5.577  -4.947  23.013  0.00  0.00    +0.049 A 
ATOM     23  C   UNL     1       5.859  -4.216  24.183  0.00  0.00    +0.001 A 
ATOM     24  C   UNL     1       5.414  -4.807  25.398  0.00  0.00    +0.010 A 
ATOM     25  C   UNL     1       4.773  -6.051  25.460  0.00  0.00    +0.001 A 
ATOM     26  C   UNL     1       4.527  -6.746  24.290  0.00  0.00    +0.001 A 
ATOM     27  C   UNL     1       4.921  -6.192  23.076  0.00  0.00    +0.020 A 
ENDBRANCH   1  23
BRANCH  13  28
ATOM     28  N   UNL     1      10.939   3.079  23.082  0.00  0.00    -0.288 N 
ATOM     29  H   UNL     1      11.669   2.426  22.821  0.00  0.00    +0.155 HD
ATOM     30  C   UNL     1      11.403   4.323  23.391  0.00  0.00    +0.330 C 
ATOM     31  O   UNL     1      12.592   4.620  23.332  0.00  0.00    -0.279 OA
ENDBRANCH  13  28
TORSDOF 2
ENDMDL
MODEL 3
REMARK VINA RESULT:      -8.3      3.254      7.653
REMARK  Name = 
REMARK  2 active torsions:
REMARK  status: ('A' for Active; 'I' for Inactive)
REMARK    1  A    between atoms: C_7  and  C_8
REMARK    2  A    between atoms: C_17  and  N_18
REMARK                            x       y       z     vdW  Elec       q    Type
REMARK                         _______ _______ _______ _____ _____    ______ ____
ROOT
ATOM      1  C   UNL     1       7.252  -1.191  23.977  0.00  0.00    -0.001 A 
ATOM      2  C   UNL     1       8.415  -0.647  24.545  0.00  0.00    +0.060 A 
ATOM      3  C   UNL     1       8.746  -0.469  25.947  0.00  0.00    +0.260 A 
ATOM      4  N   UNL     1      10.023   0.039  25.918  0.00  0.00    -0.289 N 
ATOM      5  H   UNL     1      10.445   0.411  26.749  0.00  0.00    +0.172 HD
ATOM      6  C   UNL     1      10.403   0.547  24.710  0.00  0.00    +0.260 A 
ATOM      7  O   UNL     1      11.487   1.050  24.476  0.00  0.00    -0.267 OA
ATOM      8  O   UNL     1       8.050  -0.440  26.956  0.00  0.00    -0.267 OA
ATOM      9  C   UNL     1       9.223   0.336  23.929  0.00  0.00    +0.062 A 
ATOM     10  C   UNL     1       8.484   1.202  23.088  0.00  0.00    +0.021 A 
ATOM     11  C   UNL     1       8.710   2.581  23.103  0.00  0.00    +0.010 A 
ATOM     12  C   UNL     1       9.656   3.498  23.624  0.00  0.00    +0.034 A 
ATOM     13  C   UNL     1       9.358   4.859  23.661  0.00  0.00    +0.034 A 
ATOM     14  C   UNL     1       8.177   5.330  23.090  0.00  0.00    +0.025 A 
ATOM     15  C   UNL     1       7.256   4.462  22.497  0.00  0.00    +0.028 A 
ATOM     16  C   UNL     1       7.532   3.100  22.544  0.00  0.00    +0.048 A 
ATOM     17  N   UNL     1       6.715   2.033  22.185  0.00  0.00    -0.354 N 
ATOM     18  H   UNL     1       5.777   2.143  21.824  0.00  0.00    +0.166 HD
ATOM     19  C   UNL     1       7.183   0.891  22.786  0.00  0.00    +0.049 A 
ATOM     20  C   UNL     1       6.556  -0.303  23.123  0.00  0.00    +0.035 A 
ENDROOT
BRANCH   1  23
ATOM     21 CL   UNL     1       6.272  -3.208  26.396  0.00  0.00    -0.083 Cl
ATOM     22  C   UNL     1       6.668  -3.607  24.769  0.00  0.00    +0.049 A 
ATOM     23  C   UNL     1       7.068  -2.660  23.806  0.00  0.00    +0.001 A 
ATOM     24  C   UNL     1       7.364  -3.183  22.517  0.00  0.00    +0.010 A 
ATOM     25  C   UNL     1       7.235  -4.539  22.189  0.00  0.00    +0.001 A 
ATOM     26  C   UNL     1       6.825  -5.436  23.158  0.00  0.00    +0.001 A 
ATOM     27  C   UNL     1       6.551  -4.971  24.440  0.00  0.00    +0.020 A 
ENDBRANCH   1  23
BRANCH  13  28
ATOM     28  N   UNL     1      10.270   5.688  24.340  0.00  0.00    -0.288 N 
ATOM     29  H   UNL     1       9.935   6.230  25.128  0.00  0.00    +0.155 HD
ATOM     30  C   UNL     1      11.580   5.913  24.039  0.00  0.00    +0.330 C 
ATOM     31  O   UNL     1      12.285   6.684  24.683  0.00  0.00    -0.279 OA
ENDBRANCH  13  28
TORSDOF 2
ENDMDL
MODEL 4
REMARK VINA RESULT:      -8.0      1.118      1.530
REMARK  Name = 
REMARK  2 active torsions:
REMARK  status: ('A' for Active; 'I' for Inactive)
REMARK    1  A    between atoms: C_7  and  C_8
REMARK    2  A    between atoms: C_17  and  N_18
REMARK                            x       y       z     vdW  Elec       q    Type
REMARK                         _______ _______ _______ _____ _____    ______ ____
ROOT
ATOM      1  C   UNL     1       8.524   2.647  24.222  0.00  0.00    -0.001 A 
ATOM      2  C   UNL     1       8.902   1.684  23.272  0.00  0.00    +0.060 A 
ATOM      3  C   UNL     1       8.338   1.432  21.958  0.00  0.00    +0.260 A 
ATOM      4  N   UNL     1       9.134   0.434  21.448  0.00  0.00    -0.289 N 
ATOM      5  H   UNL     1       8.872  -0.051  20.610  0.00  0.00    +0.172 HD
ATOM      6  C   UNL     1       9.879  -0.227  22.381  0.00  0.00    +0.260 A 
ATOM      7  O   UNL     1      10.640  -1.147  22.139  0.00  0.00    -0.267 OA
ATOM      8  O   UNL     1       7.259   1.733  21.458  0.00  0.00    -0.267 OA
ATOM      9  C   UNL     1       9.479   0.432  23.585  0.00  0.00    +0.062 A 
ATOM     10  C   UNL     1       9.045  -0.072  24.834  0.00  0.00    +0.021 A 
ATOM     11  C   UNL     1       8.695  -1.417  24.983  0.00  0.00    +0.010 A 
ATOM     12  C   UNL     1       8.794  -2.628  24.254  0.00  0.00    +0.034 A 
ATOM     13  C   UNL     1       8.043  -3.736  24.641  0.00  0.00    +0.034 A 
ATOM     14  C   UNL     1       7.275  -3.687  25.804  0.00  0.00    +0.025 A 
ATOM     15  C   UNL     1       7.216  -2.532  26.590  0.00  0.00    +0.028 A 
ATOM     16  C   UNL     1       7.907  -1.411  26.144  0.00  0.00    +0.048 A 
ATOM     17  N   UNL     1       7.875  -0.113  26.641  0.00  0.00    -0.354 N 
ATOM     18  H   UNL     1       7.315   0.168  27.434  0.00  0.00    +0.166 HD
ATOM     19  C   UNL     1       8.334   0.747  25.674  0.00  0.00    +0.049 A 
ATOM     20  C   UNL     1       8.122   2.104  25.465  0.00  0.00    +0.035 A 
ENDROOT
BRANCH   1  23
ATOM     21 CL   UNL     1      11.601   3.467  23.363  0.00  0.00    -0.083 Cl
ATOM     22  C   UNL     1      10.309   4.507  23.826  0.00  0.00    +0.049 A 
ATOM     23  C   UNL     1       9.022   4.051  24.167  0.00  0.00    +0.001 A 
ATOM     24  C   UNL     1       8.090   5.061  24.535  0.00  0.00    +0.010 A 
ATOM     25  C   UNL     1       8.395   6.428  24.528  0.00  0.00    +0.001 A 
ATOM     26  C   UNL     1       9.667   6.838  24.173  0.00  0.00    +0.001 A 
ATOM     27  C   UNL     1      10.618   5.881  23.832  0.00  0.00    +0.020 A 
ENDBRANCH   1  23
BRANCH  13  28
ATOM     28  N   UNL     1       8.063  -4.847  23.778  0.00  0.00    -0.288 N 
ATOM     29  H   UNL     1       8.711  -5.600  23.977  0.00  0.00    +0.155 HD
ATOM     30  C   UNL     1       7.342  -5.032  22.636  0.00  0.00    +0.330 C 
ATOM     31  O   UNL     1       7.457  -6.032  21.934  0.00  0.00    -0.279 OA
ENDBRANCH  13  28
TORSDOF 2
ENDMDL
MODEL 5
REMARK VINA RESULT:      -8.0      3.462      8.191
REMARK  Name = 
REMARK  2 active torsions:
REMARK  status: ('A' for Active; 'I' for Inactive)
REMARK    1  A    between atoms: C_7  and  C_8
REMARK    2  A    between atoms: C_17  and  N_18
REMARK                            x       y       z     vdW  Elec       q    Type
REMARK                         _______ _______ _______ _____ _____    ______ ____
ROOT
ATOM      1  C   UNL     1       5.906  -3.521  24.507  0.00  0.00    -0.001 A 
ATOM      2  C   UNL     1       6.372  -2.535  25.393  0.00  0.00    +0.060 A 
ATOM      3  C   UNL     1       5.629  -1.468  26.038  0.00  0.00    +0.260 A 
ATOM      4  N   UNL     1       6.566  -0.859  26.840  0.00  0.00    -0.289 N 
ATOM      5  H   UNL     1       6.367   0.019  27.283  0.00  0.00    +0.172 HD
ATOM      6  C   UNL     1       7.860  -1.150  26.520  0.00  0.00    +0.260 A 
ATOM      7  O   UNL     1       8.836  -0.708  27.099  0.00  0.00    -0.267 OA
ATOM      8  O   UNL     1       4.547  -0.951  25.782  0.00  0.00    -0.267 OA
ATOM      9  C   UNL     1       7.687  -2.017  25.395  0.00  0.00    +0.062 A 
ATOM     10  C   UNL     1       8.277  -2.017  24.108  0.00  0.00    +0.021 A 
ATOM     11  C   UNL     1       9.005  -0.915  23.653  0.00  0.00    +0.010 A 
ATOM     12  C   UNL     1       9.554   0.284  24.171  0.00  0.00    +0.034 A 
ATOM     13  C   UNL     1       9.977   1.287  23.301  0.00  0.00    +0.034 A 
ATOM     14  C   UNL     1       9.959   1.070  21.924  0.00  0.00    +0.025 A 
ATOM     15  C   UNL     1       9.496  -0.132  21.381  0.00  0.00    +0.028 A 
ATOM     16  C   UNL     1       9.002  -1.089  22.260  0.00  0.00    +0.048 A 
ATOM     17  N   UNL     1       8.340  -2.277  21.972  0.00  0.00    -0.354 N 
ATOM     18  H   UNL     1       8.141  -2.594  21.033  0.00  0.00    +0.166 HD
ATOM     19  C   UNL     1       7.651  -2.686  23.088  0.00  0.00    +0.049 A 
ATOM     20  C   UNL     1       6.538  -3.504  23.242  0.00  0.00    +0.035 A 
ENDROOT
BRANCH   1  23
ATOM     21 CL   UNL     1       7.022  -5.274  27.068  0.00  0.00    -0.083 Cl
ATOM     22  C   UNL     1       5.670  -5.605  26.056  0.00  0.00    +0.049 A 
ATOM     23  C   UNL     1       5.270  -4.780  24.988  0.00  0.00    +0.001 A 
ATOM     24  C   UNL     1       4.134  -5.226  24.259  0.00  0.00    +0.010 A 
ATOM     25  C   UNL     1       3.416  -6.385  24.585  0.00  0.00    +0.001 A 
ATOM     26  C   UNL     1       3.831  -7.161  25.651  0.00  0.00    +0.001 A 
ATOM     27  C   UNL     1       4.955  -6.776  26.376  0.00  0.00    +0.020 A 
ENDBRANCH   1  23
BRANCH  13  28
ATOM     28  N   UNL     1      10.355   2.511  23.882  0.00  0.00    -0.288 N 
ATOM     29  H   UNL     1      10.143   2.667  24.861  0.00  0.00    +0.155 HD
ATOM     30  C   UNL     1      10.942   3.580  23.273  0.00  0.00    +0.330 C 
ATOM     31  O   UNL     1      11.206   4.620  23.869  0.00  0.00    -0.279 OA
ENDBRANCH  13  28
TORSDOF 2
ENDMDL
MODEL 6
REMARK VINA RESULT:      -7.7      2.940      7.364
REMARK  Name = 
REMARK  2 active torsions:
REMARK  status: ('A' for Active; 'I' for Inactive)
REMARK    1  A    between atoms: C_7  and  C_8
REMARK    2  A    between atoms: C_17  and  N_18
REMARK                            x       y       z     vdW  Elec       q    Type
REMARK                         _______ _______ _______ _____ _____    ______ ____
ROOT
ATOM      1  C   UNL     1       7.690  -2.212  23.571  0.00  0.00    -0.001 A 
ATOM      2  C   UNL     1       8.200  -1.160  22.792  0.00  0.00    +0.060 A 
ATOM      3  C   UNL     1       9.571  -0.909  22.387  0.00  0.00    +0.260 A 
ATOM      4  N   UNL     1       9.475   0.205  21.587  0.00  0.00    -0.289 N 
ATOM      5  H   UNL     1      10.300   0.699  21.298  0.00  0.00    +0.172 HD
ATOM      6  C   UNL     1       8.311   0.902  21.725  0.00  0.00    +0.260 A 
ATOM      7  O   UNL     1       8.033   1.920  21.117  0.00  0.00    -0.267 OA
ATOM      8  O   UNL     1      10.642  -1.313  22.827  0.00  0.00    -0.267 OA
ATOM      9  C   UNL     1       7.636   0.135  22.726  0.00  0.00    +0.062 A 
ATOM     10  C   UNL     1       6.996   0.514  23.930  0.00  0.00    +0.021 A 
ATOM     11  C   UNL     1       7.167   1.795  24.460  0.00  0.00    +0.010 A 
ATOM     12  C   UNL     1       7.701   3.047  24.065  0.00  0.00    +0.034 A 
ATOM     13  C   UNL     1       7.945   4.032  25.020  0.00  0.00    +0.034 A 
ATOM     14  C   UNL     1       7.567   3.826  26.346  0.00  0.00    +0.025 A 
ATOM     15  C   UNL     1       6.965   2.633  26.757  0.00  0.00    +0.028 A 
ATOM     16  C   UNL     1       6.805   1.631  25.806  0.00  0.00    +0.048 A 
ATOM     17  N   UNL     1       6.398   0.314  25.989  0.00  0.00    -0.354 N 
ATOM     18  H   UNL     1       6.154  -0.077  26.889  0.00  0.00    +0.166 HD
ATOM     19  C   UNL     1       6.794  -0.430  24.905  0.00  0.00    +0.049 A 
ATOM     20  C   UNL     1       7.037  -1.790  24.752  0.00  0.00    +0.035 A 
ENDROOT
BRANCH   1  23
ATOM     21 CL   UNL     1       8.849  -5.077  24.724  0.00  0.00    -0.083 Cl
ATOM     22  C   UNL     1       7.796  -4.811  23.388  0.00  0.00    +0.049 A 
ATOM     23  C   UNL     1       7.350  -3.539  22.984  0.00  0.00    +0.001 A 
ATOM     24  C   UNL     1       6.493  -3.520  21.849  0.00  0.00    +0.010 A 
ATOM     25  C   UNL     1       6.071  -4.679  21.185  0.00  0.00    +0.001 A 
ATOM     26  C   UNL     1       6.518  -5.913  21.622  0.00  0.00    +0.001 A 
ATOM     27  C   UNL     1       7.380  -5.975  22.712  0.00  0.00    +0.020 A 
ENDBRANCH   1  23
BRANCH  13  28
ATOM     28  N   UNL     1       8.628   5.181  24.584  0.00  0.00    -0.288 N 
ATOM     29  H   UNL     1       8.130   6.064  24.572  0.00  0.00    +0.155 HD
ATOM     30  C   UNL     1       9.901   5.266  24.103  0.00  0.00    +0.330 C 
ATOM     31  O   UNL     1      10.395   6.321  23.718  0.00  0.00    -0.279 OA
ENDBRANCH  13  28
TORSDOF 2
ENDMDL
MODEL 7
REMARK VINA RESULT:      -7.7      2.437      3.287
REMARK  Name = 
REMARK  2 active torsions:
REMARK  status: ('A' for Active; 'I' for Inactive)
REMARK    1  A    between atoms: C_7  and  C_8
REMARK    2  A    between atoms: C_17  and  N_18
REMARK                            x       y       z     vdW  Elec       q    Type
REMARK                         _______ _______ _______ _____ _____    ______ ____
ROOT
ATOM      1  C   UNL     1       8.599   1.882  23.418  0.00  0.00    -0.001 A 
ATOM      2  C   UNL     1       8.824   1.137  24.587  0.00  0.00    +0.060 A 
ATOM      3  C   UNL     1      10.079   0.634  25.118  0.00  0.00    +0.260 A 
ATOM      4  N   UNL     1       9.715   0.044  26.306  0.00  0.00    -0.289 N 
ATOM      5  H   UNL     1      10.364  -0.531  26.810  0.00  0.00    +0.172 HD
ATOM      6  C   UNL     1       8.382  -0.219  26.422  0.00  0.00    +0.260 A 
ATOM      7  O   UNL     1       7.858  -0.744  27.389  0.00  0.00    -0.267 OA
ATOM      8  O   UNL     1      11.171   0.443  24.596  0.00  0.00    -0.267 OA
ATOM      9  C   UNL     1       7.888   0.249  25.164  0.00  0.00    +0.062 A 
ATOM     10  C   UNL     1       7.041  -0.353  24.203  0.00  0.00    +0.021 A 
ATOM     11  C   UNL     1       6.740  -1.716  24.266  0.00  0.00    +0.010 A 
ATOM     12  C   UNL     1       6.886  -2.797  25.172  0.00  0.00    +0.034 A 
ATOM     13  C   UNL     1       6.705  -4.105  24.727  0.00  0.00    +0.034 A 
ATOM     14  C   UNL     1       6.278  -4.346  23.422  0.00  0.00    +0.025 A 
ATOM     15  C   UNL     1       6.048  -3.299  22.525  0.00  0.00    +0.028 A 
ATOM     16  C   UNL     1       6.314  -2.006  22.961  0.00  0.00    +0.048 A 
ATOM     17  N   UNL     1       6.330  -0.825  22.226  0.00  0.00    -0.354 N 
ATOM     18  H   UNL     1       6.133  -0.779  21.236  0.00  0.00    +0.166 HD
ATOM     19  C   UNL     1       7.051   0.119  22.915  0.00  0.00    +0.049 A 
ATOM     20  C   UNL     1       7.728   1.257  22.495  0.00  0.00    +0.035 A 
ENDROOT
BRANCH   1  23
ATOM     21 CL   UNL     1       6.167   3.972  22.647  0.00  0.00    -0.083 Cl
ATOM     22  C   UNL     1       7.799   4.338  23.056  0.00  0.00    +0.049 A 
ATOM     23  C   UNL     1       8.761   3.363  23.381  0.00  0.00    +0.001 A 
ATOM     24  C   UNL     1      10.061   3.859  23.679  0.00  0.00    +0.010 A 
ATOM     25  C   UNL     1      10.379   5.223  23.696  0.00  0.00    +0.001 A 
ATOM     26  C   UNL     1       9.402   6.151  23.386  0.00  0.00    +0.001 A 
ATOM     27  C   UNL     1       8.123   5.708  23.061  0.00  0.00    +0.020 A 
ENDBRANCH   1  23
BRANCH  13  28
ATOM     28  N   UNL     1       7.027  -5.131  25.634  0.00  0.00    -0.288 N 
ATOM     29  H   UNL     1       7.083  -6.082  25.288  0.00  0.00    +0.155 HD
ATOM     30  C   UNL     1       7.229  -5.026  26.978  0.00  0.00    +0.330 C 
ATOM     31  O   UNL     1       7.477  -5.995  27.689  0.00  0.00    -0.279 OA
ENDBRANCH  13  28
TORSDOF 2
ENDMDL
MODEL 8
REMARK VINA RESULT:      -7.6      2.591      3.947
REMARK  Name = 
REMARK  2 active torsions:
REMARK  status: ('A' for Active; 'I' for Inactive)
REMARK    1  A    between atoms: C_7  and  C_8
REMARK    2  A    between atoms: C_17  and  N_18
REMARK                            x       y       z     vdW  Elec       q    Type
REMARK                         _______ _______ _______ _____ _____    ______ ____
ROOT
ATOM      1  C   UNL     1       8.800   0.374  24.112  0.00  0.00    -0.001 A 
ATOM      2  C   UNL     1       7.785  -0.079  24.971  0.00  0.00    +0.060 A 
ATOM      3  C   UNL     1       7.878  -0.452  26.371  0.00  0.00    +0.260 A 
ATOM      4  N   UNL     1       6.580  -0.746  26.715  0.00  0.00    -0.289 N 
ATOM      5  H   UNL     1       6.371  -1.192  27.590  0.00  0.00    +0.172 HD
ATOM      6  C   UNL     1       5.749  -0.967  25.656  0.00  0.00    +0.260 A 
ATOM      7  O   UNL     1       4.567  -1.250  25.745  0.00  0.00    -0.267 OA
ATOM      8  O   UNL     1       8.832  -0.766  27.074  0.00  0.00    -0.267 OA
ATOM      9  C   UNL     1       6.644  -0.803  24.553  0.00  0.00    +0.062 A 
ATOM     10  C   UNL     1       6.894  -1.607  23.415  0.00  0.00    +0.021 A 
ATOM     11  C   UNL     1       6.411  -2.916  23.343  0.00  0.00    +0.010 A 
ATOM     12  C   UNL     1       5.508  -3.757  24.041  0.00  0.00    +0.034 A 
ATOM     13  C   UNL     1       5.521  -5.131  23.813  0.00  0.00    +0.034 A 
ATOM     14  C   UNL     1       6.346  -5.668  22.825  0.00  0.00    +0.025 A 
ATOM     15  C   UNL     1       7.193  -4.857  22.063  0.00  0.00    +0.028 A 
ATOM     16  C   UNL     1       7.226  -3.500  22.361  0.00  0.00    +0.048 A 
ATOM     17  N   UNL     1       8.089  -2.523  21.876  0.00  0.00    -0.354 N 
ATOM     18  H   UNL     1       8.826  -2.708  21.209  0.00  0.00    +0.166 HD
ATOM     19  C   UNL     1       8.072  -1.448  22.731  0.00  0.00    +0.049 A 
ATOM     20  C   UNL     1       9.000  -0.443  22.975  0.00  0.00    +0.035 A 
ENDROOT
BRANCH   1  23
ATOM     21 CL   UNL     1       6.889   2.870  25.111  0.00  0.00    -0.083 Cl
ATOM     22  C   UNL     1       8.478   2.940  24.451  0.00  0.00    +0.049 A 
ATOM     23  C   UNL     1       9.215   1.805  24.064  0.00  0.00    +0.001 A 
ATOM     24  C   UNL     1      10.507   2.064  23.529  0.00  0.00    +0.010 A 
ATOM     25  C   UNL     1      11.051   3.351  23.422  0.00  0.00    +0.001 A 
ATOM     26  C   UNL     1      10.302   4.440  23.828  0.00  0.00    +0.001 A 
ATOM     27  C   UNL     1       9.021   4.234  24.332  0.00  0.00    +0.020 A 
ENDBRANCH   1  23
BRANCH  13  28
ATOM     28  N   UNL     1       4.718  -5.920  24.658  0.00  0.00    -0.288 N 
ATOM     29  H   UNL     1       4.471  -5.553  25.570  0.00  0.00    +0.155 HD
ATOM     30  C   UNL     1       4.253  -7.181  24.431  0.00  0.00    +0.330 C 
ATOM     31  O   UNL     1       3.579  -7.797  25.251  0.00  0.00    -0.279 OA
ENDBRANCH  13  28
TORSDOF 2
ENDMDL
MODEL 9
REMARK VINA RESULT:      -7.6      3.017      3.920
REMARK  Name = 
REMARK  2 active torsions:
REMARK  status: ('A' for Active; 'I' for Inactive)
REMARK    1  A    between atoms: C_7  and  C_8
REMARK    2  A    between atoms: C_17  and  N_18
REMARK                            x       y       z     vdW  Elec       q    Type
REMARK                         _______ _______ _______ _____ _____    ______ ____
ROOT
ATOM      1  C   UNL     1       8.268   1.281  24.775  0.00  0.00    -0.001 A 
ATOM      2  C   UNL     1       7.173   0.586  25.314  0.00  0.00    +0.060 A 
ATOM      3  C   UNL     1       6.633   0.641  26.660  0.00  0.00    +0.260 A 
ATOM      4  N   UNL     1       5.534  -0.183  26.603  0.00  0.00    -0.289 N 
ATOM      5  H   UNL     1       5.059  -0.460  27.443  0.00  0.00    +0.172 HD
ATOM      6  C   UNL     1       5.515  -1.028  25.533  0.00  0.00    +0.260 A 
ATOM      7  O   UNL     1       4.637  -1.841  25.304  0.00  0.00    -0.267 OA
ATOM      8  O   UNL     1       7.114   1.023  27.721  0.00  0.00    -0.267 OA
ATOM      9  C   UNL     1       6.741  -0.689  24.880  0.00  0.00    +0.062 A 
ATOM     10  C   UNL     1       7.802  -1.490  24.396  0.00  0.00    +0.021 A 
ATOM     11  C   UNL     1       7.898  -2.840  24.743  0.00  0.00    +0.010 A 
ATOM     12  C   UNL     1       7.104  -3.837  25.362  0.00  0.00    +0.034 A 
ATOM     13  C   UNL     1       7.691  -5.026  25.791  0.00  0.00    +0.034 A 
ATOM     14  C   UNL     1       9.034  -5.279  25.518  0.00  0.00    +0.025 A 
ATOM     15  C   UNL     1       9.829  -4.349  24.840  0.00  0.00    +0.028 A 
ATOM     16  C   UNL     1       9.247  -3.135  24.493  0.00  0.00    +0.048 A 
ATOM     17  N   UNL     1       9.852  -1.996  23.973  0.00  0.00    -0.354 N 
ATOM     18  H   UNL     1      10.841  -1.929  23.776  0.00  0.00    +0.166 HD
ATOM     19  C   UNL     1       9.031  -0.917  24.190  0.00  0.00    +0.049 A 
ATOM     20  C   UNL     1       9.295   0.445  24.279  0.00  0.00    +0.035 A 
ENDROOT
BRANCH   1  23
ATOM     21 CL   UNL     1       7.485   1.996  21.652  0.00  0.00    -0.083 Cl
ATOM     22  C   UNL     1       7.826   3.083  22.942  0.00  0.00    +0.049 A 
ATOM     23  C   UNL     1       8.142   2.671  24.251  0.00  0.00    +0.001 A 
ATOM     24  C   UNL     1       8.405   3.717  25.178  0.00  0.00    +0.010 A 
ATOM     25  C   UNL     1       8.322   5.076  24.848  0.00  0.00    +0.001 A 
ATOM     26  C   UNL     1       7.993   5.442  23.556  0.00  0.00    +0.001 A 
ATOM     27  C   UNL     1       7.755   4.450  22.609  0.00  0.00    +0.020 A 
ENDBRANCH   1  23
BRANCH  13  28
ATOM     28  N   UNL     1       6.881  -5.896  26.542  0.00  0.00    -0.288 N 
ATOM     29  H   UNL     1       7.293  -6.376  27.334  0.00  0.00    +0.155 HD
ATOM     30  C   UNL     1       5.581  -6.238  26.311  0.00  0.00    +0.330 C 
ATOM     31  O   UNL     1       4.970  -7.035  27.016  0.00  0.00    -0.279 OA
ENDBRANCH  13  28
TORSDOF 2
ENDMDL
