MODEL 1
REMARK VINA RESULT:      -6.0      0.000      0.000
REMARK  Name = 
REMARK  11 active torsions:
REMARK  status: ('A' for Active; 'I' for Inactive)
REMARK    1  A    between atoms: C_1  and  C_2
REMARK    2  A    between atoms: C_2  and  C_3
REMARK    3  A    between atoms: C_2  and  N_4
REMARK    4  A    between atoms: N_4  and  C_5
REMARK    5  A    between atoms: C_5  and  C_6
REMARK    6  A    between atoms: C_6  and  O_7
REMARK    7  A    between atoms: C_6  and  C_8
REMARK    8  A    between atoms: C_8  and  O_9
REMARK    9  A    between atoms: O_9  and  C_10
REMARK   10  A    between atoms: C_13  and  C_14
REMARK   11  A    between atoms: C_14  and  C_15
REMARK                            x       y       z     vdW  Elec       q    Type
REMARK                         _______ _______ _______ _____ _____    ______ ____
ROOT
ATOM      1  C   UNL     1       9.812  -1.968  23.373  0.00  0.00    +0.121 A 
ATOM      2  C   UNL     1      10.008  -0.969  24.332  0.00  0.00    +0.046 A 
ATOM      3  C   UNL     1      10.055   0.383  23.955  0.00  0.00    +0.007 A 
ATOM      4  C   UNL     1       9.916   0.750  22.610  0.00  0.00    -0.038 A 
ATOM      5  C   UNL     1       9.660  -0.245  21.667  0.00  0.00    +0.007 A 
ATOM      6  C   UNL     1       9.606  -1.589  22.044  0.00  0.00    +0.046 A 
ENDROOT
BRANCH   1   7
ATOM      7  O   UNL     1       9.859  -3.267  23.822  0.00  0.00    -0.489 OA
BRANCH   7   8
ATOM      8  C   UNL     1       9.190  -3.492  25.074  0.00  0.00    +0.261 C 
BRANCH   8   9
ATOM      9  C   UNL     1       8.705  -4.939  25.204  0.00  0.00    +0.166 C 
BRANCH   9  10
ATOM     10  O   UNL     1       9.762  -5.850  24.874  0.00  0.00    -0.387 OA
ATOM     11  H   UNL     1       9.719  -6.563  25.536  0.00  0.00    +0.210 HD
ENDBRANCH   9  10
BRANCH   9  12
ATOM     12  C   UNL     1       7.475  -5.209  24.321  0.00  0.00    +0.115 C 
BRANCH  12  13
ATOM     13  N   UNL     1       7.909  -5.457  22.940  0.00  0.00    -0.311 NA
ATOM     14  H   UNL     1       8.896  -5.196  22.869  0.00  0.00    +0.122 HD
BRANCH  13  16
ATOM     15  C   UNL     1       6.154  -5.749  21.293  0.00  0.00    +0.023 C 
ATOM     16  C   UNL     1       7.117  -4.745  21.934  0.00  0.00    +0.048 C 
ATOM     17  C   UNL     1       6.320  -3.591  22.547  0.00  0.00    +0.023 C 
ENDBRANCH  13  16
ENDBRANCH  12  13
ENDBRANCH   9  12
ENDBRANCH   8   9
ENDBRANCH   7   8
ENDBRANCH   1   7
BRANCH   4  18
ATOM     18  C   UNL     1      10.114   2.179  22.151  0.00  0.00    +0.130 C 
BRANCH  18  19
ATOM     19  C   UNL     1      10.309   3.254  23.202  0.00  0.00    +0.215 C 
ATOM     20  O   UNL     1       9.425   3.543  24.005  0.00  0.00    -0.276 OA
ATOM     21  N   UNL     1      11.496   3.915  23.251  0.00  0.00    -0.329 N 
ATOM     22  H   UNL     1      11.589   4.645  23.946  0.00  0.00    +0.145 HD
ATOM     23  H   UNL     1      12.232   3.794  22.569  0.00  0.00    +0.145 HD
ENDBRANCH  18  19
ENDBRANCH   4  18
TORSDOF 9
ENDMDL
MODEL 2
REMARK VINA RESULT:      -6.0      1.239      1.689
REMARK  Name = 
REMARK  11 active torsions:
REMARK  status: ('A' for Active; 'I' for Inactive)
REMARK    1  A    between atoms: C_1  and  C_2
REMARK    2  A    between atoms: C_2  and  C_3
REMARK    3  A    between atoms: C_2  and  N_4
REMARK    4  A    between atoms: N_4  and  C_5
REMARK    5  A    between atoms: C_5  and  C_6
REMARK    6  A    between atoms: C_6  and  O_7
REMARK    7  A    between atoms: C_6  and  C_8
REMARK    8  A    between atoms: C_8  and  O_9
REMARK    9  A    between atoms: O_9  and  C_10
REMARK   10  A    between atoms: C_13  and  C_14
REMARK   11  A    between atoms: C_14  and  C_15
REMARK                            x       y       z     vdW  Elec       q    Type
REMARK                         _______ _______ _______ _____ _____    ______ ____
ROOT
ATOM      1  C   UNL     1       9.927  -1.970  23.548  0.00  0.00    +0.121 A 
ATOM      2  C   UNL     1       9.701  -1.813  22.178  0.00  0.00    +0.046 A 
ATOM      3  C   UNL     1       9.620  -0.531  21.610  0.00  0.00    +0.007 A 
ATOM      4  C   UNL     1       9.753   0.610  22.412  0.00  0.00    -0.038 A 
ATOM      5  C   UNL     1      10.039   0.447  23.767  0.00  0.00    +0.007 A 
ATOM      6  C   UNL     1      10.127  -0.829  24.330  0.00  0.00    +0.046 A 
ENDROOT
BRANCH   1   7
ATOM      7  O   UNL     1       9.914  -3.258  24.028  0.00  0.00    -0.489 OA
BRANCH   7   8
ATOM      8  C   UNL     1       9.124  -3.447  25.214  0.00  0.00    +0.261 C 
BRANCH   8   9
ATOM      9  C   UNL     1       8.688  -4.906  25.377  0.00  0.00    +0.166 C 
BRANCH   9  10
ATOM     10  O   UNL     1       9.790  -5.787  25.124  0.00  0.00    -0.387 OA
ATOM     11  H   UNL     1       9.398  -6.650  24.896  0.00  0.00    +0.210 HD
ENDBRANCH   9  10
BRANCH   9  12
ATOM     12  C   UNL     1       7.507  -5.254  24.454  0.00  0.00    +0.115 C 
BRANCH  12  13
ATOM     13  N   UNL     1       7.994  -5.420  23.079  0.00  0.00    -0.311 NA
ATOM     14  H   UNL     1       8.972  -5.121  23.053  0.00  0.00    +0.122 HD
BRANCH  13  16
ATOM     15  C   UNL     1       6.398  -5.712  21.276  0.00  0.00    +0.023 C 
ATOM     16  C   UNL     1       7.207  -4.691  22.081  0.00  0.00    +0.048 C 
ATOM     17  C   UNL     1       6.257  -3.682  22.729  0.00  0.00    +0.023 C 
ENDBRANCH  13  16
ENDBRANCH  12  13
ENDBRANCH   9  12
ENDBRANCH   8   9
ENDBRANCH   7   8
ENDBRANCH   1   7
BRANCH   4  18
ATOM     18  C   UNL     1       9.519   2.001  21.862  0.00  0.00    +0.130 C 
BRANCH  18  19
ATOM     19  C   UNL     1       8.166   2.649  22.089  0.00  0.00    +0.215 C 
ATOM     20  O   UNL     1       7.116   2.037  21.903  0.00  0.00    -0.276 OA
ATOM     21  N   UNL     1       8.119   3.942  22.505  0.00  0.00    -0.329 N 
ATOM     22  H   UNL     1       7.203   4.355  22.623  0.00  0.00    +0.145 HD
ATOM     23  H   UNL     1       8.936   4.532  22.591  0.00  0.00    +0.145 HD
ENDBRANCH  18  19
ENDBRANCH   4  18
TORSDOF 9
ENDMDL
MODEL 3
REMARK VINA RESULT:      -5.8      2.356      6.900
REMARK  Name = 
REMARK  11 active torsions:
REMARK  status: ('A' for Active; 'I' for Inactive)
REMARK    1  A    between atoms: C_1  and  C_2
REMARK    2  A    between atoms: C_2  and  C_3
REMARK    3  A    between atoms: C_2  and  N_4
REMARK    4  A    between atoms: N_4  and  C_5
REMARK    5  A    between atoms: C_5  and  C_6
REMARK    6  A    between atoms: C_6  and  O_7
REMARK    7  A    between atoms: C_6  and  C_8
REMARK    8  A    between atoms: C_8  and  O_9
REMARK    9  A    between atoms: O_9  and  C_10
REMARK   10  A    between atoms: C_13  and  C_14
REMARK   11  A    between atoms: C_14  and  C_15
REMARK                            x       y       z     vdW  Elec       q    Type
REMARK                         _______ _______ _______ _____ _____    ______ ____
ROOT
ATOM      1  C   UNL     1       9.454  -2.069  23.139  0.00  0.00    +0.121 A 
ATOM      2  C   UNL     1       8.352  -2.135  22.282  0.00  0.00    +0.046 A 
ATOM      3  C   UNL     1       7.386  -3.143  22.437  0.00  0.00    +0.007 A 
ATOM      4  C   UNL     1       7.519  -4.104  23.448  0.00  0.00    -0.038 A 
ATOM      5  C   UNL     1       8.588  -3.996  24.337  0.00  0.00    +0.007 A 
ATOM      6  C   UNL     1       9.545  -2.989  24.186  0.00  0.00    +0.046 A 
ENDROOT
BRANCH   1   7
ATOM      7  O   UNL     1      10.388  -1.098  22.863  0.00  0.00    -0.489 OA
BRANCH   7   8
ATOM      8  C   UNL     1       9.956  -0.103  21.921  0.00  0.00    +0.261 C 
BRANCH   8   9
ATOM      9  C   UNL     1       9.837   1.279  22.571  0.00  0.00    +0.166 C 
BRANCH   9  10
ATOM     10  O   UNL     1      10.249   2.299  21.651  0.00  0.00    -0.387 OA
ATOM     11  H   UNL     1      10.839   2.891  22.153  0.00  0.00    +0.210 HD
ENDBRANCH   9  10
BRANCH   9  12
ATOM     12  C   UNL     1      10.659   1.370  23.868  0.00  0.00    +0.115 C 
BRANCH  12  13
ATOM     13  N   UNL     1       9.788   1.101  25.020  0.00  0.00    -0.311 NA
ATOM     14  H   UNL     1       9.908   0.119  25.283  0.00  0.00    +0.122 HD
BRANCH  13  16
ATOM     15  C   UNL     1       7.546   0.219  25.294  0.00  0.00    +0.023 C 
ATOM     16  C   UNL     1       8.374   1.396  24.773  0.00  0.00    +0.048 C 
ATOM     17  C   UNL     1       7.929   2.684  25.470  0.00  0.00    +0.023 C 
ENDBRANCH  13  16
ENDBRANCH  12  13
ENDBRANCH   9  12
ENDBRANCH   8   9
ENDBRANCH   7   8
ENDBRANCH   1   7
BRANCH   4  18
ATOM     18  C   UNL     1       6.583  -5.289  23.549  0.00  0.00    +0.130 C 
BRANCH  18  19
ATOM     19  C   UNL     1       5.527  -5.468  22.474  0.00  0.00    +0.215 C 
ATOM     20  O   UNL     1       4.432  -4.915  22.545  0.00  0.00    -0.276 OA
ATOM     21  N   UNL     1       5.805  -6.265  21.409  0.00  0.00    -0.329 N 
ATOM     22  H   UNL     1       5.072  -6.387  20.721  0.00  0.00    +0.145 HD
ATOM     23  H   UNL     1       6.646  -6.821  21.330  0.00  0.00    +0.145 HD
ENDBRANCH  18  19
ENDBRANCH   4  18
TORSDOF 9
ENDMDL
MODEL 4
REMARK VINA RESULT:      -5.8      1.947      2.401
REMARK  Name = 
REMARK  11 active torsions:
REMARK  status: ('A' for Active; 'I' for Inactive)
REMARK    1  A    between atoms: C_1  and  C_2
REMARK    2  A    between atoms: C_2  and  C_3
REMARK    3  A    between atoms: C_2  and  N_4
REMARK    4  A    between atoms: N_4  and  C_5
REMARK    5  A    between atoms: C_5  and  C_6
REMARK    6  A    between atoms: C_6  and  O_7
REMARK    7  A    between atoms: C_6  and  C_8
REMARK    8  A    between atoms: C_8  and  O_9
REMARK    9  A    between atoms: O_9  and  C_10
REMARK   10  A    between atoms: C_13  and  C_14
REMARK   11  A    between atoms: C_14  and  C_15
REMARK                            x       y       z     vdW  Elec       q    Type
REMARK                         _______ _______ _______ _____ _____    ______ ____
ROOT
ATOM      1  C   UNL     1       8.831  -2.305  25.195  0.00  0.00    +0.121 A 
ATOM      2  C   UNL     1       8.149  -1.106  24.969  0.00  0.00    +0.046 A 
ATOM      3  C   UNL     1       8.331  -0.396  23.772  0.00  0.00    +0.007 A 
ATOM      4  C   UNL     1       9.208  -0.874  22.789  0.00  0.00    -0.038 A 
ATOM      5  C   UNL     1       9.839  -2.101  22.994  0.00  0.00    +0.007 A 
ATOM      6  C   UNL     1       9.651  -2.811  24.183  0.00  0.00    +0.046 A 
ENDROOT
BRANCH   1   7
ATOM      7  O   UNL     1       8.651  -2.890  26.427  0.00  0.00    -0.489 OA
BRANCH   7   8
ATOM      8  C   UNL     1       8.691  -4.326  26.419  0.00  0.00    +0.261 C 
BRANCH   8   9
ATOM      9  C   UNL     1       7.380  -4.932  26.931  0.00  0.00    +0.166 C 
BRANCH   9  10
ATOM     10  O   UNL     1       7.650  -6.036  27.806  0.00  0.00    -0.387 OA
ATOM     11  H   UNL     1       8.244  -5.692  28.498  0.00  0.00    +0.210 HD
ENDBRANCH   9  10
BRANCH   9  12
ATOM     12  C   UNL     1       6.470  -5.380  25.775  0.00  0.00    +0.115 C 
BRANCH  12  13
ATOM     13  N   UNL     1       7.167  -5.182  24.498  0.00  0.00    -0.311 NA
ATOM     14  H   UNL     1       7.884  -4.465  24.639  0.00  0.00    +0.122 HD
BRANCH  13  16
ATOM     15  C   UNL     1       5.610  -3.483  23.747  0.00  0.00    +0.023 C 
ATOM     16  C   UNL     1       6.281  -4.812  23.391  0.00  0.00    +0.048 C 
ATOM     17  C   UNL     1       7.045  -4.664  22.073  0.00  0.00    +0.023 C 
ENDBRANCH  13  16
ENDBRANCH  12  13
ENDBRANCH   9  12
ENDBRANCH   8   9
ENDBRANCH   7   8
ENDBRANCH   1   7
BRANCH   4  18
ATOM     18  C   UNL     1       9.544  -0.060  21.558  0.00  0.00    +0.130 C 
BRANCH  18  19
ATOM     19  C   UNL     1       9.180   1.412  21.544  0.00  0.00    +0.215 C 
ATOM     20  O   UNL     1       8.033   1.793  21.320  0.00  0.00    -0.276 OA
ATOM     21  N   UNL     1      10.153   2.330  21.784  0.00  0.00    -0.329 N 
ATOM     22  H   UNL     1       9.887   3.306  21.743  0.00  0.00    +0.145 HD
ATOM     23  H   UNL     1      11.131   2.096  21.885  0.00  0.00    +0.145 HD
ENDBRANCH  18  19
ENDBRANCH   4  18
TORSDOF 9
ENDMDL
MODEL 5
REMARK VINA RESULT:      -5.6      2.148      2.920
REMARK  Name = 
REMARK  11 active torsions:
REMARK  status: ('A' for Active; 'I' for Inactive)
REMARK    1  A    between atoms: C_1  and  C_2
REMARK    2  A    between atoms: C_2  and  C_3
REMARK    3  A    between atoms: C_2  and  N_4
REMARK    4  A    between atoms: N_4  and  C_5
REMARK    5  A    between atoms: C_5  and  C_6
REMARK    6  A    between atoms: C_6  and  O_7
REMARK    7  A    between atoms: C_6  and  C_8
REMARK    8  A    between atoms: C_8  and  O_9
REMARK    9  A    between atoms: O_9  and  C_10
REMARK   10  A    between atoms: C_13  and  C_14
REMARK   11  A    between atoms: C_14  and  C_15
REMARK                            x       y       z     vdW  Elec       q    Type
REMARK                         _______ _______ _______ _____ _____    ______ ____
ROOT
ATOM      1  C   UNL     1      10.017  -1.960  23.449  0.00  0.00    +0.121 A 
ATOM      2  C   UNL     1      10.079  -1.030  24.491  0.00  0.00    +0.046 A 
ATOM      3  C   UNL     1      10.025   0.347  24.223  0.00  0.00    +0.007 A 
ATOM      4  C   UNL     1       9.919   0.810  22.904  0.00  0.00    -0.038 A 
ATOM      5  C   UNL     1       9.796  -0.123  21.875  0.00  0.00    +0.007 A 
ATOM      6  C   UNL     1       9.843  -1.493  22.144  0.00  0.00    +0.046 A 
ENDROOT
BRANCH   1   7
ATOM      7  O   UNL     1      10.156  -3.283  23.799  0.00  0.00    -0.489 OA
BRANCH   7   8
ATOM      8  C   UNL     1       8.985  -3.872  24.389  0.00  0.00    +0.261 C 
BRANCH   8   9
ATOM      9  C   UNL     1       9.302  -4.539  25.730  0.00  0.00    +0.166 C 
BRANCH   9  10
ATOM     10  O   UNL     1       9.523  -5.945  25.547  0.00  0.00    -0.387 OA
ATOM     11  H   UNL     1       8.959  -6.393  26.203  0.00  0.00    +0.210 HD
ENDBRANCH   9  10
BRANCH   9  12
ATOM     12  C   UNL     1       8.183  -4.307  26.760  0.00  0.00    +0.115 C 
BRANCH  12  13
ATOM     13  N   UNL     1       7.808  -5.589  27.372  0.00  0.00    -0.311 NA
ATOM     14  H   UNL     1       7.997  -6.330  26.691  0.00  0.00    +0.122 HD
BRANCH  13  16
ATOM     15  C   UNL     1       5.564  -6.163  26.655  0.00  0.00    +0.023 C 
ATOM     16  C   UNL     1       6.414  -5.645  27.819  0.00  0.00    +0.048 C 
ATOM     17  C   UNL     1       6.239  -6.564  29.029  0.00  0.00    +0.023 C 
ENDBRANCH  13  16
ENDBRANCH  12  13
ENDBRANCH   9  12
ENDBRANCH   8   9
ENDBRANCH   7   8
ENDBRANCH   1   7
BRANCH   4  18
ATOM     18  C   UNL     1      10.012   2.283  22.568  0.00  0.00    +0.130 C 
BRANCH  18  19
ATOM     19  C   UNL     1       8.909   3.205  23.050  0.00  0.00    +0.215 C 
ATOM     20  O   UNL     1       8.873   3.622  24.206  0.00  0.00    -0.276 OA
ATOM     21  N   UNL     1       7.933   3.573  22.178  0.00  0.00    -0.329 N 
ATOM     22  H   UNL     1       7.196   4.168  22.535  0.00  0.00    +0.145 HD
ATOM     23  H   UNL     1       7.848   3.198  21.243  0.00  0.00    +0.145 HD
ENDBRANCH  18  19
ENDBRANCH   4  18
TORSDOF 9
ENDMDL
MODEL 6
REMARK VINA RESULT:      -5.5      2.489      6.655
REMARK  Name = 
REMARK  11 active torsions:
REMARK  status: ('A' for Active; 'I' for Inactive)
REMARK    1  A    between atoms: C_1  and  C_2
REMARK    2  A    between atoms: C_2  and  C_3
REMARK    3  A    between atoms: C_2  and  N_4
REMARK    4  A    between atoms: N_4  and  C_5
REMARK    5  A    between atoms: C_5  and  C_6
REMARK    6  A    between atoms: C_6  and  O_7
REMARK    7  A    between atoms: C_6  and  C_8
REMARK    8  A    between atoms: C_8  and  O_9
REMARK    9  A    between atoms: O_9  and  C_10
REMARK   10  A    between atoms: C_13  and  C_14
REMARK   11  A    between atoms: C_14  and  C_15
REMARK                            x       y       z     vdW  Elec       q    Type
REMARK                         _______ _______ _______ _____ _____    ______ ____
ROOT
ATOM      1  C   UNL     1       8.743  -2.219  22.546  0.00  0.00    +0.121 A 
ATOM      2  C   UNL     1       9.829  -2.291  23.423  0.00  0.00    +0.046 A 
ATOM      3  C   UNL     1       9.900  -3.306  24.390  0.00  0.00    +0.007 A 
ATOM      4  C   UNL     1       8.875  -4.257  24.497  0.00  0.00    -0.038 A 
ATOM      5  C   UNL     1       7.825  -4.216  23.580  0.00  0.00    +0.007 A 
ATOM      6  C   UNL     1       7.760  -3.209  22.613  0.00  0.00    +0.046 A 
ENDROOT
BRANCH   1   7
ATOM      7  O   UNL     1       8.720  -1.146  21.685  0.00  0.00    -0.489 OA
BRANCH   7   8
ATOM      8  C   UNL     1       9.576  -0.056  22.064  0.00  0.00    +0.261 C 
BRANCH   8   9
ATOM      9  C   UNL     1       9.054   1.283  21.537  0.00  0.00    +0.166 C 
BRANCH   9  10
ATOM     10  O   UNL     1      10.106   2.258  21.525  0.00  0.00    -0.387 OA
ATOM     11  H   UNL     1      10.934   1.762  21.664  0.00  0.00    +0.210 HD
ENDBRANCH   9  10
BRANCH   9  12
ATOM     12  C   UNL     1       7.863   1.797  22.365  0.00  0.00    +0.115 C 
BRANCH  12  13
ATOM     13  N   UNL     1       7.527   0.812  23.400  0.00  0.00    -0.311 NA
ATOM     14  H   UNL     1       6.580   0.471  23.215  0.00  0.00    +0.122 HD
BRANCH  13  16
ATOM     15  C   UNL     1       8.229   0.235  25.649  0.00  0.00    +0.023 C 
ATOM     16  C   UNL     1       7.627   1.332  24.766  0.00  0.00    +0.048 C 
ATOM     17  C   UNL     1       8.502   2.585  24.837  0.00  0.00    +0.023 C 
ENDBRANCH  13  16
ENDBRANCH  12  13
ENDBRANCH   9  12
ENDBRANCH   8   9
ENDBRANCH   7   8
ENDBRANCH   1   7
BRANCH   4  18
ATOM     18  C   UNL     1       8.843  -5.269  25.622  0.00  0.00    +0.130 C 
BRANCH  18  19
ATOM     19  C   UNL     1       7.920  -5.011  26.798  0.00  0.00    +0.215 C 
ATOM     20  O   UNL     1       7.598  -3.873  27.131  0.00  0.00    -0.276 OA
ATOM     21  N   UNL     1       7.443  -6.072  27.502  0.00  0.00    -0.329 N 
ATOM     22  H   UNL     1       6.850  -5.869  28.297  0.00  0.00    +0.145 HD
ATOM     23  H   UNL     1       7.736  -7.026  27.343  0.00  0.00    +0.145 HD
ENDBRANCH  18  19
ENDBRANCH   4  18
TORSDOF 9
ENDMDL
MODEL 7
REMARK VINA RESULT:      -5.5      1.639      2.883
REMARK  Name = 
REMARK  11 active torsions:
REMARK  status: ('A' for Active; 'I' for Inactive)
REMARK    1  A    between atoms: C_1  and  C_2
REMARK    2  A    between atoms: C_2  and  C_3
REMARK    3  A    between atoms: C_2  and  N_4
REMARK    4  A    between atoms: N_4  and  C_5
REMARK    5  A    between atoms: C_5  and  C_6
REMARK    6  A    between atoms: C_6  and  O_7
REMARK    7  A    between atoms: C_6  and  C_8
REMARK    8  A    between atoms: C_8  and  O_9
REMARK    9  A    between atoms: O_9  and  C_10
REMARK   10  A    between atoms: C_13  and  C_14
REMARK   11  A    between atoms: C_14  and  C_15
REMARK                            x       y       z     vdW  Elec       q    Type
REMARK                         _______ _______ _______ _____ _____    ______ ____
ROOT
ATOM      1  C   UNL     1       9.385  -1.319  22.815  0.00  0.00    +0.121 A 
ATOM      2  C   UNL     1       9.347  -0.417  21.748  0.00  0.00    +0.046 A 
ATOM      3  C   UNL     1       9.805   0.901  21.912  0.00  0.00    +0.007 A 
ATOM      4  C   UNL     1      10.296   1.333  23.151  0.00  0.00    -0.038 A 
ATOM      5  C   UNL     1      10.388   0.411  24.193  0.00  0.00    +0.007 A 
ATOM      6  C   UNL     1       9.938  -0.902  24.027  0.00  0.00    +0.046 A 
ENDROOT
BRANCH   1   7
ATOM      7  O   UNL     1       8.843  -2.563  22.585  0.00  0.00    -0.489 OA
BRANCH   7   8
ATOM      8  C   UNL     1       7.423  -2.566  22.368  0.00  0.00    +0.261 C 
BRANCH   8   9
ATOM      9  C   UNL     1       6.895  -3.979  22.100  0.00  0.00    +0.166 C 
BRANCH   9  10
ATOM     10  O   UNL     1       5.562  -3.920  21.572  0.00  0.00    -0.387 OA
ATOM     11  H   UNL     1       5.584  -3.255  20.860  0.00  0.00    +0.210 HD
ENDBRANCH   9  10
BRANCH   9  12
ATOM     12  C   UNL     1       6.926  -4.849  23.369  0.00  0.00    +0.115 C 
BRANCH  12  13
ATOM     13  N   UNL     1       6.948  -3.983  24.555  0.00  0.00    -0.311 NA
ATOM     14  H   UNL     1       7.209  -3.041  24.252  0.00  0.00    +0.122 HD
BRANCH  13  16
ATOM     15  C   UNL     1       8.972  -5.259  24.952  0.00  0.00    +0.023 C 
ATOM     16  C   UNL     1       7.850  -4.450  25.611  0.00  0.00    +0.048 C 
ATOM     17  C   UNL     1       8.453  -3.289  26.403  0.00  0.00    +0.023 C 
ENDBRANCH  13  16
ENDBRANCH  12  13
ENDBRANCH   9  12
ENDBRANCH   8   9
ENDBRANCH   7   8
ENDBRANCH   1   7
BRANCH   4  18
ATOM     18  C   UNL     1      10.653   2.782  23.404  0.00  0.00    +0.130 C 
BRANCH  18  19
ATOM     19  C   UNL     1       9.563   3.721  23.885  0.00  0.00    +0.215 C 
ATOM     20  O   UNL     1       8.767   3.392  24.761  0.00  0.00    -0.276 OA
ATOM     21  N   UNL     1       9.467   4.955  23.325  0.00  0.00    -0.329 N 
ATOM     22  H   UNL     1       8.715   5.550  23.647  0.00  0.00    +0.145 HD
ATOM     23  H   UNL     1      10.028   5.259  22.540  0.00  0.00    +0.145 HD
ENDBRANCH  18  19
ENDBRANCH   4  18
TORSDOF 9
ENDMDL
MODEL 8
REMARK VINA RESULT:      -5.5      1.937      2.788
REMARK  Name = 
REMARK  11 active torsions:
REMARK  status: ('A' for Active; 'I' for Inactive)
REMARK    1  A    between atoms: C_1  and  C_2
REMARK    2  A    between atoms: C_2  and  C_3
REMARK    3  A    between atoms: C_2  and  N_4
REMARK    4  A    between atoms: N_4  and  C_5
REMARK    5  A    between atoms: C_5  and  C_6
REMARK    6  A    between atoms: C_6  and  O_7
REMARK    7  A    between atoms: C_6  and  C_8
REMARK    8  A    between atoms: C_8  and  O_9
REMARK    9  A    between atoms: O_9  and  C_10
REMARK   10  A    between atoms: C_13  and  C_14
REMARK   11  A    between atoms: C_14  and  C_15
REMARK                            x       y       z     vdW  Elec       q    Type
REMARK                         _______ _______ _______ _____ _____    ______ ____
ROOT
ATOM      1  C   UNL     1      10.207  -0.311  22.879  0.00  0.00    +0.121 A 
ATOM      2  C   UNL     1      10.383   0.176  24.177  0.00  0.00    +0.046 A 
ATOM      3  C   UNL     1      10.215   1.542  24.456  0.00  0.00    +0.007 A 
ATOM      4  C   UNL     1       9.880   2.439  23.433  0.00  0.00    -0.038 A 
ATOM      5  C   UNL     1       9.646   1.938  22.153  0.00  0.00    +0.007 A 
ATOM      6  C   UNL     1       9.806   0.577  21.878  0.00  0.00    +0.046 A 
ENDROOT
BRANCH   1   7
ATOM      7  O   UNL     1      10.469  -1.648  22.685  0.00  0.00    -0.489 OA
BRANCH   7   8
ATOM      8  C   UNL     1       9.844  -2.524  23.637  0.00  0.00    +0.261 C 
BRANCH   8   9
ATOM      9  C   UNL     1       8.362  -2.743  23.319  0.00  0.00    +0.166 C 
BRANCH   9  10
ATOM     10  O   UNL     1       7.542  -1.982  24.217  0.00  0.00    -0.387 OA
ATOM     11  H   UNL     1       6.621  -2.222  24.008  0.00  0.00    +0.210 HD
ENDBRANCH   9  10
BRANCH   9  12
ATOM     12  C   UNL     1       7.980  -4.231  23.382  0.00  0.00    +0.115 C 
BRANCH  12  13
ATOM     13  N   UNL     1       8.915  -4.939  24.265  0.00  0.00    -0.311 NA
ATOM     14  H   UNL     1       9.282  -5.747  23.754  0.00  0.00    +0.122 HD
BRANCH  13  16
ATOM     15  C   UNL     1       8.904  -4.486  26.648  0.00  0.00    +0.023 C 
ATOM     16  C   UNL     1       8.321  -5.364  25.536  0.00  0.00    +0.048 C 
ATOM     17  C   UNL     1       6.797  -5.231  25.526  0.00  0.00    +0.023 C 
ENDBRANCH  13  16
ENDBRANCH  12  13
ENDBRANCH   9  12
ENDBRANCH   8   9
ENDBRANCH   7   8
ENDBRANCH   1   7
BRANCH   4  18
ATOM     18  C   UNL     1       9.841   3.934  23.666  0.00  0.00    +0.130 C 
BRANCH  18  19
ATOM     19  C   UNL     1      11.144   4.708  23.601  0.00  0.00    +0.215 C 
ATOM     20  O   UNL     1      12.197   4.176  23.257  0.00  0.00    -0.276 OA
ATOM     21  N   UNL     1      11.141   6.026  23.937  0.00  0.00    -0.329 N 
ATOM     22  H   UNL     1      12.029   6.510  23.909  0.00  0.00    +0.145 HD
ATOM     23  H   UNL     1      10.335   6.505  24.314  0.00  0.00    +0.145 HD
ENDBRANCH  18  19
ENDBRANCH   4  18
TORSDOF 9
ENDMDL
MODEL 9
REMARK VINA RESULT:      -5.4      1.796      2.841
REMARK  Name = 
REMARK  11 active torsions:
REMARK  status: ('A' for Active; 'I' for Inactive)
REMARK    1  A    between atoms: C_1  and  C_2
REMARK    2  A    between atoms: C_2  and  C_3
REMARK    3  A    between atoms: C_2  and  N_4
REMARK    4  A    between atoms: N_4  and  C_5
REMARK    5  A    between atoms: C_5  and  C_6
REMARK    6  A    between atoms: C_6  and  O_7
REMARK    7  A    between atoms: C_6  and  C_8
REMARK    8  A    between atoms: C_8  and  O_9
REMARK    9  A    between atoms: O_9  and  C_10
REMARK   10  A    between atoms: C_13  and  C_14
REMARK   11  A    between atoms: C_14  and  C_15
REMARK                            x       y       z     vdW  Elec       q    Type
REMARK                         _______ _______ _______ _____ _____    ______ ____
ROOT
ATOM      1  C   UNL     1       9.969  -0.441  22.979  0.00  0.00    +0.121 A 
ATOM      2  C   UNL     1       9.784   0.441  21.910  0.00  0.00    +0.046 A 
ATOM      3  C   UNL     1      10.051   1.811  22.061  0.00  0.00    +0.007 A 
ATOM      4  C   UNL     1      10.497   2.317  23.289  0.00  0.00    -0.038 A 
ATOM      5  C   UNL     1      10.738   1.424  24.333  0.00  0.00    +0.007 A 
ATOM      6  C   UNL     1      10.479   0.059  24.180  0.00  0.00    +0.046 A 
ENDROOT
BRANCH   1   7
ATOM      7  O   UNL     1       9.608  -1.750  22.763  0.00  0.00    -0.489 OA
BRANCH   7   8
ATOM      8  C   UNL     1       8.507  -1.925  21.857  0.00  0.00    +0.261 C 
BRANCH   8   9
ATOM      9  C   UNL     1       7.205  -2.237  22.601  0.00  0.00    +0.166 C 
BRANCH   9  10
ATOM     10  O   UNL     1       6.516  -1.023  22.930  0.00  0.00    -0.387 OA
ATOM     11  H   UNL     1       6.799  -0.789  23.833  0.00  0.00    +0.210 HD
ENDBRANCH   9  10
BRANCH   9  12
ATOM     12  C   UNL     1       7.460  -3.064  23.872  0.00  0.00    +0.115 C 
BRANCH  12  13
ATOM     13  N   UNL     1       8.296  -4.225  23.541  0.00  0.00    -0.311 NA
ATOM     14  H   UNL     1       8.780  -4.024  22.662  0.00  0.00    +0.122 HD
BRANCH  13  16
ATOM     15  C   UNL     1       6.248  -5.325  24.232  0.00  0.00    +0.023 C 
ATOM     16  C   UNL     1       7.550  -5.482  23.440  0.00  0.00    +0.048 C 
ATOM     17  C   UNL     1       7.225  -5.839  21.988  0.00  0.00    +0.023 C 
ENDBRANCH  13  16
ENDBRANCH  12  13
ENDBRANCH   9  12
ENDBRANCH   8   9
ENDBRANCH   7   8
ENDBRANCH   1   7
BRANCH   4  18
ATOM     18  C   UNL     1      10.648   3.803  23.531  0.00  0.00    +0.130 C 
BRANCH  18  19
ATOM     19  C   UNL     1       9.412   4.604  23.895  0.00  0.00    +0.215 C 
ATOM     20  O   UNL     1       8.884   4.512  25.001  0.00  0.00    -0.276 OA
ATOM     21  N   UNL     1       8.878   5.442  22.968  0.00  0.00    -0.329 N 
ATOM     22  H   UNL     1       8.039   5.944  23.229  0.00  0.00    +0.145 HD
ATOM     23  H   UNL     1       9.204   5.500  22.012  0.00  0.00    +0.145 HD
ENDBRANCH  18  19
ENDBRANCH   4  18
TORSDOF 9
ENDMDL
