MODEL 1
REMARK VINA RESULT:      -6.4      0.000      0.000
REMARK  Name = 
REMARK  10 active torsions:
REMARK  status: ('A' for Active; 'I' for Inactive)
REMARK    1  A    between atoms: C_1  and  C_2
REMARK    2  A    between atoms: C_3  and  C_7
REMARK    3  A    between atoms: C_7  and  N_9
REMARK    4  A    between atoms: N_9  and  C_10
REMARK    5  A    between atoms: C_12  and  C_13
REMARK    6  A    between atoms: N_14  and  O_15
REMARK    7  A    between atoms: O_15  and  C_16
REMARK    8  A    between atoms: C_16  and  C_17
REMARK    9  A    between atoms: C_16  and  C_18
REMARK   10  A    between atoms: C_16  and  C_19
REMARK                            x       y       z     vdW  Elec       q    Type
REMARK                         _______ _______ _______ _____ _____    ______ ____
ROOT
ATOM      1  C   UNL     1       9.245   2.713  24.016  0.00  0.00    +0.032 A 
ATOM      2  C   UNL     1       9.551   2.661  22.656  0.00  0.00    +0.025 A 
ATOM      3  C   UNL     1       9.791   1.429  22.042  0.00  0.00    +0.022 A 
ATOM      4  C   UNL     1       9.769   0.241  22.782  0.00  0.00    +0.050 A 
ATOM      5 CL   UNL     1      10.130  -1.207  21.915  0.00  0.00    -0.083 Cl
ATOM      6  C   UNL     1       9.512   0.292  24.159  0.00  0.00    +0.016 A 
ATOM      7  C   UNL     1       9.264   1.532  24.767  0.00  0.00    +0.034 A 
ENDROOT
BRANCH   1   8
ATOM      8  N   UNL     1       8.989   3.967  24.610  0.00  0.00    -0.308 N 
ATOM      9  H   UNL     1       8.668   3.962  25.571  0.00  0.00    +0.153 HD
BRANCH   8  10
ATOM     10  C   UNL     1       9.241   5.213  24.061  0.00  0.00    +0.087 C 
ATOM     11  S   UNL     1       8.342   5.986  22.874  0.00  0.00    -0.035 S 
BRANCH  10  17
ATOM     12  C   UNL     1      12.366   4.723  23.053  0.00  0.00    +0.087 C 
ATOM     13  C   UNL     1      11.753   5.637  24.043  0.00  0.00    +0.111 A 
ATOM     14  O   UNL     1      12.656   6.380  24.745  0.00  0.00    -0.467 OA
ATOM     15  C   UNL     1      11.969   7.107  25.653  0.00  0.00    +0.196 A 
ATOM     16  C   UNL     1      10.625   6.866  25.534  0.00  0.00    +0.051 A 
ATOM     17  C   UNL     1      10.460   5.884  24.500  0.00  0.00    +0.044 A 
ENDBRANCH  10  17
ENDBRANCH   8  10
ENDBRANCH   1   8
BRANCH   6  18
ATOM     18  C   UNL     1       9.449  -0.883  25.050  0.00  0.00    +0.162 C 
ATOM     19  N   UNL     1       8.532  -1.773  24.922  0.00  0.00    -0.092 NA
BRANCH  19  20
ATOM     20  O   UNL     1       8.639  -2.761  25.913  0.00  0.00    -0.388 OA
BRANCH  20  21
ATOM     21  C   UNL     1       8.488  -4.061  25.302  0.00  0.00    +0.130 C 
ATOM     22  C   UNL     1       8.023  -3.906  23.847  0.00  0.00    +0.058 C 
ATOM     23  C   UNL     1       7.405  -4.802  26.095  0.00  0.00    +0.058 C 
ATOM     24  C   UNL     1       9.800  -4.851  25.391  0.00  0.00    +0.058 C 
ENDBRANCH  20  21
ENDBRANCH  19  20
ENDBRANCH   6  18
TORSDOF 6
ENDMDL
MODEL 2
REMARK VINA RESULT:      -6.3      3.400      8.399
REMARK  Name = 
REMARK  10 active torsions:
REMARK  status: ('A' for Active; 'I' for Inactive)
REMARK    1  A    between atoms: C_1  and  C_2
REMARK    2  A    between atoms: C_3  and  C_7
REMARK    3  A    between atoms: C_7  and  N_9
REMARK    4  A    between atoms: N_9  and  C_10
REMARK    5  A    between atoms: C_12  and  C_13
REMARK    6  A    between atoms: N_14  and  O_15
REMARK    7  A    between atoms: O_15  and  C_16
REMARK    8  A    between atoms: C_16  and  C_17
REMARK    9  A    between atoms: C_16  and  C_18
REMARK   10  A    between atoms: C_16  and  C_19
REMARK                            x       y       z     vdW  Elec       q    Type
REMARK                         _______ _______ _______ _____ _____    ______ ____
ROOT
ATOM      1  C   UNL     1       9.549  -2.098  23.739  0.00  0.00    +0.032 A 
ATOM      2  C   UNL     1       9.945  -1.894  22.418  0.00  0.00    +0.025 A 
ATOM      3  C   UNL     1      10.106  -0.594  21.930  0.00  0.00    +0.022 A 
ATOM      4  C   UNL     1       9.835   0.515  22.741  0.00  0.00    +0.050 A 
ATOM      5 CL   UNL     1      10.026   2.064  22.005  0.00  0.00    -0.083 Cl
ATOM      6  C   UNL     1       9.388   0.316  24.054  0.00  0.00    +0.016 A 
ATOM      7  C   UNL     1       9.237  -0.992  24.538  0.00  0.00    +0.034 A 
ENDROOT
BRANCH   1   8
ATOM      8  N   UNL     1       9.410  -3.420  24.213  0.00  0.00    -0.308 N 
ATOM      9  H   UNL     1      10.250  -3.877  24.549  0.00  0.00    +0.153 HD
BRANCH   8  10
ATOM     10  C   UNL     1       8.229  -4.123  24.378  0.00  0.00    +0.087 C 
ATOM     11  S   UNL     1       7.600  -4.701  25.822  0.00  0.00    -0.035 S 
BRANCH  10  17
ATOM     12  C   UNL     1       5.999  -2.322  22.704  0.00  0.00    +0.087 C 
ATOM     13  C   UNL     1       6.570  -3.672  22.499  0.00  0.00    +0.111 A 
ATOM     14  O   UNL     1       6.016  -4.355  21.455  0.00  0.00    -0.467 OA
ATOM     15  C   UNL     1       6.574  -5.585  21.430  0.00  0.00    +0.196 A 
ATOM     16  C   UNL     1       7.504  -5.703  22.431  0.00  0.00    +0.051 A 
ATOM     17  C   UNL     1       7.500  -4.469  23.162  0.00  0.00    +0.044 A 
ENDBRANCH  10  17
ENDBRANCH   8  10
ENDBRANCH   1   8
BRANCH   6  18
ATOM     18  C   UNL     1       9.080   1.394  25.014  0.00  0.00    +0.162 C 
ATOM     19  N   UNL     1       8.119   2.222  24.807  0.00  0.00    -0.092 NA
BRANCH  19  20
ATOM     20  O   UNL     1       8.053   3.188  25.821  0.00  0.00    -0.388 OA
BRANCH  20  21
ATOM     21  C   UNL     1       7.934   4.496  25.221  0.00  0.00    +0.130 C 
ATOM     22  C   UNL     1       7.611   5.541  26.298  0.00  0.00    +0.058 C 
ATOM     23  C   UNL     1       6.769   4.428  24.227  0.00  0.00    +0.058 C 
ATOM     24  C   UNL     1       9.218   4.855  24.460  0.00  0.00    +0.058 C 
ENDBRANCH  20  21
ENDBRANCH  19  20
ENDBRANCH   6  18
TORSDOF 6
ENDMDL
MODEL 3
REMARK VINA RESULT:      -6.3      2.170      2.979
REMARK  Name = 
REMARK  10 active torsions:
REMARK  status: ('A' for Active; 'I' for Inactive)
REMARK    1  A    between atoms: C_1  and  C_2
REMARK    2  A    between atoms: C_3  and  C_7
REMARK    3  A    between atoms: C_7  and  N_9
REMARK    4  A    between atoms: N_9  and  C_10
REMARK    5  A    between atoms: C_12  and  C_13
REMARK    6  A    between atoms: N_14  and  O_15
REMARK    7  A    between atoms: O_15  and  C_16
REMARK    8  A    between atoms: C_16  and  C_17
REMARK    9  A    between atoms: C_16  and  C_18
REMARK   10  A    between atoms: C_16  and  C_19
REMARK                            x       y       z     vdW  Elec       q    Type
REMARK                         _______ _______ _______ _____ _____    ______ ____
ROOT
ATOM      1  C   UNL     1      10.189   1.993  23.297  0.00  0.00    +0.032 A 
ATOM      2  C   UNL     1       9.892   1.753  21.956  0.00  0.00    +0.025 A 
ATOM      3  C   UNL     1       9.441   0.492  21.557  0.00  0.00    +0.022 A 
ATOM      4  C   UNL     1       9.321  -0.553  22.480  0.00  0.00    +0.050 A 
ATOM      5 CL   UNL     1       8.801  -2.073  21.851  0.00  0.00    -0.083 Cl
ATOM      6  C   UNL     1       9.667  -0.332  23.820  0.00  0.00    +0.016 A 
ATOM      7  C   UNL     1      10.111   0.939  24.214  0.00  0.00    +0.034 A 
ENDROOT
BRANCH   1   8
ATOM      8  N   UNL     1      10.626   3.280  23.679  0.00  0.00    -0.308 N 
ATOM      9  H   UNL     1      11.628   3.434  23.705  0.00  0.00    +0.153 HD
BRANCH   8  10
ATOM     10  C   UNL     1       9.834   4.392  23.909  0.00  0.00    +0.087 C 
ATOM     11  S   UNL     1      10.307   5.998  23.804  0.00  0.00    -0.035 S 
BRANCH  10  17
ATOM     12  C   UNL     1       7.026   4.260  22.143  0.00  0.00    +0.087 C 
ATOM     13  C   UNL     1       7.325   4.096  23.584  0.00  0.00    +0.111 A 
ATOM     14  O   UNL     1       6.219   3.935  24.365  0.00  0.00    -0.467 OA
ATOM     15  C   UNL     1       6.631   3.872  25.650  0.00  0.00    +0.196 A 
ATOM     16  C   UNL     1       7.997   3.965  25.714  0.00  0.00    +0.051 A 
ATOM     17  C   UNL     1       8.474   4.139  24.371  0.00  0.00    +0.044 A 
ENDBRANCH  10  17
ENDBRANCH   8  10
ENDBRANCH   1   8
BRANCH   6  18
ATOM     18  C   UNL     1       9.576  -1.341  24.894  0.00  0.00    +0.162 C 
ATOM     19  N   UNL     1       8.533  -2.078  25.035  0.00  0.00    -0.092 NA
BRANCH  19  20
ATOM     20  O   UNL     1       8.652  -2.918  26.152  0.00  0.00    -0.388 OA
BRANCH  20  21
ATOM     21  C   UNL     1       8.340  -4.272  25.760  0.00  0.00    +0.130 C 
ATOM     22  C   UNL     1       7.668  -5.014  26.925  0.00  0.00    +0.058 C 
ATOM     23  C   UNL     1       9.670  -4.960  25.434  0.00  0.00    +0.058 C 
ATOM     24  C   UNL     1       7.455  -4.277  24.507  0.00  0.00    +0.058 C 
ENDBRANCH  20  21
ENDBRANCH  19  20
ENDBRANCH   6  18
TORSDOF 6
ENDMDL
MODEL 4
REMARK VINA RESULT:      -6.2      5.144      8.324
REMARK  Name = 
REMARK  10 active torsions:
REMARK  status: ('A' for Active; 'I' for Inactive)
REMARK    1  A    between atoms: C_1  and  C_2
REMARK    2  A    between atoms: C_3  and  C_7
REMARK    3  A    between atoms: C_7  and  N_9
REMARK    4  A    between atoms: N_9  and  C_10
REMARK    5  A    between atoms: C_12  and  C_13
REMARK    6  A    between atoms: N_14  and  O_15
REMARK    7  A    between atoms: O_15  and  C_16
REMARK    8  A    between atoms: C_16  and  C_17
REMARK    9  A    between atoms: C_16  and  C_18
REMARK   10  A    between atoms: C_16  and  C_19
REMARK                            x       y       z     vdW  Elec       q    Type
REMARK                         _______ _______ _______ _____ _____    ______ ____
ROOT
ATOM      1  C   UNL     1       8.763  -2.066  23.257  0.00  0.00    +0.032 A 
ATOM      2  C   UNL     1       9.511  -1.568  22.191  0.00  0.00    +0.025 A 
ATOM      3  C   UNL     1       9.300  -0.261  21.741  0.00  0.00    +0.022 A 
ATOM      4  C   UNL     1       8.314   0.547  22.321  0.00  0.00    +0.050 A 
ATOM      5 CL   UNL     1       8.121   2.122  21.643  0.00  0.00    -0.083 Cl
ATOM      6  C   UNL     1       7.525   0.034  23.359  0.00  0.00    +0.016 A 
ATOM      7  C   UNL     1       7.749  -1.276  23.809  0.00  0.00    +0.034 A 
ENDROOT
BRANCH   1   8
ATOM      8  N   UNL     1       9.007  -3.382  23.703  0.00  0.00    -0.308 N 
ATOM      9  H   UNL     1       9.976  -3.648  23.841  0.00  0.00    +0.153 HD
BRANCH   8  10
ATOM     10  C   UNL     1       8.061  -4.317  24.087  0.00  0.00    +0.087 C 
ATOM     11  S   UNL     1       7.945  -5.071  25.582  0.00  0.00    -0.035 S 
BRANCH  10  17
ATOM     12  C   UNL     1       4.861  -3.515  23.715  0.00  0.00    +0.087 C 
ATOM     13  C   UNL     1       5.782  -4.386  22.951  0.00  0.00    +0.111 A 
ATOM     14  O   UNL     1       5.185  -5.063  21.929  0.00  0.00    -0.467 OA
ATOM     15  C   UNL     1       6.116  -5.867  21.370  0.00  0.00    +0.196 A 
ATOM     16  C   UNL     1       7.322  -5.703  22.002  0.00  0.00    +0.051 A 
ATOM     17  C   UNL     1       7.122  -4.755  23.060  0.00  0.00    +0.044 A 
ENDBRANCH  10  17
ENDBRANCH   8  10
ENDBRANCH   1   8
BRANCH   6  18
ATOM     18  C   UNL     1       6.464   0.781  24.062  0.00  0.00    +0.162 C 
ATOM     19  N   UNL     1       5.550   0.177  24.734  0.00  0.00    -0.092 NA
BRANCH  19  20
ATOM     20  O   UNL     1       4.623   1.086  25.264  0.00  0.00    -0.388 OA
BRANCH  20  21
ATOM     21  C   UNL     1       4.366   0.748  26.644  0.00  0.00    +0.130 C 
ATOM     22  C   UNL     1       2.976   1.254  27.057  0.00  0.00    +0.058 C 
ATOM     23  C   UNL     1       5.427   1.467  27.486  0.00  0.00    +0.058 C 
ATOM     24  C   UNL     1       4.499  -0.765  26.859  0.00  0.00    +0.058 C 
ENDBRANCH  20  21
ENDBRANCH  19  20
ENDBRANCH   6  18
TORSDOF 6
ENDMDL
MODEL 5
REMARK VINA RESULT:      -6.2      4.014      8.952
REMARK  Name = 
REMARK  10 active torsions:
REMARK  status: ('A' for Active; 'I' for Inactive)
REMARK    1  A    between atoms: C_1  and  C_2
REMARK    2  A    between atoms: C_3  and  C_7
REMARK    3  A    between atoms: C_7  and  N_9
REMARK    4  A    between atoms: N_9  and  C_10
REMARK    5  A    between atoms: C_12  and  C_13
REMARK    6  A    between atoms: N_14  and  O_15
REMARK    7  A    between atoms: O_15  and  C_16
REMARK    8  A    between atoms: C_16  and  C_17
REMARK    9  A    between atoms: C_16  and  C_18
REMARK   10  A    between atoms: C_16  and  C_19
REMARK                            x       y       z     vdW  Elec       q    Type
REMARK                         _______ _______ _______ _____ _____    ______ ____
ROOT
ATOM      1  C   UNL     1       7.333  -3.325  25.690  0.00  0.00    +0.032 A 
ATOM      2  C   UNL     1       6.318  -2.932  26.561  0.00  0.00    +0.025 A 
ATOM      3  C   UNL     1       6.286  -1.623  27.050  0.00  0.00    +0.022 A 
ATOM      4  C   UNL     1       7.288  -0.705  26.710  0.00  0.00    +0.050 A 
ATOM      5 CL   UNL     1       7.160   0.863  27.419  0.00  0.00    -0.083 Cl
ATOM      6  C   UNL     1       8.338  -1.109  25.876  0.00  0.00    +0.016 A 
ATOM      7  C   UNL     1       8.358  -2.423  25.383  0.00  0.00    +0.034 A 
ENDROOT
BRANCH   1   8
ATOM      8  N   UNL     1       7.333  -4.646  25.197  0.00  0.00    -0.308 N 
ATOM      9  H   UNL     1       8.150  -5.212  25.400  0.00  0.00    +0.153 HD
BRANCH   8  10
ATOM     10  C   UNL     1       6.289  -5.297  24.562  0.00  0.00    +0.087 C 
ATOM     11  S   UNL     1       5.097  -6.228  25.290  0.00  0.00    -0.035 S 
BRANCH  10  17
ATOM     12  C   UNL     1       5.639  -2.703  22.595  0.00  0.00    +0.087 C 
ATOM     13  C   UNL     1       5.990  -4.116  22.326  0.00  0.00    +0.111 A 
ATOM     14  O   UNL     1       5.968  -4.449  21.003  0.00  0.00    -0.467 OA
ATOM     15  C   UNL     1       6.232  -5.771  20.910  0.00  0.00    +0.196 A 
ATOM     16  C   UNL     1       6.451  -6.298  22.157  0.00  0.00    +0.051 A 
ATOM     17  C   UNL     1       6.272  -5.236  23.104  0.00  0.00    +0.044 A 
ENDBRANCH  10  17
ENDBRANCH   8  10
ENDBRANCH   1   8
BRANCH   6  18
ATOM     18  C   UNL     1       9.446  -0.242  25.432  0.00  0.00    +0.162 C 
ATOM     19  N   UNL     1       9.227   0.864  24.815  0.00  0.00    -0.092 NA
BRANCH  19  20
ATOM     20  O   UNL     1      10.428   1.486  24.444  0.00  0.00    -0.388 OA
BRANCH  20  21
ATOM     21  C   UNL     1      10.160   2.445  23.397  0.00  0.00    +0.130 C 
ATOM     22  C   UNL     1      11.256   3.520  23.377  0.00  0.00    +0.058 C 
ATOM     23  C   UNL     1       8.819   3.108  23.732  0.00  0.00    +0.058 C 
ATOM     24  C   UNL     1      10.042   1.738  22.040  0.00  0.00    +0.058 C 
ENDBRANCH  20  21
ENDBRANCH  19  20
ENDBRANCH   6  18
TORSDOF 6
ENDMDL
MODEL 6
REMARK VINA RESULT:      -6.1      2.512      3.031
REMARK  Name = 
REMARK  10 active torsions:
REMARK  status: ('A' for Active; 'I' for Inactive)
REMARK    1  A    between atoms: C_1  and  C_2
REMARK    2  A    between atoms: C_3  and  C_7
REMARK    3  A    between atoms: C_7  and  N_9
REMARK    4  A    between atoms: N_9  and  C_10
REMARK    5  A    between atoms: C_12  and  C_13
REMARK    6  A    between atoms: N_14  and  O_15
REMARK    7  A    between atoms: O_15  and  C_16
REMARK    8  A    between atoms: C_16  and  C_17
REMARK    9  A    between atoms: C_16  and  C_18
REMARK   10  A    between atoms: C_16  and  C_19
REMARK                            x       y       z     vdW  Elec       q    Type
REMARK                         _______ _______ _______ _____ _____    ______ ____
ROOT
ATOM      1  C   UNL     1       7.644   1.936  21.905  0.00  0.00    +0.032 A 
ATOM      2  C   UNL     1       9.003   1.913  21.594  0.00  0.00    +0.025 A 
ATOM      3  C   UNL     1       9.755   0.761  21.840  0.00  0.00    +0.022 A 
ATOM      4  C   UNL     1       9.172  -0.364  22.437  0.00  0.00    +0.050 A 
ATOM      5 CL   UNL     1      10.220  -1.702  22.732  0.00  0.00    -0.083 Cl
ATOM      6  C   UNL     1       7.819  -0.327  22.799  0.00  0.00    +0.016 A 
ATOM      7  C   UNL     1       7.069   0.830  22.541  0.00  0.00    +0.034 A 
ENDROOT
BRANCH   1   8
ATOM      8  N   UNL     1       6.902   3.105  21.631  0.00  0.00    -0.308 N 
ATOM      9  H   UNL     1       6.533   3.203  20.692  0.00  0.00    +0.153 HD
BRANCH   8  10
ATOM     10  C   UNL     1       6.523   4.080  22.537  0.00  0.00    +0.087 C 
ATOM     11  S   UNL     1       4.957   4.470  22.994  0.00  0.00    -0.035 S 
BRANCH  10  17
ATOM     12  C   UNL     1       8.420   3.534  25.207  0.00  0.00    +0.087 C 
ATOM     13  C   UNL     1       8.357   4.633  24.216  0.00  0.00    +0.111 A 
ATOM     14  O   UNL     1       9.193   5.675  24.492  0.00  0.00    -0.467 OA
ATOM     15  C   UNL     1       8.980   6.627  23.557  0.00  0.00    +0.196 A 
ATOM     16  C   UNL     1       8.034   6.206  22.660  0.00  0.00    +0.051 A 
ATOM     17  C   UNL     1       7.591   4.910  23.087  0.00  0.00    +0.044 A 
ENDBRANCH  10  17
ENDBRANCH   8  10
ENDBRANCH   1   8
BRANCH   6  18
ATOM     18  C   UNL     1       7.081  -1.443  23.422  0.00  0.00    +0.162 C 
ATOM     19  N   UNL     1       6.779  -2.501  22.759  0.00  0.00    -0.092 NA
BRANCH  19  20
ATOM     20  O   UNL     1       6.031  -3.395  23.539  0.00  0.00    -0.388 OA
BRANCH  20  21
ATOM     21  C   UNL     1       6.586  -4.721  23.401  0.00  0.00    +0.130 C 
ATOM     22  C   UNL     1       7.043  -4.950  21.953  0.00  0.00    +0.058 C 
ATOM     23  C   UNL     1       5.463  -5.712  23.731  0.00  0.00    +0.058 C 
ATOM     24  C   UNL     1       7.739  -4.926  24.392  0.00  0.00    +0.058 C 
ENDBRANCH  20  21
ENDBRANCH  19  20
ENDBRANCH   6  18
TORSDOF 6
ENDMDL
MODEL 7
REMARK VINA RESULT:      -6.0      3.375      8.743
REMARK  Name = 
REMARK  10 active torsions:
REMARK  status: ('A' for Active; 'I' for Inactive)
REMARK    1  A    between atoms: C_1  and  C_2
REMARK    2  A    between atoms: C_3  and  C_7
REMARK    3  A    between atoms: C_7  and  N_9
REMARK    4  A    between atoms: N_9  and  C_10
REMARK    5  A    between atoms: C_12  and  C_13
REMARK    6  A    between atoms: N_14  and  O_15
REMARK    7  A    between atoms: O_15  and  C_16
REMARK    8  A    between atoms: C_16  and  C_17
REMARK    9  A    between atoms: C_16  and  C_18
REMARK   10  A    between atoms: C_16  and  C_19
REMARK                            x       y       z     vdW  Elec       q    Type
REMARK                         _______ _______ _______ _____ _____    ______ ____
ROOT
ATOM      1  C   UNL     1       7.889  -2.142  23.481  0.00  0.00    +0.032 A 
ATOM      2  C   UNL     1       9.227  -2.483  23.286  0.00  0.00    +0.025 A 
ATOM      3  C   UNL     1      10.235  -1.578  23.629  0.00  0.00    +0.022 A 
ATOM      4  C   UNL     1       9.920  -0.308  24.130  0.00  0.00    +0.050 A 
ATOM      5 CL   UNL     1      11.254   0.732  24.468  0.00  0.00    -0.083 Cl
ATOM      6  C   UNL     1       8.576   0.059  24.280  0.00  0.00    +0.016 A 
ATOM      7  C   UNL     1       7.570  -0.859  23.940  0.00  0.00    +0.034 A 
ENDROOT
BRANCH   1   8
ATOM      8  N   UNL     1       6.890  -3.079  23.143  0.00  0.00    -0.308 N 
ATOM      9  H   UNL     1       6.081  -2.727  22.644  0.00  0.00    +0.153 HD
BRANCH   8  10
ATOM     10  C   UNL     1       6.947  -4.452  23.315  0.00  0.00    +0.087 C 
ATOM     11  S   UNL     1       7.026  -5.612  22.105  0.00  0.00    -0.035 S 
BRANCH  10  17
ATOM     12  C   UNL     1       9.377  -5.264  25.427  0.00  0.00    +0.087 C 
ATOM     13  C   UNL     1       7.900  -5.271  25.531  0.00  0.00    +0.111 A 
ATOM     14  O   UNL     1       7.429  -5.788  26.702  0.00  0.00    -0.467 OA
ATOM     15  C   UNL     1       6.080  -5.801  26.631  0.00  0.00    +0.196 A 
ATOM     16  C   UNL     1       5.665  -5.274  25.435  0.00  0.00    +0.051 A 
ATOM     17  C   UNL     1       6.842  -4.942  24.685  0.00  0.00    +0.044 A 
ENDBRANCH  10  17
ENDBRANCH   8  10
ENDBRANCH   1   8
BRANCH   6  18
ATOM     18  C   UNL     1       8.108   1.357  24.805  0.00  0.00    +0.162 C 
ATOM     19  N   UNL     1       8.241   2.441  24.129  0.00  0.00    -0.092 NA
BRANCH  19  20
ATOM     20  O   UNL     1       7.778   3.551  24.852  0.00  0.00    -0.388 OA
BRANCH  20  21
ATOM     21  C   UNL     1       8.458   4.736  24.385  0.00  0.00    +0.130 C 
ATOM     22  C   UNL     1       9.816   4.357  23.777  0.00  0.00    +0.058 C 
ATOM     23  C   UNL     1       8.693   5.628  25.610  0.00  0.00    +0.058 C 
ATOM     24  C   UNL     1       7.584   5.494  23.377  0.00  0.00    +0.058 C 
ENDBRANCH  20  21
ENDBRANCH  19  20
ENDBRANCH   6  18
TORSDOF 6
ENDMDL
MODEL 8
REMARK VINA RESULT:      -6.0      2.367      2.904
REMARK  Name = 
REMARK  10 active torsions:
REMARK  status: ('A' for Active; 'I' for Inactive)
REMARK    1  A    between atoms: C_1  and  C_2
REMARK    2  A    between atoms: C_3  and  C_7
REMARK    3  A    between atoms: C_7  and  N_9
REMARK    4  A    between atoms: N_9  and  C_10
REMARK    5  A    between atoms: C_12  and  C_13
REMARK    6  A    between atoms: N_14  and  O_15
REMARK    7  A    between atoms: O_15  and  C_16
REMARK    8  A    between atoms: C_16  and  C_17
REMARK    9  A    between atoms: C_16  and  C_18
REMARK   10  A    between atoms: C_16  and  C_19
REMARK                            x       y       z     vdW  Elec       q    Type
REMARK                         _______ _______ _______ _____ _____    ______ ____
ROOT
ATOM      1  C   UNL     1       9.623   2.381  23.856  0.00  0.00    +0.032 A 
ATOM      2  C   UNL     1       9.810   2.187  22.488  0.00  0.00    +0.025 A 
ATOM      3  C   UNL     1       9.847   0.891  21.966  0.00  0.00    +0.022 A 
ATOM      4  C   UNL     1       9.740  -0.225  22.806  0.00  0.00    +0.050 A 
ATOM      5 CL   UNL     1       9.850  -1.769  22.043  0.00  0.00    -0.083 Cl
ATOM      6  C   UNL     1       9.604  -0.036  24.188  0.00  0.00    +0.016 A 
ATOM      7  C   UNL     1       9.559   1.269  24.703  0.00  0.00    +0.034 A 
ENDROOT
BRANCH   1   8
ATOM      8  N   UNL     1       9.572   3.699  24.357  0.00  0.00    -0.308 N 
ATOM      9  H   UNL     1      10.447   4.209  24.395  0.00  0.00    +0.153 HD
BRANCH   8  10
ATOM     10  C   UNL     1       8.437   4.417  24.694  0.00  0.00    +0.087 C 
ATOM     11  S   UNL     1       7.615   4.365  26.155  0.00  0.00    -0.035 S 
BRANCH  10  17
ATOM     12  C   UNL     1       6.375   3.511  22.254  0.00  0.00    +0.087 C 
ATOM     13  C   UNL     1       6.986   4.804  22.636  0.00  0.00    +0.111 A 
ATOM     14  O   UNL     1       6.715   5.823  21.770  0.00  0.00    -0.467 OA
ATOM     15  C   UNL     1       7.389   6.913  22.197  0.00  0.00    +0.196 A 
ATOM     16  C   UNL     1       8.076   6.624  23.347  0.00  0.00    +0.051 A 
ATOM     17  C   UNL     1       7.848   5.238  23.641  0.00  0.00    +0.044 A 
ENDBRANCH  10  17
ENDBRANCH   8  10
ENDBRANCH   1   8
BRANCH   6  18
ATOM     18  C   UNL     1       9.470  -1.121  25.179  0.00  0.00    +0.162 C 
ATOM     19  N   UNL     1       8.449  -1.901  25.187  0.00  0.00    -0.092 NA
BRANCH  19  20
ATOM     20  O   UNL     1       8.514  -2.814  26.249  0.00  0.00    -0.388 OA
BRANCH  20  21
ATOM     21  C   UNL     1       8.279  -4.146  25.743  0.00  0.00    +0.130 C 
ATOM     22  C   UNL     1       9.603  -4.777  25.290  0.00  0.00    +0.058 C 
ATOM     23  C   UNL     1       7.353  -4.006  24.529  0.00  0.00    +0.058 C 
ATOM     24  C   UNL     1       7.582  -5.008  26.805  0.00  0.00    +0.058 C 
ENDBRANCH  20  21
ENDBRANCH  19  20
ENDBRANCH   6  18
TORSDOF 6
ENDMDL
MODEL 9
REMARK VINA RESULT:      -6.0      2.541      3.403
REMARK  Name = 
REMARK  10 active torsions:
REMARK  status: ('A' for Active; 'I' for Inactive)
REMARK    1  A    between atoms: C_1  and  C_2
REMARK    2  A    between atoms: C_3  and  C_7
REMARK    3  A    between atoms: C_7  and  N_9
REMARK    4  A    between atoms: N_9  and  C_10
REMARK    5  A    between atoms: C_12  and  C_13
REMARK    6  A    between atoms: N_14  and  O_15
REMARK    7  A    between atoms: O_15  and  C_16
REMARK    8  A    between atoms: C_16  and  C_17
REMARK    9  A    between atoms: C_16  and  C_18
REMARK   10  A    between atoms: C_16  and  C_19
REMARK                            x       y       z     vdW  Elec       q    Type
REMARK                         _______ _______ _______ _____ _____    ______ ____
ROOT
ATOM      1  C   UNL     1       8.597   0.961  23.465  0.00  0.00    +0.032 A 
ATOM      2  C   UNL     1       9.640   0.506  24.271  0.00  0.00    +0.025 A 
ATOM      3  C   UNL     1       9.813  -0.865  24.480  0.00  0.00    +0.022 A 
ATOM      4  C   UNL     1       8.926  -1.794  23.923  0.00  0.00    +0.050 A 
ATOM      5 CL   UNL     1       9.221  -3.453  24.297  0.00  0.00    -0.083 Cl
ATOM      6  C   UNL     1       7.846  -1.340  23.153  0.00  0.00    +0.016 A 
ATOM      7  C   UNL     1       7.684   0.038  22.942  0.00  0.00    +0.034 A 
ENDROOT
BRANCH   1   8
ATOM      8  N   UNL     1       8.454   2.348  23.255  0.00  0.00    -0.308 N 
ATOM      9  H   UNL     1       7.978   2.637  22.407  0.00  0.00    +0.153 HD
BRANCH   8  10
ATOM     10  C   UNL     1       8.788   3.361  24.138  0.00  0.00    +0.087 C 
ATOM     11  S   UNL     1       7.898   3.866  25.468  0.00  0.00    -0.035 S 
BRANCH  10  17
ATOM     12  C   UNL     1       9.151   6.644  23.801  0.00  0.00    +0.087 C 
ATOM     13  C   UNL     1      10.092   5.505  23.699  0.00  0.00    +0.111 A 
ATOM     14  O   UNL     1      11.351   5.859  23.312  0.00  0.00    -0.467 OA
ATOM     15  C   UNL     1      12.075   4.725  23.190  0.00  0.00    +0.196 A 
ATOM     16  C   UNL     1      11.309   3.637  23.518  0.00  0.00    +0.051 A 
ATOM     17  C   UNL     1       9.995   4.122  23.831  0.00  0.00    +0.044 A 
ENDBRANCH  10  17
ENDBRANCH   8  10
ENDBRANCH   1   8
BRANCH   6  18
ATOM     18  C   UNL     1       6.848  -2.210  22.501  0.00  0.00    +0.162 C 
ATOM     19  N   UNL     1       5.912  -2.778  23.173  0.00  0.00    -0.092 NA
BRANCH  19  20
ATOM     20  O   UNL     1       5.123  -3.598  22.354  0.00  0.00    -0.388 OA
BRANCH  20  21
ATOM     21  C   UNL     1       5.115  -4.937  22.893  0.00  0.00    +0.130 C 
ATOM     22  C   UNL     1       5.870  -4.970  24.229  0.00  0.00    +0.058 C 
ATOM     23  C   UNL     1       5.848  -5.829  21.885  0.00  0.00    +0.058 C 
ATOM     24  C   UNL     1       3.675  -5.443  23.051  0.00  0.00    +0.058 C 
ENDBRANCH  20  21
ENDBRANCH  19  20
ENDBRANCH   6  18
TORSDOF 6
ENDMDL
