MODEL 1
REMARK VINA RESULT:      -6.9      0.000      0.000
REMARK  Name = 
REMARK  8 active torsions:
REMARK  status: ('A' for Active; 'I' for Inactive)
REMARK    1  A    between atoms: C_2  and  C_3
REMARK    2  A    between atoms: C_3  and  O_4
REMARK    3  A    between atoms: C_6  and  O_8
REMARK    4  A    between atoms: O_8  and  C_9
REMARK    5  A    between atoms: C_10  and  N_18
REMARK    6  A    between atoms: C_12  and  N_15
REMARK    7  A    between atoms: C_24  and  O_26
REMARK    8  A    between atoms: C_27  and  O_29
REMARK                            x       y       z     vdW  Elec       q    Type
REMARK                         _______ _______ _______ _____ _____    ______ ____
ROOT
ATOM      1  C   UNL     1       9.713   0.587  22.239  0.00  0.00    +0.179 C 
ATOM      2  C   UNL     1       9.939   1.875  23.046  0.00  0.00    +0.177 C 
ATOM      3  C   UNL     1       9.240   1.814  24.411  0.00  0.00    +0.185 C 
ATOM      4  C   UNL     1       7.760   1.493  24.208  0.00  0.00    +0.265 C 
ATOM      5  F   UNL     1       7.136   1.366  25.408  0.00  0.00    -0.236 F 
ATOM      6  C   UNL     1       7.550   0.236  23.354  0.00  0.00    +0.345 C 
ATOM      7  O   UNL     1       8.300   0.321  22.126  0.00  0.00    -0.331 OA
ENDROOT
BRANCH   2   8
ATOM      8  O   UNL     1       9.412   2.986  22.300  0.00  0.00    -0.386 OA
ATOM      9  H   UNL     1      10.139   3.392  21.790  0.00  0.00    +0.210 HD
ENDBRANCH   2   8
BRANCH   3  10
ATOM     10  O   UNL     1       9.920   0.881  25.250  0.00  0.00    -0.386 OA
ATOM     11  H   UNL     1       9.883   1.175  26.183  0.00  0.00    +0.210 HD
ENDBRANCH   3  10
BRANCH   1  12
ATOM     12  C   UNL     1      10.567  -0.605  22.709  0.00  0.00    +0.190 C 
BRANCH  12  13
ATOM     13  O   UNL     1      10.440  -1.717  21.819  0.00  0.00    -0.392 OA
ATOM     14  H   UNL     1      10.276  -1.367  20.927  0.00  0.00    +0.210 HD
ENDBRANCH  12  13
ENDBRANCH   1  12
BRANCH   6  15
ATOM     15  O   UNL     1       7.777  -0.970  24.110  0.00  0.00    -0.454 OA
BRANCH  15  16
ATOM     16  C   UNL     1       7.272  -2.134  23.579  0.00  0.00    +0.201 A 
ATOM     17  C   UNL     1       6.119  -2.174  22.783  0.00  0.00    +0.059 A 
ATOM     18  C   UNL     1       5.786  -3.319  22.055  0.00  0.00    +0.088 A 
ATOM     19  C   UNL     1       6.583  -4.462  22.156  0.00  0.00    +0.280 A 
ATOM     20  C   UNL     1       7.658  -4.501  23.047  0.00  0.00    +0.172 A 
ATOM     21  C   UNL     1       7.979  -3.333  23.760  0.00  0.00    +0.321 A 
BRANCH  19  22
ATOM     22  N   UNL     1       6.296  -5.612  21.291  0.00  0.00    +0.080 N 
ATOM     23  O   UNL     1       6.427  -6.745  21.776  0.00  0.00    +0.041 OA
ATOM     24  O   UNL     1       5.931  -5.379  20.130  0.00  0.00    -0.576 OA
ENDBRANCH  19  22
BRANCH  21  25
ATOM     25  N   UNL     1       9.070  -3.415  24.717  0.00  0.00    +0.084 N 
ATOM     26  O   UNL     1       8.763  -3.340  25.911  0.00  0.00    +0.042 OA
ATOM     27  O   UNL     1      10.218  -3.579  24.282  0.00  0.00    -0.576 OA
ENDBRANCH  21  25
ENDBRANCH  15  16
ENDBRANCH   6  15
TORSDOF 8
ENDMDL
MODEL 2
REMARK VINA RESULT:      -6.6      2.538      3.975
REMARK  Name = 
REMARK  8 active torsions:
REMARK  status: ('A' for Active; 'I' for Inactive)
REMARK    1  A    between atoms: C_2  and  C_3
REMARK    2  A    between atoms: C_3  and  O_4
REMARK    3  A    between atoms: C_6  and  O_8
REMARK    4  A    between atoms: O_8  and  C_9
REMARK    5  A    between atoms: C_10  and  N_18
REMARK    6  A    between atoms: C_12  and  N_15
REMARK    7  A    between atoms: C_24  and  O_26
REMARK    8  A    between atoms: C_27  and  O_29
REMARK                            x       y       z     vdW  Elec       q    Type
REMARK                         _______ _______ _______ _____ _____    ______ ____
ROOT
ATOM      1  C   UNL     1       8.240   1.091  23.400  0.00  0.00    +0.179 C 
ATOM      2  C   UNL     1       9.418   1.434  22.475  0.00  0.00    +0.177 C 
ATOM      3  C   UNL     1      10.076   0.168  21.909  0.00  0.00    +0.185 C 
ATOM      4  C   UNL     1      10.475  -0.753  23.060  0.00  0.00    +0.265 C 
ATOM      5  F   UNL     1      10.997  -1.911  22.577  0.00  0.00    -0.236 F 
ATOM      6  C   UNL     1       9.302  -1.043  24.006  0.00  0.00    +0.345 C 
ATOM      7  O   UNL     1       8.676   0.184  24.434  0.00  0.00    -0.331 OA
ENDROOT
BRANCH   2   8
ATOM      8  O   UNL     1      10.396   2.173  23.228  0.00  0.00    -0.386 OA
ATOM      9  H   UNL     1      10.711   1.614  23.963  0.00  0.00    +0.210 HD
ENDBRANCH   2   8
BRANCH   3  10
ATOM     10  O   UNL     1       9.197  -0.440  20.963  0.00  0.00    -0.386 OA
ATOM     11  H   UNL     1       8.407  -0.799  21.417  0.00  0.00    +0.210 HD
ENDBRANCH   3  10
BRANCH   1  12
ATOM     12  C   UNL     1       6.961   0.667  22.655  0.00  0.00    +0.190 C 
BRANCH  12  13
ATOM     13  O   UNL     1       6.129  -0.156  23.478  0.00  0.00    -0.392 OA
ATOM     14  H   UNL     1       6.539  -0.205  24.359  0.00  0.00    +0.210 HD
ENDBRANCH  12  13
ENDBRANCH   1  12
BRANCH   6  15
ATOM     15  O   UNL     1       8.394  -2.016  23.452  0.00  0.00    -0.454 OA
BRANCH  15  16
ATOM     16  C   UNL     1       8.106  -3.106  24.240  0.00  0.00    +0.201 A 
ATOM     17  C   UNL     1       8.811  -3.410  25.412  0.00  0.00    +0.059 A 
ATOM     18  C   UNL     1       8.332  -4.364  26.314  0.00  0.00    +0.088 A 
ATOM     19  C   UNL     1       7.158  -5.065  26.025  0.00  0.00    +0.280 A 
ATOM     20  C   UNL     1       6.509  -4.886  24.801  0.00  0.00    +0.172 A 
ATOM     21  C   UNL     1       7.004  -3.913  23.916  0.00  0.00    +0.321 A 
BRANCH  19  22
ATOM     22  N   UNL     1       6.598  -5.969  27.036  0.00  0.00    +0.080 N 
ATOM     23  O   UNL     1       5.608  -6.644  26.720  0.00  0.00    +0.041 OA
ATOM     24  O   UNL     1       7.156  -6.007  28.141  0.00  0.00    -0.576 OA
ENDBRANCH  19  22
BRANCH  21  25
ATOM     25  N   UNL     1       6.340  -3.783  22.629  0.00  0.00    +0.084 N 
ATOM     26  O   UNL     1       5.460  -2.921  22.548  0.00  0.00    +0.042 OA
ATOM     27  O   UNL     1       6.712  -4.516  21.703  0.00  0.00    -0.576 OA
ENDBRANCH  21  25
ENDBRANCH  15  16
ENDBRANCH   6  15
TORSDOF 8
ENDMDL
MODEL 3
REMARK VINA RESULT:      -6.6      1.425      1.931
REMARK  Name = 
REMARK  8 active torsions:
REMARK  status: ('A' for Active; 'I' for Inactive)
REMARK    1  A    between atoms: C_2  and  C_3
REMARK    2  A    between atoms: C_3  and  O_4
REMARK    3  A    between atoms: C_6  and  O_8
REMARK    4  A    between atoms: O_8  and  C_9
REMARK    5  A    between atoms: C_10  and  N_18
REMARK    6  A    between atoms: C_12  and  N_15
REMARK    7  A    between atoms: C_24  and  O_26
REMARK    8  A    between atoms: C_27  and  O_29
REMARK                            x       y       z     vdW  Elec       q    Type
REMARK                         _______ _______ _______ _____ _____    ______ ____
ROOT
ATOM      1  C   UNL     1       7.878   2.221  22.262  0.00  0.00    +0.179 C 
ATOM      2  C   UNL     1       8.317   3.288  23.275  0.00  0.00    +0.177 C 
ATOM      3  C   UNL     1       8.688   2.662  24.627  0.00  0.00    +0.185 C 
ATOM      4  C   UNL     1       7.522   1.812  25.128  0.00  0.00    +0.265 C 
ATOM      5  F   UNL     1       7.856   1.194  26.291  0.00  0.00    -0.236 F 
ATOM      6  C   UNL     1       7.059   0.788  24.085  0.00  0.00    +0.345 C 
ATOM      7  O   UNL     1       6.808   1.427  22.817  0.00  0.00    -0.331 OA
ENDROOT
BRANCH   2   8
ATOM      8  O   UNL     1       7.232   4.214  23.470  0.00  0.00    -0.386 OA
ATOM      9  H   UNL     1       6.421   3.828  23.089  0.00  0.00    +0.210 HD
ENDBRANCH   2   8
BRANCH   3  10
ATOM     10  O   UNL     1       9.911   1.939  24.493  0.00  0.00    -0.386 OA
ATOM     11  H   UNL     1      10.657   2.468  24.841  0.00  0.00    +0.210 HD
ENDBRANCH   3  10
BRANCH   1  12
ATOM     12  C   UNL     1       9.041   1.415  21.655  0.00  0.00    +0.190 C 
BRANCH  12  13
ATOM     13  O   UNL     1      10.222   2.213  21.543  0.00  0.00    -0.392 OA
ATOM     14  H   UNL     1      10.269   2.549  20.632  0.00  0.00    +0.210 HD
ENDBRANCH  12  13
ENDBRANCH   1  12
BRANCH   6  15
ATOM     15  O   UNL     1       7.945  -0.347  24.017  0.00  0.00    -0.454 OA
BRANCH  15  16
ATOM     16  C   UNL     1       7.373  -1.555  23.693  0.00  0.00    +0.201 A 
ATOM     17  C   UNL     1       6.017  -1.840  23.901  0.00  0.00    +0.059 A 
ATOM     18  C   UNL     1       5.421  -2.968  23.331  0.00  0.00    +0.088 A 
ATOM     19  C   UNL     1       6.195  -3.856  22.580  0.00  0.00    +0.280 A 
ATOM     20  C   UNL     1       7.576  -3.677  22.471  0.00  0.00    +0.172 A 
ATOM     21  C   UNL     1       8.149  -2.529  23.045  0.00  0.00    +0.321 A 
BRANCH  19  22
ATOM     22  N   UNL     1       5.535  -4.965  21.881  0.00  0.00    +0.080 N 
ATOM     23  O   UNL     1       6.023  -5.340  20.805  0.00  0.00    +0.041 OA
ATOM     24  O   UNL     1       4.535  -5.463  22.415  0.00  0.00    -0.576 OA
ENDBRANCH  19  22
BRANCH  21  25
ATOM     25  N   UNL     1       9.594  -2.392  22.961  0.00  0.00    +0.084 N 
ATOM     26  O   UNL     1      10.251  -2.905  23.871  0.00  0.00    +0.042 OA
ATOM     27  O   UNL     1      10.068  -1.801  21.981  0.00  0.00    -0.576 OA
ENDBRANCH  21  25
ENDBRANCH  15  16
ENDBRANCH   6  15
TORSDOF 8
ENDMDL
MODEL 4
REMARK VINA RESULT:      -6.4      2.573      6.417
REMARK  Name = 
REMARK  8 active torsions:
REMARK  status: ('A' for Active; 'I' for Inactive)
REMARK    1  A    between atoms: C_2  and  C_3
REMARK    2  A    between atoms: C_3  and  O_4
REMARK    3  A    between atoms: C_6  and  O_8
REMARK    4  A    between atoms: O_8  and  C_9
REMARK    5  A    between atoms: C_10  and  N_18
REMARK    6  A    between atoms: C_12  and  N_15
REMARK    7  A    between atoms: C_24  and  O_26
REMARK    8  A    between atoms: C_27  and  O_29
REMARK                            x       y       z     vdW  Elec       q    Type
REMARK                         _______ _______ _______ _____ _____    ______ ____
ROOT
ATOM      1  C   UNL     1       8.210  -4.668  26.393  0.00  0.00    +0.179 C 
ATOM      2  C   UNL     1       7.160  -5.262  25.443  0.00  0.00    +0.177 C 
ATOM      3  C   UNL     1       6.954  -4.376  24.206  0.00  0.00    +0.185 C 
ATOM      4  C   UNL     1       6.614  -2.955  24.653  0.00  0.00    +0.265 C 
ATOM      5  F   UNL     1       6.495  -2.138  23.573  0.00  0.00    -0.236 F 
ATOM      6  C   UNL     1       7.642  -2.395  25.644  0.00  0.00    +0.345 C 
ATOM      7  O   UNL     1       7.851  -3.313  26.736  0.00  0.00    -0.331 OA
ENDROOT
BRANCH   2   8
ATOM      8  O   UNL     1       5.911  -5.378  26.148  0.00  0.00    -0.386 OA
ATOM      9  H   UNL     1       5.376  -4.582  25.967  0.00  0.00    +0.210 HD
ENDBRANCH   2   8
BRANCH   3  10
ATOM     10  O   UNL     1       8.108  -4.455  23.370  0.00  0.00    -0.386 OA
ATOM     11  H   UNL     1       7.940  -5.056  22.617  0.00  0.00    +0.210 HD
ENDBRANCH   3  10
BRANCH   1  12
ATOM     12  C   UNL     1       9.663  -4.858  25.920  0.00  0.00    +0.190 C 
BRANCH  12  13
ATOM     13  O   UNL     1       9.812  -6.070  25.175  0.00  0.00    -0.392 OA
ATOM     14  H   UNL     1       9.246  -6.744  25.587  0.00  0.00    +0.210 HD
ENDBRANCH  12  13
ENDBRANCH   1  12
BRANCH   6  15
ATOM     15  O   UNL     1       8.849  -1.970  24.981  0.00  0.00    -0.454 OA
BRANCH  15  16
ATOM     16  C   UNL     1       8.894  -0.661  24.564  0.00  0.00    +0.201 A 
ATOM     17  C   UNL     1       8.499   0.414  25.373  0.00  0.00    +0.059 A 
ATOM     18  C   UNL     1       8.797   1.731  25.017  0.00  0.00    +0.088 A 
ATOM     19  C   UNL     1       9.455   1.994  23.813  0.00  0.00    +0.280 A 
ATOM     20  C   UNL     1       9.736   0.958  22.918  0.00  0.00    +0.172 A 
ATOM     21  C   UNL     1       9.436  -0.360  23.304  0.00  0.00    +0.321 A 
BRANCH  19  22
ATOM     22  N   UNL     1       9.875   3.367  23.511  0.00  0.00    +0.080 N 
ATOM     23  O   UNL     1       8.992   4.231  23.413  0.00  0.00    +0.041 OA
ATOM     24  O   UNL     1      11.088   3.579  23.383  0.00  0.00    -0.576 OA
ENDBRANCH  19  22
BRANCH  21  25
ATOM     25  N   UNL     1       9.692  -1.413  22.336  0.00  0.00    +0.084 N 
ATOM     26  O   UNL     1      10.857  -1.814  22.251  0.00  0.00    +0.042 OA
ATOM     27  O   UNL     1       8.735  -1.853  21.684  0.00  0.00    -0.576 OA
ENDBRANCH  21  25
ENDBRANCH  15  16
ENDBRANCH   6  15
TORSDOF 8
ENDMDL
MODEL 5
REMARK VINA RESULT:      -6.3      2.595      6.474
REMARK  Name = 
REMARK  8 active torsions:
REMARK  status: ('A' for Active; 'I' for Inactive)
REMARK    1  A    between atoms: C_2  and  C_3
REMARK    2  A    between atoms: C_3  and  O_4
REMARK    3  A    between atoms: C_6  and  O_8
REMARK    4  A    between atoms: O_8  and  C_9
REMARK    5  A    between atoms: C_10  and  N_18
REMARK    6  A    between atoms: C_12  and  N_15
REMARK    7  A    between atoms: C_24  and  O_26
REMARK    8  A    between atoms: C_27  and  O_29
REMARK                            x       y       z     vdW  Elec       q    Type
REMARK                         _______ _______ _______ _____ _____    ______ ____
ROOT
ATOM      1  C   UNL     1       6.346  -4.625  25.966  0.00  0.00    +0.179 C 
ATOM      2  C   UNL     1       6.345  -5.568  24.753  0.00  0.00    +0.177 C 
ATOM      3  C   UNL     1       7.198  -5.010  23.605  0.00  0.00    +0.185 C 
ATOM      4  C   UNL     1       6.721  -3.600  23.260  0.00  0.00    +0.265 C 
ATOM      5  F   UNL     1       7.507  -3.061  22.292  0.00  0.00    -0.236 F 
ATOM      6  C   UNL     1       6.674  -2.685  24.490  0.00  0.00    +0.345 C 
ATOM      7  O   UNL     1       5.931  -3.304  25.560  0.00  0.00    -0.331 OA
ENDROOT
BRANCH   2   8
ATOM      8  O   UNL     1       4.991  -5.730  24.294  0.00  0.00    -0.386 OA
ATOM      9  H   UNL     1       4.967  -5.569  23.332  0.00  0.00    +0.210 HD
ENDBRANCH   2   8
BRANCH   3  10
ATOM     10  O   UNL     1       8.578  -5.078  23.964  0.00  0.00    -0.386 OA
ATOM     11  H   UNL     1       8.926  -5.979  23.802  0.00  0.00    +0.210 HD
ENDBRANCH   3  10
BRANCH   1  12
ATOM     12  C   UNL     1       7.639  -4.676  26.800  0.00  0.00    +0.190 C 
BRANCH  12  13
ATOM     13  O   UNL     1       8.198  -5.992  26.811  0.00  0.00    -0.392 OA
ATOM     14  H   UNL     1       9.093  -5.938  26.436  0.00  0.00    +0.210 HD
ENDBRANCH  12  13
ENDBRANCH   1  12
BRANCH   6  15
ATOM     15  O   UNL     1       7.986  -2.222  24.865  0.00  0.00    -0.454 OA
BRANCH  15  16
ATOM     16  C   UNL     1       8.316  -0.940  24.493  0.00  0.00    +0.201 A 
ATOM     17  C   UNL     1       7.605   0.188  24.925  0.00  0.00    +0.059 A 
ATOM     18  C   UNL     1       8.116   1.476  24.741  0.00  0.00    +0.088 A 
ATOM     19  C   UNL     1       9.330   1.652  24.072  0.00  0.00    +0.280 A 
ATOM     20  C   UNL     1       9.993   0.560  23.506  0.00  0.00    +0.172 A 
ATOM     21  C   UNL     1       9.464  -0.725  23.714  0.00  0.00    +0.321 A 
BRANCH  19  22
ATOM     22  N   UNL     1       9.917   2.995  23.998  0.00  0.00    +0.080 N 
ATOM     23  O   UNL     1      11.028   3.109  23.461  0.00  0.00    +0.041 OA
ATOM     24  O   UNL     1       9.260   3.933  24.469  0.00  0.00    -0.576 OA
ENDBRANCH  19  22
BRANCH  21  25
ATOM     25  N   UNL     1      10.145  -1.838  23.073  0.00  0.00    +0.084 N 
ATOM     26  O   UNL     1      10.466  -1.681  21.891  0.00  0.00    +0.042 OA
ATOM     27  O   UNL     1      10.380  -2.848  23.750  0.00  0.00    -0.576 OA
ENDBRANCH  21  25
ENDBRANCH  15  16
ENDBRANCH   6  15
TORSDOF 8
ENDMDL
MODEL 6
REMARK VINA RESULT:      -6.3      2.682      3.920
REMARK  Name = 
REMARK  8 active torsions:
REMARK  status: ('A' for Active; 'I' for Inactive)
REMARK    1  A    between atoms: C_2  and  C_3
REMARK    2  A    between atoms: C_3  and  O_4
REMARK    3  A    between atoms: C_6  and  O_8
REMARK    4  A    between atoms: O_8  and  C_9
REMARK    5  A    between atoms: C_10  and  N_18
REMARK    6  A    between atoms: C_12  and  N_15
REMARK    7  A    between atoms: C_24  and  O_26
REMARK    8  A    between atoms: C_27  and  O_29
REMARK                            x       y       z     vdW  Elec       q    Type
REMARK                         _______ _______ _______ _____ _____    ______ ____
ROOT
ATOM      1  C   UNL     1       8.432   0.772  23.607  0.00  0.00    +0.179 C 
ATOM      2  C   UNL     1       9.822   0.740  22.954  0.00  0.00    +0.177 C 
ATOM      3  C   UNL     1      10.236  -0.690  22.581  0.00  0.00    +0.185 C 
ATOM      4  C   UNL     1      10.141  -1.583  23.818  0.00  0.00    +0.265 C 
ATOM      5  F   UNL     1      10.438  -2.869  23.494  0.00  0.00    -0.236 F 
ATOM      6  C   UNL     1       8.766  -1.499  24.491  0.00  0.00    +0.345 C 
ATOM      7  O   UNL     1       8.400  -0.126  24.737  0.00  0.00    -0.331 OA
ENDROOT
BRANCH   2   8
ATOM      8  O   UNL     1      10.781   1.278  23.881  0.00  0.00    -0.386 OA
ATOM      9  H   UNL     1      11.641   0.844  23.727  0.00  0.00    +0.210 HD
ENDBRANCH   2   8
BRANCH   3  10
ATOM     10  O   UNL     1       9.443  -1.142  21.484  0.00  0.00    -0.386 OA
ATOM     11  H   UNL     1       8.509  -1.239  21.758  0.00  0.00    +0.210 HD
ENDBRANCH   3  10
BRANCH   1  12
ATOM     12  C   UNL     1       7.267   0.612  22.613  0.00  0.00    +0.190 C 
BRANCH  12  13
ATOM     13  O   UNL     1       6.071   0.195  23.277  0.00  0.00    -0.392 OA
ATOM     14  H   UNL     1       5.520  -0.275  22.629  0.00  0.00    +0.210 HD
ENDBRANCH  12  13
ENDBRANCH   1  12
BRANCH   6  15
ATOM     15  O   UNL     1       7.773  -2.263  23.780  0.00  0.00    -0.454 OA
BRANCH  15  16
ATOM     16  C   UNL     1       7.353  -3.430  24.375  0.00  0.00    +0.201 A 
ATOM     17  C   UNL     1       7.664  -3.769  25.699  0.00  0.00    +0.059 A 
ATOM     18  C   UNL     1       7.014  -4.824  26.344  0.00  0.00    +0.088 A 
ATOM     19  C   UNL     1       6.074  -5.589  25.650  0.00  0.00    +0.280 A 
ATOM     20  C   UNL     1       5.844  -5.368  24.290  0.00  0.00    +0.172 A 
ATOM     21  C   UNL     1       6.502  -4.293  23.666  0.00  0.00    +0.321 A 
BRANCH  19  22
ATOM     22  N   UNL     1       5.307  -6.609  26.374  0.00  0.00    +0.080 N 
ATOM     23  O   UNL     1       5.693  -6.923  27.509  0.00  0.00    +0.041 OA
ATOM     24  O   UNL     1       4.314  -7.087  25.809  0.00  0.00    -0.576 OA
ENDBRANCH  19  22
BRANCH  21  25
ATOM     25  N   UNL     1       6.284  -4.116  22.240  0.00  0.00    +0.084 N 
ATOM     26  O   UNL     1       7.073  -4.691  21.485  0.00  0.00    +0.042 OA
ATOM     27  O   UNL     1       5.318  -3.430  21.878  0.00  0.00    -0.576 OA
ENDBRANCH  21  25
ENDBRANCH  15  16
ENDBRANCH   6  15
TORSDOF 8
ENDMDL
MODEL 7
REMARK VINA RESULT:      -6.3      2.392      3.164
REMARK  Name = 
REMARK  8 active torsions:
REMARK  status: ('A' for Active; 'I' for Inactive)
REMARK    1  A    between atoms: C_2  and  C_3
REMARK    2  A    between atoms: C_3  and  O_4
REMARK    3  A    between atoms: C_6  and  O_8
REMARK    4  A    between atoms: O_8  and  C_9
REMARK    5  A    between atoms: C_10  and  N_18
REMARK    6  A    between atoms: C_12  and  N_15
REMARK    7  A    between atoms: C_24  and  O_26
REMARK    8  A    between atoms: C_27  and  O_29
REMARK                            x       y       z     vdW  Elec       q    Type
REMARK                         _______ _______ _______ _____ _____    ______ ____
ROOT
ATOM      1  C   UNL     1       7.956   1.605  21.863  0.00  0.00    +0.179 C 
ATOM      2  C   UNL     1       7.760   3.017  22.436  0.00  0.00    +0.177 C 
ATOM      3  C   UNL     1       8.026   3.054  23.947  0.00  0.00    +0.185 C 
ATOM      4  C   UNL     1       7.155   2.007  24.640  0.00  0.00    +0.265 C 
ATOM      5  F   UNL     1       7.426   1.976  25.971  0.00  0.00    -0.236 F 
ATOM      6  C   UNL     1       7.321   0.613  24.022  0.00  0.00    +0.345 C 
ATOM      7  O   UNL     1       7.142   0.662  22.592  0.00  0.00    -0.331 OA
ENDROOT
BRANCH   2   8
ATOM      8  O   UNL     1       6.404   3.431  22.189  0.00  0.00    -0.386 OA
ATOM      9  H   UNL     1       6.233   3.383  21.229  0.00  0.00    +0.210 HD
ENDBRANCH   2   8
BRANCH   3  10
ATOM     10  O   UNL     1       9.424   2.889  24.186  0.00  0.00    -0.386 OA
ATOM     11  H   UNL     1       9.941   3.411  23.540  0.00  0.00    +0.210 HD
ENDBRANCH   3  10
BRANCH   1  12
ATOM     12  C   UNL     1       9.431   1.197  21.691  0.00  0.00    +0.190 C 
BRANCH  12  13
ATOM     13  O   UNL     1      10.270   2.343  21.528  0.00  0.00    -0.392 OA
ATOM     14  H   UNL     1       9.706   3.133  21.565  0.00  0.00    +0.210 HD
ENDBRANCH  12  13
ENDBRANCH   1  12
BRANCH   6  15
ATOM     15  O   UNL     1       8.542  -0.022  24.449  0.00  0.00    -0.454 OA
BRANCH  15  16
ATOM     16  C   UNL     1       8.424  -1.277  24.998  0.00  0.00    +0.201 A 
ATOM     17  C   UNL     1       8.001  -1.500  26.316  0.00  0.00    +0.059 A 
ATOM     18  C   UNL     1       7.648  -2.779  26.753  0.00  0.00    +0.088 A 
ATOM     19  C   UNL     1       7.764  -3.866  25.884  0.00  0.00    +0.280 A 
ATOM     20  C   UNL     1       8.316  -3.701  24.611  0.00  0.00    +0.172 A 
ATOM     21  C   UNL     1       8.653  -2.403  24.191  0.00  0.00    +0.321 A 
BRANCH  19  22
ATOM     22  N   UNL     1       7.271  -5.180  26.312  0.00  0.00    +0.080 N 
ATOM     23  O   UNL     1       7.737  -5.658  27.357  0.00  0.00    +0.041 OA
ATOM     24  O   UNL     1       6.412  -5.727  25.607  0.00  0.00    -0.576 OA
ENDBRANCH  19  22
BRANCH  21  25
ATOM     25  N   UNL     1       9.271  -2.265  22.882  0.00  0.00    +0.084 N 
ATOM     26  O   UNL     1       8.509  -2.243  21.911  0.00  0.00    +0.042 OA
ATOM     27  O   UNL     1      10.504  -2.155  22.827  0.00  0.00    -0.576 OA
ENDBRANCH  21  25
ENDBRANCH  15  16
ENDBRANCH   6  15
TORSDOF 8
ENDMDL
MODEL 8
REMARK VINA RESULT:      -6.3      2.483      6.274
REMARK  Name = 
REMARK  8 active torsions:
REMARK  status: ('A' for Active; 'I' for Inactive)
REMARK    1  A    between atoms: C_2  and  C_3
REMARK    2  A    between atoms: C_3  and  O_4
REMARK    3  A    between atoms: C_6  and  O_8
REMARK    4  A    between atoms: O_8  and  C_9
REMARK    5  A    between atoms: C_10  and  N_18
REMARK    6  A    between atoms: C_12  and  N_15
REMARK    7  A    between atoms: C_24  and  O_26
REMARK    8  A    between atoms: C_27  and  O_29
REMARK                            x       y       z     vdW  Elec       q    Type
REMARK                         _______ _______ _______ _____ _____    ______ ____
ROOT
ATOM      1  C   UNL     1       8.211  -4.884  24.471  0.00  0.00    +0.179 C 
ATOM      2  C   UNL     1       7.603  -5.184  25.850  0.00  0.00    +0.177 C 
ATOM      3  C   UNL     1       7.017  -3.920  26.493  0.00  0.00    +0.185 C 
ATOM      4  C   UNL     1       8.089  -2.832  26.541  0.00  0.00    +0.265 C 
ATOM      5  F   UNL     1       7.570  -1.682  27.045  0.00  0.00    -0.236 F 
ATOM      6  C   UNL     1       8.725  -2.583  25.168  0.00  0.00    +0.345 C 
ATOM      7  O   UNL     1       9.178  -3.820  24.582  0.00  0.00    -0.331 OA
ENDROOT
BRANCH   2   8
ATOM      8  O   UNL     1       8.634  -5.709  26.705  0.00  0.00    -0.386 OA
ATOM      9  H   UNL     1       9.494  -5.350  26.414  0.00  0.00    +0.210 HD
ENDBRANCH   2   8
BRANCH   3  10
ATOM     10  O   UNL     1       5.837  -3.534  25.789  0.00  0.00    -0.386 OA
ATOM     11  H   UNL     1       5.496  -4.284  25.262  0.00  0.00    +0.210 HD
ENDBRANCH   3  10
BRANCH   1  12
ATOM     12  C   UNL     1       7.169  -4.706  23.352  0.00  0.00    +0.190 C 
BRANCH  12  13
ATOM     13  O   UNL     1       7.688  -3.914  22.280  0.00  0.00    -0.392 OA
ATOM     14  H   UNL     1       8.216  -4.497  21.709  0.00  0.00    +0.210 HD
ENDBRANCH  12  13
ENDBRANCH   1  12
BRANCH   6  15
ATOM     15  O   UNL     1       7.869  -1.796  24.315  0.00  0.00    -0.454 OA
BRANCH  15  16
ATOM     16  C   UNL     1       8.265  -0.502  24.071  0.00  0.00    +0.201 A 
ATOM     17  C   UNL     1       7.768   0.597  24.785  0.00  0.00    +0.059 A 
ATOM     18  C   UNL     1       8.374   1.852  24.690  0.00  0.00    +0.088 A 
ATOM     19  C   UNL     1       9.463   2.034  23.834  0.00  0.00    +0.280 A 
ATOM     20  C   UNL     1       9.894   0.996  23.003  0.00  0.00    +0.172 A 
ATOM     21  C   UNL     1       9.274  -0.260  23.126  0.00  0.00    +0.321 A 
BRANCH  19  22
ATOM     22  N   UNL     1      10.170   3.320  23.838  0.00  0.00    +0.080 N 
ATOM     23  O   UNL     1      11.348   3.331  23.456  0.00  0.00    +0.041 OA
ATOM     24  O   UNL     1       9.540   4.317  24.216  0.00  0.00    -0.576 OA
ENDBRANCH  19  22
BRANCH  21  25
ATOM     25  N   UNL     1       9.707  -1.308  22.216  0.00  0.00    +0.084 N 
ATOM     26  O   UNL     1       8.964  -1.551  21.261  0.00  0.00    +0.042 OA
ATOM     27  O   UNL     1      10.791  -1.865  22.440  0.00  0.00    -0.576 OA
ENDBRANCH  21  25
ENDBRANCH  15  16
ENDBRANCH   6  15
TORSDOF 8
ENDMDL
MODEL 9
REMARK VINA RESULT:      -6.3      3.624      6.863
REMARK  Name = 
REMARK  8 active torsions:
REMARK  status: ('A' for Active; 'I' for Inactive)
REMARK    1  A    between atoms: C_2  and  C_3
REMARK    2  A    between atoms: C_3  and  O_4
REMARK    3  A    between atoms: C_6  and  O_8
REMARK    4  A    between atoms: O_8  and  C_9
REMARK    5  A    between atoms: C_10  and  N_18
REMARK    6  A    between atoms: C_12  and  N_15
REMARK    7  A    between atoms: C_24  and  O_26
REMARK    8  A    between atoms: C_27  and  O_29
REMARK                            x       y       z     vdW  Elec       q    Type
REMARK                         _______ _______ _______ _____ _____    ______ ____
ROOT
ATOM      1  C   UNL     1       4.929  -6.977  26.066  0.00  0.00    +0.179 C 
ATOM      2  C   UNL     1       4.429  -6.791  27.506  0.00  0.00    +0.177 C 
ATOM      3  C   UNL     1       4.350  -5.306  27.888  0.00  0.00    +0.185 C 
ATOM      4  C   UNL     1       5.707  -4.648  27.642  0.00  0.00    +0.265 C 
ATOM      5  F   UNL     1       5.640  -3.317  27.908  0.00  0.00    -0.236 F 
ATOM      6  C   UNL     1       6.219  -4.889  26.216  0.00  0.00    +0.345 C 
ATOM      7  O   UNL     1       6.188  -6.293  25.892  0.00  0.00    -0.331 OA
ENDROOT
BRANCH   2   8
ATOM      8  O   UNL     1       5.338  -7.456  28.401  0.00  0.00    -0.386 OA
ATOM      9  H   UNL     1       5.795  -8.165  27.910  0.00  0.00    +0.210 HD
ENDBRANCH   2   8
BRANCH   3  10
ATOM     10  O   UNL     1       3.276  -4.691  27.178  0.00  0.00    -0.386 OA
ATOM     11  H   UNL     1       3.046  -5.219  26.387  0.00  0.00    +0.210 HD
ENDBRANCH   3  10
BRANCH   1  12
ATOM     12  C   UNL     1       3.869  -6.677  24.990  0.00  0.00    +0.190 C 
BRANCH  12  13
ATOM     13  O   UNL     1       4.166  -7.354  23.766  0.00  0.00    -0.392 OA
ATOM     14  H   UNL     1       3.463  -8.006  23.608  0.00  0.00    +0.210 HD
ENDBRANCH  12  13
ENDBRANCH   1  12
BRANCH   6  15
ATOM     15  O   UNL     1       5.558  -4.039  25.258  0.00  0.00    -0.454 OA
BRANCH  15  16
ATOM     16  C   UNL     1       6.368  -3.289  24.438  0.00  0.00    +0.201 A 
ATOM     17  C   UNL     1       6.981  -2.097  24.851  0.00  0.00    +0.059 A 
ATOM     18  C   UNL     1       7.990  -1.505  24.089  0.00  0.00    +0.088 A 
ATOM     19  C   UNL     1       8.367  -2.075  22.871  0.00  0.00    +0.280 A 
ATOM     20  C   UNL     1       7.680  -3.181  22.364  0.00  0.00    +0.172 A 
ATOM     21  C   UNL     1       6.676  -3.766  23.154  0.00  0.00    +0.321 A 
BRANCH  19  22
ATOM     22  N   UNL     1       9.513  -1.518  22.144  0.00  0.00    +0.080 N 
ATOM     23  O   UNL     1       9.282  -0.687  21.254  0.00  0.00    +0.041 OA
ATOM     24  O   UNL     1      10.642  -1.906  22.472  0.00  0.00    -0.576 OA
ENDBRANCH  19  22
BRANCH  21  25
ATOM     25  N   UNL     1       5.943  -4.884  22.582  0.00  0.00    +0.084 N 
ATOM     26  O   UNL     1       6.525  -5.973  22.564  0.00  0.00    +0.042 OA
ATOM     27  O   UNL     1       4.790  -4.681  22.179  0.00  0.00    -0.576 OA
ENDBRANCH  21  25
ENDBRANCH  15  16
ENDBRANCH   6  15
TORSDOF 8
ENDMDL
