MODEL 1
REMARK VINA RESULT:      -7.3      0.000      0.000
REMARK  Name = 
REMARK  7 active torsions:
REMARK  status: ('A' for Active; 'I' for Inactive)
REMARK    1  A    between atoms: O_1  and  C_2
REMARK    2  A    between atoms: C_4  and  O_5
REMARK    3  A    between atoms: C_9  and  C_14
REMARK    4  A    between atoms: C_10  and  O_11
REMARK    5  A    between atoms: C_16  and  O_17
REMARK    6  A    between atoms: C_18  and  O_19
REMARK    7  A    between atoms: C_20  and  O_21
REMARK                            x       y       z     vdW  Elec       q    Type
REMARK                         _______ _______ _______ _____ _____    ______ ____
ROOT
ATOM      1  C   UNL     1       3.840  -6.434  23.910  0.00  0.00    +0.124 A 
ATOM      2  C   UNL     1       4.738  -5.420  23.586  0.00  0.00    +0.092 A 
ATOM      3  C   UNL     1       5.737  -5.056  24.495  0.00  0.00    +0.147 A 
ATOM      4  O   UNL     1       6.588  -4.050  24.106  0.00  0.00    -0.451 OA
ATOM      5  C   UNL     1       7.575  -3.613  24.985  0.00  0.00    +0.181 A 
ATOM      6  C   UNL     1       7.782  -4.173  26.197  0.00  0.00    +0.208 A 
ATOM      7  C   UNL     1       6.917  -5.307  26.635  0.00  0.00    +0.238 A 
ATOM      8  O   UNL     1       7.141  -5.875  27.690  0.00  0.00    -0.283 OA
ATOM      9  C   UNL     1       5.839  -5.716  25.720  0.00  0.00    +0.109 A 
ATOM     10  C   UNL     1       4.929  -6.745  26.028  0.00  0.00    +0.135 A 
ATOM     11  C   UNL     1       3.926  -7.105  25.125  0.00  0.00    +0.091 A 
ENDROOT
BRANCH   5  12
ATOM     12  C   UNL     1       8.391  -2.481  24.439  0.00  0.00    +0.028 A 
ATOM     13  C   UNL     1       8.952  -2.521  23.147  0.00  0.00    +0.061 A 
ATOM     14  C   UNL     1       9.656  -1.432  22.639  0.00  0.00    +0.163 A 
ATOM     15  C   UNL     1       9.865  -0.306  23.415  0.00  0.00    +0.201 A 
ATOM     16  C   UNL     1       9.366  -0.259  24.710  0.00  0.00    +0.163 A 
ATOM     17  C   UNL     1       8.631  -1.331  25.224  0.00  0.00    +0.061 A 
BRANCH  14  18
ATOM     18  O   UNL     1      10.132  -1.479  21.361  0.00  0.00    -0.503 OA
ATOM     19  H   UNL     1      11.022  -1.075  21.410  0.00  0.00    +0.292 HD
ENDBRANCH  14  18
BRANCH  15  20
ATOM     20  O   UNL     1      10.566   0.745  22.891  0.00  0.00    -0.501 OA
ATOM     21  H   UNL     1      10.039   1.030  22.116  0.00  0.00    +0.292 HD
ENDBRANCH  15  20
BRANCH  16  22
ATOM     22  O   UNL     1       9.621   0.871  25.439  0.00  0.00    -0.503 OA
ATOM     23  H   UNL     1       8.841   1.064  25.990  0.00  0.00    +0.292 HD
ENDBRANCH  16  22
ENDBRANCH   5  12
BRANCH   1  24
ATOM     24  O   UNL     1       2.878  -6.751  22.998  0.00  0.00    -0.507 OA
ATOM     25  H   UNL     1       3.228  -6.630  22.098  0.00  0.00    +0.292 HD
ENDBRANCH   1  24
BRANCH   6  26
ATOM     26  O   UNL     1       8.775  -3.803  27.085  0.00  0.00    -0.501 OA
ATOM     27  H   UNL     1       8.408  -3.830  27.983  0.00  0.00    +0.292 HD
ENDBRANCH   6  26
BRANCH  10  28
ATOM     28  O   UNL     1       5.002  -7.411  27.218  0.00  0.00    -0.506 OA
ATOM     29  H   UNL     1       4.690  -8.324  27.133  0.00  0.00    +0.292 HD
ENDBRANCH  10  28
TORSDOF 7
ENDMDL
MODEL 2
REMARK VINA RESULT:      -7.2      0.096      1.722
REMARK  Name = 
REMARK  7 active torsions:
REMARK  status: ('A' for Active; 'I' for Inactive)
REMARK    1  A    between atoms: O_1  and  C_2
REMARK    2  A    between atoms: C_4  and  O_5
REMARK    3  A    between atoms: C_9  and  C_14
REMARK    4  A    between atoms: C_10  and  O_11
REMARK    5  A    between atoms: C_16  and  O_17
REMARK    6  A    between atoms: C_18  and  O_19
REMARK    7  A    between atoms: C_20  and  O_21
REMARK                            x       y       z     vdW  Elec       q    Type
REMARK                         _______ _______ _______ _____ _____    ______ ____
ROOT
ATOM      1  C   UNL     1       3.773  -6.423  23.891  0.00  0.00    +0.124 A 
ATOM      2  C   UNL     1       4.670  -5.403  23.584  0.00  0.00    +0.092 A 
ATOM      3  C   UNL     1       5.681  -5.066  24.490  0.00  0.00    +0.147 A 
ATOM      4  O   UNL     1       6.531  -4.053  24.117  0.00  0.00    -0.451 OA
ATOM      5  C   UNL     1       7.529  -3.642  24.995  0.00  0.00    +0.181 A 
ATOM      6  C   UNL     1       7.748  -4.234  26.191  0.00  0.00    +0.208 A 
ATOM      7  C   UNL     1       6.884  -5.376  26.609  0.00  0.00    +0.238 A 
ATOM      8  O   UNL     1       7.117  -5.971  27.647  0.00  0.00    -0.283 OA
ATOM      9  C   UNL     1       5.795  -5.758  25.696  0.00  0.00    +0.109 A 
ATOM     10  C   UNL     1       4.884  -6.791  25.989  0.00  0.00    +0.135 A 
ATOM     11  C   UNL     1       3.870  -7.125  25.087  0.00  0.00    +0.091 A 
ENDROOT
BRANCH   5  12
ATOM     12  C   UNL     1       8.343  -2.499  24.469  0.00  0.00    +0.028 A 
ATOM     13  C   UNL     1       8.580  -1.338  25.233  0.00  0.00    +0.061 A 
ATOM     14  C   UNL     1       9.387  -0.314  24.745  0.00  0.00    +0.163 A 
ATOM     15  C   UNL     1       9.933  -0.393  23.476  0.00  0.00    +0.201 A 
ATOM     16  C   UNL     1       9.675  -1.502  22.683  0.00  0.00    +0.163 A 
ATOM     17  C   UNL     1       8.892  -2.553  23.169  0.00  0.00    +0.061 A 
BRANCH  14  18
ATOM     18  O   UNL     1       9.648   0.767  25.535  0.00  0.00    -0.503 OA
ATOM     19  H   UNL     1      10.288   1.303  25.024  0.00  0.00    +0.292 HD
ENDBRANCH  14  18
BRANCH  15  20
ATOM     20  O   UNL     1      10.717   0.632  23.022  0.00  0.00    -0.501 OA
ATOM     21  H   UNL     1      10.685   1.300  23.737  0.00  0.00    +0.292 HD
ENDBRANCH  15  20
BRANCH  16  22
ATOM     22  O   UNL     1      10.223  -1.517  21.429  0.00  0.00    -0.503 OA
ATOM     23  H   UNL     1       9.501  -1.504  20.776  0.00  0.00    +0.292 HD
ENDBRANCH  16  22
ENDBRANCH   5  12
BRANCH   1  24
ATOM     24  O   UNL     1       2.799  -6.713  22.982  0.00  0.00    -0.507 OA
ATOM     25  H   UNL     1       1.934  -6.433  23.330  0.00  0.00    +0.292 HD
ENDBRANCH   1  24
BRANCH   6  26
ATOM     26  O   UNL     1       8.753  -3.889  27.076  0.00  0.00    -0.501 OA
ATOM     27  H   UNL     1       9.015  -4.686  27.563  0.00  0.00    +0.292 HD
ENDBRANCH   6  26
BRANCH  10  28
ATOM     28  O   UNL     1       4.968  -7.487  27.160  0.00  0.00    -0.506 OA
ATOM     29  H   UNL     1       4.345  -8.229  27.177  0.00  0.00    +0.292 HD
ENDBRANCH  10  28
TORSDOF 7
ENDMDL
MODEL 3
REMARK VINA RESULT:      -7.1      1.680      6.962
REMARK  Name = 
REMARK  7 active torsions:
REMARK  status: ('A' for Active; 'I' for Inactive)
REMARK    1  A    between atoms: O_1  and  C_2
REMARK    2  A    between atoms: C_4  and  O_5
REMARK    3  A    between atoms: C_9  and  C_14
REMARK    4  A    between atoms: C_10  and  O_11
REMARK    5  A    between atoms: C_16  and  O_17
REMARK    6  A    between atoms: C_18  and  O_19
REMARK    7  A    between atoms: C_20  and  O_21
REMARK                            x       y       z     vdW  Elec       q    Type
REMARK                         _______ _______ _______ _____ _____    ______ ____
ROOT
ATOM      1  C   UNL     1       7.152   0.902  23.843  0.00  0.00    +0.124 A 
ATOM      2  C   UNL     1       6.442  -0.266  24.112  0.00  0.00    +0.092 A 
ATOM      3  C   UNL     1       7.104  -1.499  24.124  0.00  0.00    +0.147 A 
ATOM      4  O   UNL     1       6.339  -2.606  24.401  0.00  0.00    -0.451 OA
ATOM      5  C   UNL     1       6.932  -3.866  24.383  0.00  0.00    +0.181 A 
ATOM      6  C   UNL     1       8.252  -4.055  24.161  0.00  0.00    +0.208 A 
ATOM      7  C   UNL     1       9.128  -2.874  23.914  0.00  0.00    +0.238 A 
ATOM      8  O   UNL     1      10.332  -3.021  23.791  0.00  0.00    -0.283 OA
ATOM      9  C   UNL     1       8.475  -1.555  23.876  0.00  0.00    +0.109 A 
ATOM     10  C   UNL     1       9.180  -0.365  23.612  0.00  0.00    +0.135 A 
ATOM     11  C   UNL     1       8.520   0.866  23.594  0.00  0.00    +0.091 A 
ENDROOT
BRANCH   5  12
ATOM     12  C   UNL     1       5.964  -4.976  24.656  0.00  0.00    +0.028 A 
ATOM     13  C   UNL     1       5.038  -5.413  23.686  0.00  0.00    +0.061 A 
ATOM     14  C   UNL     1       4.188  -6.486  23.943  0.00  0.00    +0.163 A 
ATOM     15  C   UNL     1       4.199  -7.113  25.176  0.00  0.00    +0.201 A 
ATOM     16  C   UNL     1       5.065  -6.670  26.166  0.00  0.00    +0.163 A 
ATOM     17  C   UNL     1       5.946  -5.615  25.916  0.00  0.00    +0.061 A 
BRANCH  14  18
ATOM     18  O   UNL     1       3.349  -6.925  22.961  0.00  0.00    -0.503 OA
ATOM     19  H   UNL     1       2.464  -6.598  23.222  0.00  0.00    +0.292 HD
ENDBRANCH  14  18
BRANCH  15  20
ATOM     20  O   UNL     1       3.347  -8.160  25.401  0.00  0.00    -0.501 OA
ATOM     21  H   UNL     1       3.130  -8.494  24.506  0.00  0.00    +0.292 HD
ENDBRANCH  15  20
BRANCH  16  22
ATOM     22  O   UNL     1       5.017  -7.313  27.374  0.00  0.00    -0.503 OA
ATOM     23  H   UNL     1       4.572  -8.170  27.249  0.00  0.00    +0.292 HD
ENDBRANCH  16  22
ENDBRANCH   5  12
BRANCH   1  24
ATOM     24  O   UNL     1       6.466   2.080  23.835  0.00  0.00    -0.507 OA
ATOM     25  H   UNL     1       7.083   2.817  23.981  0.00  0.00    +0.292 HD
ENDBRANCH   1  24
BRANCH   6  26
ATOM     26  O   UNL     1       8.892  -5.281  24.177  0.00  0.00    -0.501 OA
ATOM     27  H   UNL     1       9.666  -5.228  23.594  0.00  0.00    +0.292 HD
ENDBRANCH   6  26
BRANCH  10  28
ATOM     28  O   UNL     1      10.523  -0.387  23.366  0.00  0.00    -0.506 OA
ATOM     29  H   UNL     1      10.875  -1.289  23.404  0.00  0.00    +0.292 HD
ENDBRANCH  10  28
TORSDOF 7
ENDMDL
MODEL 4
REMARK VINA RESULT:      -7.1      1.687      7.101
REMARK  Name = 
REMARK  7 active torsions:
REMARK  status: ('A' for Active; 'I' for Inactive)
REMARK    1  A    between atoms: O_1  and  C_2
REMARK    2  A    between atoms: C_4  and  O_5
REMARK    3  A    between atoms: C_9  and  C_14
REMARK    4  A    between atoms: C_10  and  O_11
REMARK    5  A    between atoms: C_16  and  O_17
REMARK    6  A    between atoms: C_18  and  O_19
REMARK    7  A    between atoms: C_20  and  O_21
REMARK                            x       y       z     vdW  Elec       q    Type
REMARK                         _______ _______ _______ _____ _____    ______ ____
ROOT
ATOM      1  C   UNL     1       7.122   0.850  23.834  0.00  0.00    +0.124 A 
ATOM      2  C   UNL     1       6.434  -0.329  24.108  0.00  0.00    +0.092 A 
ATOM      3  C   UNL     1       7.119  -1.549  24.131  0.00  0.00    +0.147 A 
ATOM      4  O   UNL     1       6.375  -2.669  24.413  0.00  0.00    -0.451 OA
ATOM      5  C   UNL     1       6.992  -3.917  24.406  0.00  0.00    +0.181 A 
ATOM      6  C   UNL     1       8.315  -4.083  24.190  0.00  0.00    +0.208 A 
ATOM      7  C   UNL     1       9.170  -2.886  23.937  0.00  0.00    +0.238 A 
ATOM      8  O   UNL     1      10.377  -3.011  23.819  0.00  0.00    -0.283 OA
ATOM      9  C   UNL     1       8.492  -1.581  23.887  0.00  0.00    +0.109 A 
ATOM     10  C   UNL     1       9.174  -0.379  23.618  0.00  0.00    +0.135 A 
ATOM     11  C   UNL     1       8.490   0.839  23.589  0.00  0.00    +0.091 A 
ENDROOT
BRANCH   5  12
ATOM     12  C   UNL     1       6.044  -5.044  24.683  0.00  0.00    +0.028 A 
ATOM     13  C   UNL     1       6.013  -5.704  25.928  0.00  0.00    +0.061 A 
ATOM     14  C   UNL     1       5.084  -6.709  26.182  0.00  0.00    +0.163 A 
ATOM     15  C   UNL     1       4.202  -7.117  25.196  0.00  0.00    +0.201 A 
ATOM     16  C   UNL     1       4.244  -6.519  23.944  0.00  0.00    +0.163 A 
ATOM     17  C   UNL     1       5.150  -5.487  23.683  0.00  0.00    +0.061 A 
BRANCH  14  18
ATOM     18  O   UNL     1       5.039  -7.284  27.419  0.00  0.00    -0.503 OA
ATOM     19  H   UNL     1       4.229  -6.924  27.833  0.00  0.00    +0.292 HD
ENDBRANCH  14  18
BRANCH  15  20
ATOM     20  O   UNL     1       3.305  -8.111  25.473  0.00  0.00    -0.501 OA
ATOM     21  H   UNL     1       3.098  -8.505  24.600  0.00  0.00    +0.292 HD
ENDBRANCH  15  20
BRANCH  16  22
ATOM     22  O   UNL     1       3.364  -6.977  23.001  0.00  0.00    -0.503 OA
ATOM     23  H   UNL     1       3.486  -7.938  22.907  0.00  0.00    +0.292 HD
ENDBRANCH  16  22
ENDBRANCH   5  12
BRANCH   1  24
ATOM     24  O   UNL     1       6.413   2.014  23.815  0.00  0.00    -0.507 OA
ATOM     25  H   UNL     1       7.019   2.767  23.923  0.00  0.00    +0.292 HD
ENDBRANCH   1  24
BRANCH   6  26
ATOM     26  O   UNL     1       8.979  -5.296  24.216  0.00  0.00    -0.501 OA
ATOM     27  H   UNL     1       8.541  -5.869  24.866  0.00  0.00    +0.292 HD
ENDBRANCH   6  26
BRANCH  10  28
ATOM     28  O   UNL     1      10.518  -0.377  23.375  0.00  0.00    -0.506 OA
ATOM     29  H   UNL     1      10.959   0.355  23.832  0.00  0.00    +0.292 HD
ENDBRANCH  10  28
TORSDOF 7
ENDMDL
MODEL 5
REMARK VINA RESULT:      -7.0      1.680      3.214
REMARK  Name = 
REMARK  7 active torsions:
REMARK  status: ('A' for Active; 'I' for Inactive)
REMARK    1  A    between atoms: O_1  and  C_2
REMARK    2  A    between atoms: C_4  and  O_5
REMARK    3  A    between atoms: C_9  and  C_14
REMARK    4  A    between atoms: C_10  and  O_11
REMARK    5  A    between atoms: C_16  and  O_17
REMARK    6  A    between atoms: C_18  and  O_19
REMARK    7  A    between atoms: C_20  and  O_21
REMARK                            x       y       z     vdW  Elec       q    Type
REMARK                         _______ _______ _______ _____ _____    ______ ____
ROOT
ATOM      1  C   UNL     1       5.511  -6.372  27.006  0.00  0.00    +0.124 A 
ATOM      2  C   UNL     1       6.187  -5.278  26.473  0.00  0.00    +0.092 A 
ATOM      3  C   UNL     1       6.024  -4.946  25.123  0.00  0.00    +0.147 A 
ATOM      4  O   UNL     1       6.719  -3.851  24.669  0.00  0.00    -0.451 OA
ATOM      5  C   UNL     1       6.633  -3.498  23.325  0.00  0.00    +0.181 A 
ATOM      6  C   UNL     1       5.844  -4.149  22.442  0.00  0.00    +0.208 A 
ATOM      7  C   UNL     1       5.028  -5.308  22.908  0.00  0.00    +0.238 A 
ATOM      8  O   UNL     1       4.253  -5.856  22.143  0.00  0.00    -0.283 OA
ATOM      9  C   UNL     1       5.178  -5.706  24.317  0.00  0.00    +0.109 A 
ATOM     10  C   UNL     1       4.496  -6.806  24.873  0.00  0.00    +0.135 A 
ATOM     11  C   UNL     1       4.663  -7.142  26.219  0.00  0.00    +0.091 A 
ENDROOT
BRANCH   5  12
ATOM     12  C   UNL     1       7.482  -2.315  22.972  0.00  0.00    +0.028 A 
ATOM     13  C   UNL     1       8.843  -2.450  22.629  0.00  0.00    +0.061 A 
ATOM     14  C   UNL     1       9.596  -1.343  22.247  0.00  0.00    +0.163 A 
ATOM     15  C   UNL     1       9.037  -0.077  22.246  0.00  0.00    +0.201 A 
ATOM     16  C   UNL     1       7.713   0.091  22.628  0.00  0.00    +0.163 A 
ATOM     17  C   UNL     1       6.934  -1.013  22.985  0.00  0.00    +0.061 A 
BRANCH  14  18
ATOM     18  O   UNL     1      10.893  -1.517  21.860  0.00  0.00    -0.503 OA
ATOM     19  H   UNL     1      11.403  -1.544  22.695  0.00  0.00    +0.292 HD
ENDBRANCH  14  18
BRANCH  15  20
ATOM     20  O   UNL     1       9.804   0.992  21.873  0.00  0.00    -0.501 OA
ATOM     21  H   UNL     1      10.055   0.801  20.945  0.00  0.00    +0.292 HD
ENDBRANCH  15  20
BRANCH  16  22
ATOM     22  O   UNL     1       7.219   1.367  22.629  0.00  0.00    -0.503 OA
ATOM     23  H   UNL     1       6.253   1.324  22.510  0.00  0.00    +0.292 HD
ENDBRANCH  16  22
ENDBRANCH   5  12
BRANCH   1  24
ATOM     24  O   UNL     1       5.705  -6.663  28.324  0.00  0.00    -0.507 OA
ATOM     25  H   UNL     1       5.555  -7.612  28.474  0.00  0.00    +0.292 HD
ENDBRANCH   1  24
BRANCH   6  26
ATOM     26  O   UNL     1       5.693  -3.808  21.111  0.00  0.00    -0.501 OA
ATOM     27  H   UNL     1       6.500  -3.356  20.818  0.00  0.00    +0.292 HD
ENDBRANCH   6  26
BRANCH  10  28
ATOM     28  O   UNL     1       3.661  -7.570  24.110  0.00  0.00    -0.506 OA
ATOM     29  H   UNL     1       3.891  -8.509  24.164  0.00  0.00    +0.292 HD
ENDBRANCH  10  28
TORSDOF 7
ENDMDL
MODEL 6
REMARK VINA RESULT:      -7.0      2.654      7.456
REMARK  Name = 
REMARK  7 active torsions:
REMARK  status: ('A' for Active; 'I' for Inactive)
REMARK    1  A    between atoms: O_1  and  C_2
REMARK    2  A    between atoms: C_4  and  O_5
REMARK    3  A    between atoms: C_9  and  C_14
REMARK    4  A    between atoms: C_10  and  O_11
REMARK    5  A    between atoms: C_16  and  O_17
REMARK    6  A    between atoms: C_18  and  O_19
REMARK    7  A    between atoms: C_20  and  O_21
REMARK                            x       y       z     vdW  Elec       q    Type
REMARK                         _______ _______ _______ _____ _____    ______ ____
ROOT
ATOM      1  C   UNL     1       7.251   2.901  22.277  0.00  0.00    +0.124 A 
ATOM      2  C   UNL     1       6.797   1.586  22.339  0.00  0.00    +0.092 A 
ATOM      3  C   UNL     1       7.661   0.567  22.756  0.00  0.00    +0.147 A 
ATOM      4  O   UNL     1       7.141  -0.704  22.796  0.00  0.00    -0.451 OA
ATOM      5  C   UNL     1       7.964  -1.766  23.159  0.00  0.00    +0.181 A 
ATOM      6  C   UNL     1       9.252  -1.604  23.536  0.00  0.00    +0.208 A 
ATOM      7  C   UNL     1       9.838  -0.232  23.562  0.00  0.00    +0.238 A 
ATOM      8  O   UNL     1      10.972  -0.060  23.975  0.00  0.00    -0.283 OA
ATOM      9  C   UNL     1       8.973   0.872  23.117  0.00  0.00    +0.109 A 
ATOM     10  C   UNL     1       9.415   2.207  23.055  0.00  0.00    +0.135 A 
ATOM     11  C   UNL     1       8.555   3.225  22.634  0.00  0.00    +0.091 A 
ENDROOT
BRANCH   5  12
ATOM     12  C   UNL     1       7.270  -3.093  23.110  0.00  0.00    +0.028 A 
ATOM     13  C   UNL     1       6.922  -3.797  24.280  0.00  0.00    +0.061 A 
ATOM     14  C   UNL     1       6.225  -5.000  24.209  0.00  0.00    +0.163 A 
ATOM     15  C   UNL     1       5.905  -5.557  22.984  0.00  0.00    +0.201 A 
ATOM     16  C   UNL     1       6.281  -4.910  21.815  0.00  0.00    +0.163 A 
ATOM     17  C   UNL     1       6.954  -3.686  21.867  0.00  0.00    +0.061 A 
BRANCH  14  18
ATOM     18  O   UNL     1       5.846  -5.623  25.363  0.00  0.00    -0.503 OA
ATOM     19  H   UNL     1       6.532  -6.305  25.516  0.00  0.00    +0.292 HD
ENDBRANCH  14  18
BRANCH  15  20
ATOM     20  O   UNL     1       5.225  -6.743  22.947  0.00  0.00    -0.501 OA
ATOM     21  H   UNL     1       4.918  -6.821  22.020  0.00  0.00    +0.292 HD
ENDBRANCH  15  20
BRANCH  16  22
ATOM     22  O   UNL     1       5.957  -5.517  20.631  0.00  0.00    -0.503 OA
ATOM     23  H   UNL     1       5.121  -6.002  20.752  0.00  0.00    +0.292 HD
ENDBRANCH  16  22
ENDBRANCH   5  12
BRANCH   1  24
ATOM     24  O   UNL     1       6.377   3.860  21.859  0.00  0.00    -0.507 OA
ATOM     25  H   UNL     1       6.082   3.661  20.954  0.00  0.00    +0.292 HD
ENDBRANCH   1  24
BRANCH   6  26
ATOM     26  O   UNL     1      10.094  -2.621  23.947  0.00  0.00    -0.501 OA
ATOM     27  H   UNL     1      11.009  -2.346  23.778  0.00  0.00    +0.292 HD
ENDBRANCH   6  26
BRANCH  10  28
ATOM     28  O   UNL     1      10.693   2.538  23.402  0.00  0.00    -0.506 OA
ATOM     29  H   UNL     1      11.107   3.106  22.734  0.00  0.00    +0.292 HD
ENDBRANCH  10  28
TORSDOF 7
ENDMDL
MODEL 7
REMARK VINA RESULT:      -7.0      3.048      4.379
REMARK  Name = 
REMARK  7 active torsions:
REMARK  status: ('A' for Active; 'I' for Inactive)
REMARK    1  A    between atoms: O_1  and  C_2
REMARK    2  A    between atoms: C_4  and  O_5
REMARK    3  A    between atoms: C_9  and  C_14
REMARK    4  A    between atoms: C_10  and  O_11
REMARK    5  A    between atoms: C_16  and  O_17
REMARK    6  A    between atoms: C_18  and  O_19
REMARK    7  A    between atoms: C_20  and  O_21
REMARK                            x       y       z     vdW  Elec       q    Type
REMARK                         _______ _______ _______ _____ _____    ______ ____
ROOT
ATOM      1  C   UNL     1       5.405  -4.451  22.876  0.00  0.00    +0.124 A 
ATOM      2  C   UNL     1       5.564  -3.075  22.732  0.00  0.00    +0.092 A 
ATOM      3  C   UNL     1       6.801  -2.482  23.008  0.00  0.00    +0.147 A 
ATOM      4  O   UNL     1       6.883  -1.121  22.840  0.00  0.00    -0.451 OA
ATOM      5  C   UNL     1       8.075  -0.467  23.142  0.00  0.00    +0.181 A 
ATOM      6  C   UNL     1       9.190  -1.117  23.543  0.00  0.00    +0.208 A 
ATOM      7  C   UNL     1       9.159  -2.602  23.682  0.00  0.00    +0.238 A 
ATOM      8  O   UNL     1      10.177  -3.210  23.965  0.00  0.00    -0.283 OA
ATOM      9  C   UNL     1       7.876  -3.271  23.418  0.00  0.00    +0.109 A 
ATOM     10  C   UNL     1       7.700  -4.662  23.552  0.00  0.00    +0.135 A 
ATOM     11  C   UNL     1       6.464  -5.255  23.283  0.00  0.00    +0.091 A 
ENDROOT
BRANCH   5  12
ATOM     12  C   UNL     1       7.996   1.017  22.955  0.00  0.00    +0.028 A 
ATOM     13  C   UNL     1       9.082   1.865  23.250  0.00  0.00    +0.061 A 
ATOM     14  C   UNL     1       9.005   3.235  23.012  0.00  0.00    +0.163 A 
ATOM     15  C   UNL     1       7.838   3.800  22.529  0.00  0.00    +0.201 A 
ATOM     16  C   UNL     1       6.736   2.995  22.277  0.00  0.00    +0.163 A 
ATOM     17  C   UNL     1       6.806   1.614  22.481  0.00  0.00    +0.061 A 
BRANCH  14  18
ATOM     18  O   UNL     1      10.097   4.018  23.249  0.00  0.00    -0.503 OA
ATOM     19  H   UNL     1      10.003   4.772  22.632  0.00  0.00    +0.292 HD
ENDBRANCH  14  18
BRANCH  15  20
ATOM     20  O   UNL     1       7.790   5.150  22.312  0.00  0.00    -0.501 OA
ATOM     21  H   UNL     1       8.496   5.515  22.885  0.00  0.00    +0.292 HD
ENDBRANCH  15  20
BRANCH  16  22
ATOM     22  O   UNL     1       5.602   3.611  21.820  0.00  0.00    -0.503 OA
ATOM     23  H   UNL     1       5.678   4.566  21.995  0.00  0.00    +0.292 HD
ENDBRANCH  16  22
ENDBRANCH   5  12
BRANCH   1  24
ATOM     24  O   UNL     1       4.181  -4.985  22.604  0.00  0.00    -0.507 OA
ATOM     25  H   UNL     1       3.485  -4.379  22.910  0.00  0.00    +0.292 HD
ENDBRANCH   1  24
BRANCH   6  26
ATOM     26  O   UNL     1      10.406  -0.517  23.811  0.00  0.00    -0.501 OA
ATOM     27  H   UNL     1      10.481  -0.395  24.771  0.00  0.00    +0.292 HD
ENDBRANCH   6  26
BRANCH  10  28
ATOM     28  O   UNL     1       8.733  -5.461  23.951  0.00  0.00    -0.506 OA
ATOM     29  H   UNL     1       9.590  -5.034  23.804  0.00  0.00    +0.292 HD
ENDBRANCH  10  28
TORSDOF 7
ENDMDL
MODEL 8
REMARK VINA RESULT:      -6.9      2.822      7.841
REMARK  Name = 
REMARK  7 active torsions:
REMARK  status: ('A' for Active; 'I' for Inactive)
REMARK    1  A    between atoms: O_1  and  C_2
REMARK    2  A    between atoms: C_4  and  O_5
REMARK    3  A    between atoms: C_9  and  C_14
REMARK    4  A    between atoms: C_10  and  O_11
REMARK    5  A    between atoms: C_16  and  O_17
REMARK    6  A    between atoms: C_18  and  O_19
REMARK    7  A    between atoms: C_20  and  O_21
REMARK                            x       y       z     vdW  Elec       q    Type
REMARK                         _______ _______ _______ _____ _____    ______ ____
ROOT
ATOM      1  C   UNL     1       7.805   3.472  25.800  0.00  0.00    +0.124 A 
ATOM      2  C   UNL     1       7.529   2.127  25.570  0.00  0.00    +0.092 A 
ATOM      3  C   UNL     1       8.115   1.469  24.483  0.00  0.00    +0.147 A 
ATOM      4  O   UNL     1       7.799   0.142  24.322  0.00  0.00    -0.451 OA
ATOM      5  C   UNL     1       8.315  -0.555  23.233  0.00  0.00    +0.181 A 
ATOM      6  C   UNL     1       9.171  -0.002  22.344  0.00  0.00    +0.208 A 
ATOM      7  C   UNL     1       9.585   1.420  22.516  0.00  0.00    +0.238 A 
ATOM      8  O   UNL     1      10.416   1.909  21.770  0.00  0.00    -0.283 OA
ATOM      9  C   UNL     1       8.983   2.160  23.637  0.00  0.00    +0.109 A 
ATOM     10  C   UNL     1       9.257   3.518  23.887  0.00  0.00    +0.135 A 
ATOM     11  C   UNL     1       8.668   4.177  24.969  0.00  0.00    +0.091 A 
ENDROOT
BRANCH   5  12
ATOM     12  C   UNL     1       7.844  -1.975  23.165  0.00  0.00    +0.028 A 
ATOM     13  C   UNL     1       6.640  -2.332  22.524  0.00  0.00    +0.061 A 
ATOM     14  C   UNL     1       6.252  -3.666  22.424  0.00  0.00    +0.163 A 
ATOM     15  C   UNL     1       7.017  -4.666  22.997  0.00  0.00    +0.201 A 
ATOM     16  C   UNL     1       8.181  -4.338  23.677  0.00  0.00    +0.163 A 
ATOM     17  C   UNL     1       8.601  -3.008  23.762  0.00  0.00    +0.061 A 
BRANCH  14  18
ATOM     18  O   UNL     1       5.113  -3.982  21.741  0.00  0.00    -0.503 OA
ATOM     19  H   UNL     1       5.208  -4.930  21.521  0.00  0.00    +0.292 HD
ENDBRANCH  14  18
BRANCH  15  20
ATOM     20  O   UNL     1       6.607  -5.966  22.886  0.00  0.00    -0.501 OA
ATOM     21  H   UNL     1       6.083  -5.989  22.059  0.00  0.00    +0.292 HD
ENDBRANCH  15  20
BRANCH  16  22
ATOM     22  O   UNL     1       8.887  -5.366  24.242  0.00  0.00    -0.503 OA
ATOM     23  H   UNL     1       8.254  -6.027  24.577  0.00  0.00    +0.292 HD
ENDBRANCH  16  22
ENDBRANCH   5  12
BRANCH   1  24
ATOM     24  O   UNL     1       7.207   4.074  26.867  0.00  0.00    -0.507 OA
ATOM     25  H   UNL     1       6.726   3.410  27.390  0.00  0.00    +0.292 HD
ENDBRANCH   1  24
BRANCH   6  26
ATOM     26  O   UNL     1       9.743  -0.666  21.274  0.00  0.00    -0.501 OA
ATOM     27  H   UNL     1       9.303  -1.526  21.179  0.00  0.00    +0.292 HD
ENDBRANCH   6  26
BRANCH  10  28
ATOM     28  O   UNL     1      10.102   4.222  23.078  0.00  0.00    -0.506 OA
ATOM     29  H   UNL     1      10.811   4.644  23.586  0.00  0.00    +0.292 HD
ENDBRANCH  10  28
TORSDOF 7
ENDMDL
MODEL 9
REMARK VINA RESULT:      -6.9      2.539      4.456
REMARK  Name = 
REMARK  7 active torsions:
REMARK  status: ('A' for Active; 'I' for Inactive)
REMARK    1  A    between atoms: O_1  and  C_2
REMARK    2  A    between atoms: C_4  and  O_5
REMARK    3  A    between atoms: C_9  and  C_14
REMARK    4  A    between atoms: C_10  and  O_11
REMARK    5  A    between atoms: C_16  and  O_17
REMARK    6  A    between atoms: C_18  and  O_19
REMARK    7  A    between atoms: C_20  and  O_21
REMARK                            x       y       z     vdW  Elec       q    Type
REMARK                         _______ _______ _______ _____ _____    ______ ____
ROOT
ATOM      1  C   UNL     1       8.733  -5.044  25.383  0.00  0.00    +0.124 A 
ATOM      2  C   UNL     1       9.100  -3.729  25.110  0.00  0.00    +0.092 A 
ATOM      3  C   UNL     1       8.114  -2.749  24.947  0.00  0.00    +0.147 A 
ATOM      4  O   UNL     1       8.552  -1.473  24.683  0.00  0.00    -0.451 OA
ATOM      5  C   UNL     1       7.619  -0.463  24.467  0.00  0.00    +0.181 A 
ATOM      6  C   UNL     1       6.285  -0.661  24.561  0.00  0.00    +0.208 A 
ATOM      7  C   UNL     1       5.770  -2.019  24.903  0.00  0.00    +0.238 A 
ATOM      8  O   UNL     1       4.575  -2.195  25.069  0.00  0.00    -0.283 OA
ATOM      9  C   UNL     1       6.767  -3.089  25.068  0.00  0.00    +0.109 A 
ATOM     10  C   UNL     1       6.413  -4.422  25.352  0.00  0.00    +0.135 A 
ATOM     11  C   UNL     1       7.395  -5.403  25.508  0.00  0.00    +0.091 A 
ENDROOT
BRANCH   5  12
ATOM     12  C   UNL     1       8.246   0.858  24.144  0.00  0.00    +0.028 A 
ATOM     13  C   UNL     1       8.067   1.990  24.967  0.00  0.00    +0.061 A 
ATOM     14  C   UNL     1       8.708   3.191  24.677  0.00  0.00    +0.163 A 
ATOM     15  C   UNL     1       9.494   3.315  23.545  0.00  0.00    +0.201 A 
ATOM     16  C   UNL     1       9.646   2.232  22.691  0.00  0.00    +0.163 A 
ATOM     17  C   UNL     1       9.035   1.009  22.982  0.00  0.00    +0.061 A 
BRANCH  14  18
ATOM     18  O   UNL     1       8.565   4.248  25.529  0.00  0.00    -0.503 OA
ATOM     19  H   UNL     1       7.811   4.007  26.104  0.00  0.00    +0.292 HD
ENDBRANCH  14  18
BRANCH  15  20
ATOM     20  O   UNL     1      10.105   4.511  23.284  0.00  0.00    -0.501 OA
ATOM     21  H   UNL     1       9.675   5.144  23.895  0.00  0.00    +0.292 HD
ENDBRANCH  15  20
BRANCH  16  22
ATOM     22  O   UNL     1      10.417   2.418  21.575  0.00  0.00    -0.503 OA
ATOM     23  H   UNL     1       9.828   2.588  20.819  0.00  0.00    +0.292 HD
ENDBRANCH  16  22
ENDBRANCH   5  12
BRANCH   1  24
ATOM     24  O   UNL     1       9.725  -5.968  25.527  0.00  0.00    -0.507 OA
ATOM     25  H   UNL     1      10.111  -5.897  26.416  0.00  0.00    +0.292 HD
ENDBRANCH   1  24
BRANCH   6  26
ATOM     26  O   UNL     1       5.323   0.319  24.398  0.00  0.00    -0.501 OA
ATOM     27  H   UNL     1       5.533   0.822  23.595  0.00  0.00    +0.292 HD
ENDBRANCH   6  26
BRANCH  10  28
ATOM     28  O   UNL     1       5.103  -4.786  25.476  0.00  0.00    -0.506 OA
ATOM     29  H   UNL     1       5.005  -5.749  25.517  0.00  0.00    +0.292 HD
ENDBRANCH  10  28
TORSDOF 7
ENDMDL
