MODEL 1
REMARK VINA RESULT:      -5.8      0.000      0.000
REMARK  Name = 
REMARK  6 active torsions:
REMARK  status: ('A' for Active; 'I' for Inactive)
REMARK    1  A    between atoms: O_1  and  C_2
REMARK    2  A    between atoms: C_2  and  C_3
REMARK    3  A    between atoms: C_3  and  C_4
REMARK    4  A    between atoms: C_4  and  O_5
REMARK    5  A    between atoms: O_5  and  C_6
REMARK    6  A    between atoms: C_9  and  N_12
REMARK                            x       y       z     vdW  Elec       q    Type
REMARK                         _______ _______ _______ _____ _____    ______ ____
ROOT
ATOM      1  C   UNL     1      10.202   2.055  23.216  0.00  0.00    +0.121 A 
ATOM      2  C   UNL     1      10.288   1.293  24.386  0.00  0.00    +0.052 A 
ATOM      3  C   UNL     1      10.081  -0.093  24.350  0.00  0.00    +0.088 A 
ATOM      4  C   UNL     1       9.788  -0.715  23.130  0.00  0.00    +0.273 A 
ATOM      5  C   UNL     1       9.712   0.034  21.954  0.00  0.00    +0.088 A 
ATOM      6  C   UNL     1       9.919   1.413  22.003  0.00  0.00    +0.052 A 
ENDROOT
BRANCH   4   7
ATOM      7  N   UNL     1       9.552  -2.161  23.070  0.00  0.00    +0.080 N 
ATOM      8  O   UNL     1       8.645  -2.568  22.330  0.00  0.00    +0.041 OA
ATOM      9  O   UNL     1      10.276  -2.894  23.759  0.00  0.00    -0.576 OA
ENDBRANCH   4   7
BRANCH   1  10
ATOM     10  O   UNL     1      10.403   3.408  23.357  0.00  0.00    -0.492 OA
BRANCH  10  11
ATOM     11  C   UNL     1      11.781   3.789  23.428  0.00  0.00    +0.231 C 
BRANCH  11  12
ATOM     12  C   UNL     1      11.964   5.294  23.283  0.00  0.00    +0.069 C 
BRANCH  12  13
ATOM     13  C   UNL     1      13.214   5.583  22.459  0.00  0.00    +0.159 C 
BRANCH  13  14
ATOM     14  O   UNL     1      14.361   5.084  23.135  0.00  0.00    -0.395 OA
ATOM     15  H   UNL     1      15.062   4.959  22.471  0.00  0.00    +0.209 HD
ENDBRANCH  13  14
ENDBRANCH  12  13
ENDBRANCH  11  12
ENDBRANCH  10  11
ENDBRANCH   1  10
TORSDOF 6
ENDMDL
MODEL 2
REMARK VINA RESULT:      -5.3      2.491      6.486
REMARK  Name = 
REMARK  6 active torsions:
REMARK  status: ('A' for Active; 'I' for Inactive)
REMARK    1  A    between atoms: O_1  and  C_2
REMARK    2  A    between atoms: C_2  and  C_3
REMARK    3  A    between atoms: C_3  and  C_4
REMARK    4  A    between atoms: C_4  and  O_5
REMARK    5  A    between atoms: O_5  and  C_6
REMARK    6  A    between atoms: C_9  and  N_12
REMARK                            x       y       z     vdW  Elec       q    Type
REMARK                         _______ _______ _______ _____ _____    ______ ____
ROOT
ATOM      1  C   UNL     1      10.096  -0.710  22.920  0.00  0.00    +0.121 A 
ATOM      2  C   UNL     1      10.500  -0.206  24.160  0.00  0.00    +0.052 A 
ATOM      3  C   UNL     1      10.646   1.175  24.355  0.00  0.00    +0.088 A 
ATOM      4  C   UNL     1      10.381   2.052  23.295  0.00  0.00    +0.273 A 
ATOM      5  C   UNL     1       9.966   1.560  22.056  0.00  0.00    +0.088 A 
ATOM      6  C   UNL     1       9.826   0.183  21.875  0.00  0.00    +0.052 A 
ENDROOT
BRANCH   4   7
ATOM      7  N   UNL     1      10.541   3.499  23.470  0.00  0.00    +0.080 N 
ATOM      8  O   UNL     1      11.683   3.970  23.362  0.00  0.00    +0.041 OA
ATOM      9  O   UNL     1       9.527   4.168  23.711  0.00  0.00    -0.576 OA
ENDBRANCH   4   7
BRANCH   1  10
ATOM     10  O   UNL     1      10.001  -2.079  22.824  0.00  0.00    -0.492 OA
BRANCH  10  11
ATOM     11  C   UNL     1       9.800  -2.739  24.078  0.00  0.00    +0.231 C 
BRANCH  11  12
ATOM     12  C   UNL     1       8.590  -3.663  24.047  0.00  0.00    +0.069 C 
BRANCH  12  13
ATOM     13  C   UNL     1       8.900  -4.940  24.821  0.00  0.00    +0.159 C 
BRANCH  13  14
ATOM     14  O   UNL     1      10.308  -5.113  24.921  0.00  0.00    -0.395 OA
ATOM     15  H   UNL     1      10.469  -5.879  25.499  0.00  0.00    +0.209 HD
ENDBRANCH  13  14
ENDBRANCH  12  13
ENDBRANCH  11  12
ENDBRANCH  10  11
ENDBRANCH   1  10
TORSDOF 6
ENDMDL
MODEL 3
REMARK VINA RESULT:      -5.2      2.740      6.722
REMARK  Name = 
REMARK  6 active torsions:
REMARK  status: ('A' for Active; 'I' for Inactive)
REMARK    1  A    between atoms: O_1  and  C_2
REMARK    2  A    between atoms: C_2  and  C_3
REMARK    3  A    between atoms: C_3  and  C_4
REMARK    4  A    between atoms: C_4  and  O_5
REMARK    5  A    between atoms: O_5  and  C_6
REMARK    6  A    between atoms: C_9  and  N_12
REMARK                            x       y       z     vdW  Elec       q    Type
REMARK                         _______ _______ _______ _____ _____    ______ ____
ROOT
ATOM      1  C   UNL     1       9.886  -1.574  23.601  0.00  0.00    +0.121 A 
ATOM      2  C   UNL     1       9.949  -0.966  22.343  0.00  0.00    +0.052 A 
ATOM      3  C   UNL     1      10.034   0.429  22.230  0.00  0.00    +0.088 A 
ATOM      4  C   UNL     1      10.057   1.214  23.390  0.00  0.00    +0.273 A 
ATOM      5  C   UNL     1      10.005   0.616  24.651  0.00  0.00    +0.088 A 
ATOM      6  C   UNL     1       9.920  -0.773  24.749  0.00  0.00    +0.052 A 
ENDROOT
BRANCH   4   7
ATOM      7  N   UNL     1      10.129   2.676  23.298  0.00  0.00    +0.080 N 
ATOM      8  O   UNL     1       9.077   3.293  23.072  0.00  0.00    +0.041 OA
ATOM      9  O   UNL     1      11.236   3.211  23.453  0.00  0.00    -0.576 OA
ENDBRANCH   4   7
BRANCH   1  10
ATOM     10  O   UNL     1       9.786  -2.947  23.606  0.00  0.00    -0.492 OA
BRANCH  10  11
ATOM     11  C   UNL     1       8.441  -3.432  23.685  0.00  0.00    +0.231 C 
BRANCH  11  12
ATOM     12  C   UNL     1       8.381  -4.851  24.236  0.00  0.00    +0.069 C 
BRANCH  12  13
ATOM     13  C   UNL     1       9.233  -4.950  25.496  0.00  0.00    +0.159 C 
BRANCH  13  14
ATOM     14  O   UNL     1      10.559  -5.334  25.151  0.00  0.00    -0.395 OA
ATOM     15  H   UNL     1      10.902  -4.673  24.525  0.00  0.00    +0.209 HD
ENDBRANCH  13  14
ENDBRANCH  12  13
ENDBRANCH  11  12
ENDBRANCH  10  11
ENDBRANCH   1  10
TORSDOF 6
ENDMDL
MODEL 4
REMARK VINA RESULT:      -5.1      2.475      6.232
REMARK  Name = 
REMARK  6 active torsions:
REMARK  status: ('A' for Active; 'I' for Inactive)
REMARK    1  A    between atoms: O_1  and  C_2
REMARK    2  A    between atoms: C_2  and  C_3
REMARK    3  A    between atoms: C_3  and  C_4
REMARK    4  A    between atoms: C_4  and  O_5
REMARK    5  A    between atoms: O_5  and  C_6
REMARK    6  A    between atoms: C_9  and  N_12
REMARK                            x       y       z     vdW  Elec       q    Type
REMARK                         _______ _______ _______ _____ _____    ______ ____
ROOT
ATOM      1  C   UNL     1       9.994  -0.534  22.785  0.00  0.00    +0.121 A 
ATOM      2  C   UNL     1      10.437  -0.110  24.043  0.00  0.00    +0.052 A 
ATOM      3  C   UNL     1      10.658   1.250  24.299  0.00  0.00    +0.088 A 
ATOM      4  C   UNL     1      10.430   2.189  23.284  0.00  0.00    +0.273 A 
ATOM      5  C   UNL     1       9.977   1.778  22.030  0.00  0.00    +0.088 A 
ATOM      6  C   UNL     1       9.762   0.421  21.787  0.00  0.00    +0.052 A 
ENDROOT
BRANCH   4   7
ATOM      7  N   UNL     1      10.669   3.615  23.524  0.00  0.00    +0.080 N 
ATOM      8  O   UNL     1       9.715   4.303  23.916  0.00  0.00    +0.041 OA
ATOM      9  O   UNL     1      11.812   4.051  23.325  0.00  0.00    -0.576 OA
ENDBRANCH   4   7
BRANCH   1  10
ATOM     10  O   UNL     1       9.825  -1.890  22.627  0.00  0.00    -0.492 OA
BRANCH  10  11
ATOM     11  C   UNL     1       9.741  -2.614  23.859  0.00  0.00    +0.231 C 
BRANCH  11  12
ATOM     12  C   UNL     1       8.482  -3.469  23.931  0.00  0.00    +0.069 C 
BRANCH  12  13
ATOM     13  C   UNL     1       7.714  -3.364  22.619  0.00  0.00    +0.159 C 
BRANCH  13  14
ATOM     14  O   UNL     1       6.890  -2.204  22.635  0.00  0.00    -0.395 OA
ATOM     15  H   UNL     1       6.195  -2.347  23.301  0.00  0.00    +0.209 HD
ENDBRANCH  13  14
ENDBRANCH  12  13
ENDBRANCH  11  12
ENDBRANCH  10  11
ENDBRANCH   1  10
TORSDOF 6
ENDMDL
MODEL 5
REMARK VINA RESULT:      -5.1      1.822      2.810
REMARK  Name = 
REMARK  6 active torsions:
REMARK  status: ('A' for Active; 'I' for Inactive)
REMARK    1  A    between atoms: O_1  and  C_2
REMARK    2  A    between atoms: C_2  and  C_3
REMARK    3  A    between atoms: C_3  and  C_4
REMARK    4  A    between atoms: C_4  and  O_5
REMARK    5  A    between atoms: O_5  and  C_6
REMARK    6  A    between atoms: C_9  and  N_12
REMARK                            x       y       z     vdW  Elec       q    Type
REMARK                         _______ _______ _______ _____ _____    ______ ____
ROOT
ATOM      1  C   UNL     1      10.296   2.359  23.341  0.00  0.00    +0.121 A 
ATOM      2  C   UNL     1       9.953   1.909  22.062  0.00  0.00    +0.052 A 
ATOM      3  C   UNL     1       9.754   0.543  21.818  0.00  0.00    +0.088 A 
ATOM      4  C   UNL     1       9.898  -0.374  22.867  0.00  0.00    +0.273 A 
ATOM      5  C   UNL     1      10.229   0.067  24.150  0.00  0.00    +0.088 A 
ATOM      6  C   UNL     1      10.425   1.428  24.380  0.00  0.00    +0.052 A 
ENDROOT
BRANCH   4   7
ATOM      7  N   UNL     1       9.710  -1.808  22.632  0.00  0.00    +0.080 N 
ATOM      8  O   UNL     1      10.549  -2.587  23.110  0.00  0.00    +0.041 OA
ATOM      9  O   UNL     1       8.722  -2.162  21.974  0.00  0.00    -0.576 OA
ENDBRANCH   4   7
BRANCH   1  10
ATOM     10  O   UNL     1      10.488   3.715  23.476  0.00  0.00    -0.492 OA
BRANCH  10  11
ATOM     11  C   UNL     1       9.444   4.383  24.191  0.00  0.00    +0.231 C 
BRANCH  11  12
ATOM     12  C   UNL     1       9.551   5.898  24.069  0.00  0.00    +0.069 C 
BRANCH  12  13
ATOM     13  C   UNL     1       8.595   6.396  22.991  0.00  0.00    +0.159 C 
BRANCH  13  14
ATOM     14  O   UNL     1       8.096   5.294  22.244  0.00  0.00    -0.395 OA
ATOM     15  H   UNL     1       8.680   4.535  22.415  0.00  0.00    +0.209 HD
ENDBRANCH  13  14
ENDBRANCH  12  13
ENDBRANCH  11  12
ENDBRANCH  10  11
ENDBRANCH   1  10
TORSDOF 6
ENDMDL
MODEL 6
REMARK VINA RESULT:      -4.9      2.803      3.896
REMARK  Name = 
REMARK  6 active torsions:
REMARK  status: ('A' for Active; 'I' for Inactive)
REMARK    1  A    between atoms: O_1  and  C_2
REMARK    2  A    between atoms: C_2  and  C_3
REMARK    3  A    between atoms: C_3  and  C_4
REMARK    4  A    between atoms: C_4  and  O_5
REMARK    5  A    between atoms: O_5  and  C_6
REMARK    6  A    between atoms: C_9  and  N_12
REMARK                            x       y       z     vdW  Elec       q    Type
REMARK                         _______ _______ _______ _____ _____    ______ ____
ROOT
ATOM      1  C   UNL     1       9.390  -0.591  25.015  0.00  0.00    +0.121 A 
ATOM      2  C   UNL     1       9.910  -1.286  23.918  0.00  0.00    +0.052 A 
ATOM      3  C   UNL     1       9.738  -2.673  23.807  0.00  0.00    +0.088 A 
ATOM      4  C   UNL     1       9.036  -3.363  24.805  0.00  0.00    +0.273 A 
ATOM      5  C   UNL     1       8.504  -2.677  25.898  0.00  0.00    +0.088 A 
ATOM      6  C   UNL     1       8.683  -1.297  25.997  0.00  0.00    +0.052 A 
ENDROOT
BRANCH   4   7
ATOM      7  N   UNL     1       8.857  -4.815  24.718  0.00  0.00    +0.080 N 
ATOM      8  O   UNL     1       9.132  -5.492  25.720  0.00  0.00    +0.041 OA
ATOM      9  O   UNL     1       8.436  -5.283  23.651  0.00  0.00    -0.576 OA
ENDBRANCH   4   7
BRANCH   1  10
ATOM     10  O   UNL     1       9.628   0.764  25.042  0.00  0.00    -0.492 OA
BRANCH  10  11
ATOM     11  C   UNL     1      10.792   1.165  24.312  0.00  0.00    +0.231 C 
BRANCH  11  12
ATOM     12  C   UNL     1      10.577   2.485  23.582  0.00  0.00    +0.069 C 
BRANCH  12  13
ATOM     13  C   UNL     1       9.337   2.388  22.700  0.00  0.00    +0.159 C 
BRANCH  13  14
ATOM     14  O   UNL     1       9.714   2.029  21.377  0.00  0.00    -0.395 OA
ATOM     15  H   UNL     1      10.465   1.413  21.443  0.00  0.00    +0.209 HD
ENDBRANCH  13  14
ENDBRANCH  12  13
ENDBRANCH  11  12
ENDBRANCH  10  11
ENDBRANCH   1  10
TORSDOF 6
ENDMDL
MODEL 7
REMARK VINA RESULT:      -4.9      2.932      4.283
REMARK  Name = 
REMARK  6 active torsions:
REMARK  status: ('A' for Active; 'I' for Inactive)
REMARK    1  A    between atoms: O_1  and  C_2
REMARK    2  A    between atoms: C_2  and  C_3
REMARK    3  A    between atoms: C_3  and  C_4
REMARK    4  A    between atoms: C_4  and  O_5
REMARK    5  A    between atoms: O_5  and  C_6
REMARK    6  A    between atoms: C_9  and  N_12
REMARK                            x       y       z     vdW  Elec       q    Type
REMARK                         _______ _______ _______ _____ _____    ______ ____
ROOT
ATOM      1  C   UNL     1       9.463  -1.795  22.584  0.00  0.00    +0.121 A 
ATOM      2  C   UNL     1      10.056  -2.363  23.716  0.00  0.00    +0.052 A 
ATOM      3  C   UNL     1       9.412  -3.393  24.416  0.00  0.00    +0.088 A 
ATOM      4  C   UNL     1       8.166  -3.854  23.972  0.00  0.00    +0.273 A 
ATOM      5  C   UNL     1       7.571  -3.301  22.837  0.00  0.00    +0.088 A 
ATOM      6  C   UNL     1       8.222  -2.276  22.150  0.00  0.00    +0.052 A 
ENDROOT
BRANCH   4   7
ATOM      7  N   UNL     1       7.466  -4.919  24.697  0.00  0.00    +0.080 N 
ATOM      8  O   UNL     1       8.005  -5.374  25.716  0.00  0.00    +0.041 OA
ATOM      9  O   UNL     1       6.374  -5.301  24.252  0.00  0.00    -0.576 OA
ENDBRANCH   4   7
BRANCH   1  10
ATOM     10  O   UNL     1      10.165  -0.778  21.978  0.00  0.00    -0.492 OA
BRANCH  10  11
ATOM     11  C   UNL     1       9.362   0.353  21.624  0.00  0.00    +0.231 C 
BRANCH  11  12
ATOM     12  C   UNL     1      10.002   1.663  22.063  0.00  0.00    +0.069 C 
BRANCH  12  13
ATOM     13  C   UNL     1       9.926   1.789  23.581  0.00  0.00    +0.159 C 
BRANCH  13  14
ATOM     14  O   UNL     1      10.992   1.060  24.177  0.00  0.00    -0.395 OA
ATOM     15  H   UNL     1      10.800   0.985  25.128  0.00  0.00    +0.209 HD
ENDBRANCH  13  14
ENDBRANCH  12  13
ENDBRANCH  11  12
ENDBRANCH  10  11
ENDBRANCH   1  10
TORSDOF 6
ENDMDL
MODEL 8
REMARK VINA RESULT:      -4.8      3.170      4.819
REMARK  Name = 
REMARK  6 active torsions:
REMARK  status: ('A' for Active; 'I' for Inactive)
REMARK    1  A    between atoms: O_1  and  C_2
REMARK    2  A    between atoms: C_2  and  C_3
REMARK    3  A    between atoms: C_3  and  C_4
REMARK    4  A    between atoms: C_4  and  O_5
REMARK    5  A    between atoms: O_5  and  C_6
REMARK    6  A    between atoms: C_9  and  N_12
REMARK                            x       y       z     vdW  Elec       q    Type
REMARK                         _______ _______ _______ _____ _____    ______ ____
ROOT
ATOM      1  C   UNL     1       9.059  -2.428  23.459  0.00  0.00    +0.121 A 
ATOM      2  C   UNL     1       8.956  -3.638  24.153  0.00  0.00    +0.052 A 
ATOM      3  C   UNL     1       7.958  -4.565  23.824  0.00  0.00    +0.088 A 
ATOM      4  C   UNL     1       7.060  -4.273  22.788  0.00  0.00    +0.273 A 
ATOM      5  C   UNL     1       7.161  -3.073  22.082  0.00  0.00    +0.088 A 
ATOM      6  C   UNL     1       8.159  -2.158  22.420  0.00  0.00    +0.052 A 
ENDROOT
BRANCH   4   7
ATOM      7  N   UNL     1       5.998  -5.220  22.436  0.00  0.00    +0.080 N 
ATOM      8  O   UNL     1       4.840  -4.784  22.351  0.00  0.00    +0.041 OA
ATOM      9  O   UNL     1       6.318  -6.401  22.240  0.00  0.00    -0.576 OA
ENDBRANCH   4   7
BRANCH   1  10
ATOM     10  O   UNL     1      10.060  -1.577  23.869  0.00  0.00    -0.492 OA
BRANCH  10  11
ATOM     11  C   UNL     1       9.598  -0.276  24.248  0.00  0.00    +0.231 C 
BRANCH  11  12
ATOM     12  C   UNL     1      10.397   0.830  23.571  0.00  0.00    +0.069 C 
BRANCH  12  13
ATOM     13  C   UNL     1       9.919   1.003  22.133  0.00  0.00    +0.159 C 
BRANCH  13  14
ATOM     14  O   UNL     1      10.271   2.298  21.662  0.00  0.00    -0.395 OA
ATOM     15  H   UNL     1      11.242   2.338  21.615  0.00  0.00    +0.209 HD
ENDBRANCH  13  14
ENDBRANCH  12  13
ENDBRANCH  11  12
ENDBRANCH  10  11
ENDBRANCH   1  10
TORSDOF 6
ENDMDL
MODEL 9
REMARK VINA RESULT:      -4.7      5.116      7.391
REMARK  Name = 
REMARK  6 active torsions:
REMARK  status: ('A' for Active; 'I' for Inactive)
REMARK    1  A    between atoms: O_1  and  C_2
REMARK    2  A    between atoms: C_2  and  C_3
REMARK    3  A    between atoms: C_3  and  C_4
REMARK    4  A    between atoms: C_4  and  O_5
REMARK    5  A    between atoms: O_5  and  C_6
REMARK    6  A    between atoms: C_9  and  N_12
REMARK                            x       y       z     vdW  Elec       q    Type
REMARK                         _______ _______ _______ _____ _____    ______ ____
ROOT
ATOM      1  C   UNL     1       7.922  -4.844  23.882  0.00  0.00    +0.121 A 
ATOM      2  C   UNL     1       7.128  -4.980  25.025  0.00  0.00    +0.052 A 
ATOM      3  C   UNL     1       5.839  -5.522  24.937  0.00  0.00    +0.088 A 
ATOM      4  C   UNL     1       5.347  -5.932  23.690  0.00  0.00    +0.273 A 
ATOM      5  C   UNL     1       6.136  -5.811  22.545  0.00  0.00    +0.088 A 
ATOM      6  C   UNL     1       7.417  -5.269  22.646  0.00  0.00    +0.052 A 
ENDROOT
BRANCH   4   7
ATOM      7  N   UNL     1       3.996  -6.487  23.570  0.00  0.00    +0.080 N 
ATOM      8  O   UNL     1       3.725  -7.497  24.237  0.00  0.00    +0.041 OA
ATOM      9  O   UNL     1       3.200  -5.913  22.814  0.00  0.00    -0.576 OA
ENDBRANCH   4   7
BRANCH   1  10
ATOM     10  O   UNL     1       9.165  -4.284  24.069  0.00  0.00    -0.492 OA
BRANCH  10  11
ATOM     11  C   UNL     1       9.134  -2.991  24.683  0.00  0.00    +0.231 C 
BRANCH  11  12
ATOM     12  C   UNL     1       8.919  -1.882  23.661  0.00  0.00    +0.069 C 
BRANCH  12  13
ATOM     13  C   UNL     1      10.206  -1.650  22.876  0.00  0.00    +0.159 C 
BRANCH  13  14
ATOM     14  O   UNL     1       9.926  -1.656  21.482  0.00  0.00    -0.395 OA
ATOM     15  H   UNL     1       8.971  -1.506  21.373  0.00  0.00    +0.209 HD
ENDBRANCH  13  14
ENDBRANCH  12  13
ENDBRANCH  11  12
ENDBRANCH  10  11
ENDBRANCH   1  10
TORSDOF 6
ENDMDL
