MODEL 1
REMARK VINA RESULT:      -6.9      0.000      0.000
REMARK  Name = 
REMARK  16 active torsions:
REMARK  status: ('A' for Active; 'I' for Inactive)
REMARK    1  A    between atoms: C_1  and  N_2
REMARK    2  A    between atoms: N_2  and  C_3
REMARK    3  A    between atoms: N_2  and  C_4
REMARK    4  A    between atoms: N_2  and  C_5
REMARK    5  A    between atoms: C_5  and  C_6
REMARK    6  A    between atoms: C_6  and  O_7
REMARK    7  A    between atoms: O_7  and  P_8
REMARK    8  A    between atoms: P_8  and  O_11
REMARK    9  A    between atoms: O_11  and  P_12
REMARK   10  A    between atoms: P_12  and  O_13
REMARK   11  A    between atoms: P_12  and  O_15
REMARK   12  A    between atoms: O_15  and  C_16
REMARK   13  A    between atoms: C_16  and  C_17
REMARK   14  A    between atoms: C_20  and  N_28
REMARK   15  A    between atoms: C_22  and  O_24
REMARK   16  A    between atoms: C_25  and  O_27
REMARK                            x       y       z     vdW  Elec       q    Type
REMARK                         _______ _______ _______ _____ _____    ______ ____
ROOT
ATOM      1  C   UNL     1       6.303  -3.979  22.728  0.00  0.00    +0.178 C 
ATOM      2  C   UNL     1       7.271  -5.139  22.496  0.00  0.00    +0.178 C 
ATOM      3  C   UNL     1       7.735  -5.556  23.892  0.00  0.00    +0.195 C 
ATOM      4  C   UNL     1       6.928  -4.660  24.853  0.00  0.00    +0.255 C 
ATOM      5  O   UNL     1       5.831  -4.149  24.079  0.00  0.00    -0.346 OA
ENDROOT
BRANCH   4   6
ATOM      6  N   UNL     1       6.440  -5.357  26.044  0.00  0.00    -0.270 N 
ATOM      7  C   UNL     1       7.266  -5.352  27.172  0.00  0.00    +0.352 A 
ATOM      8  O   UNL     1       8.368  -4.808  27.143  0.00  0.00    -0.244 OA
ATOM      9  N   UNL     1       6.827  -5.989  28.311  0.00  0.00    -0.178 NA
ATOM     10  C   UNL     1       5.654  -6.538  28.332  0.00  0.00    +0.123 A 
ATOM     11  N   UNL     1       5.275  -7.163  29.487  0.00  0.00    -0.343 N 
ATOM     12  H   UNL     1       5.863  -6.914  30.277  0.00  0.00    +0.144 HD
ATOM     13  H   UNL     1       4.287  -7.183  29.707  0.00  0.00    +0.144 HD
ATOM     14  C   UNL     1       4.726  -6.508  27.187  0.00  0.00    +0.061 A 
ATOM     15  C   UNL     1       5.178  -5.908  26.088  0.00  0.00    +0.096 A 
ENDBRANCH   4   6
BRANCH   2  16
ATOM     16  O   UNL     1       6.570  -6.236  21.883  0.00  0.00    -0.386 OA
ATOM     17  H   UNL     1       7.212  -6.953  21.726  0.00  0.00    +0.210 HD
ENDBRANCH   2  16
BRANCH   3  18
ATOM     18  O   UNL     1       9.145  -5.364  24.037  0.00  0.00    -0.385 OA
ATOM     19  H   UNL     1       9.560  -6.201  23.730  0.00  0.00    +0.210 HD
ENDBRANCH   3  18
BRANCH   1  20
ATOM     20  C   UNL     1       6.964  -2.605  22.563  0.00  0.00    +0.206 C 
BRANCH  20  21
ATOM     21  O   UNL     1       8.315  -2.777  22.128  0.00  0.00    -0.284 OA
BRANCH  21  22
ATOM     22  P   UNL     1       9.372  -1.595  22.823  0.00  0.00    +0.480 P 
ATOM     23  O   UNL     1      10.133  -2.719  23.542  0.00  0.00    -0.227 OA
BRANCH  22  24
ATOM     24  O   UNL     1      10.173  -1.500  21.392  0.00  0.00    -0.302 OA
ATOM     25  H   UNL     1      11.062  -1.184  21.624  0.00  0.00    +0.222 HD
ENDBRANCH  22  24
BRANCH  22  26
ATOM     26  O   UNL     1      10.428  -0.414  23.517  0.00  0.00    -0.229 OA
BRANCH  26  27
ATOM     27  P   UNL     1       9.995   1.107  23.255  0.00  0.00    +0.222 P 
ATOM     28  O   UNL     1      10.613   2.008  24.294  0.00  0.00    -0.437 OA
ATOM     29  O   UNL     1      10.122   1.448  21.801  0.00  0.00    -0.517 OA
BRANCH  27  30
ATOM     30  O   UNL     1       8.407   0.969  23.588  0.00  0.00    -0.322 OA
BRANCH  30  31
ATOM     31  C   UNL     1       8.024   1.251  24.919  0.00  0.00    +0.218 C 
BRANCH  31  32
ATOM     32  C   UNL     1       6.932   0.269  25.363  0.00  0.00    +0.161 C 
BRANCH  32  34
ATOM     33  C   UNL     1       7.111   0.528  27.808  0.00  0.00    +0.192 C 
ATOM     34  N   UNL     1       7.243  -0.486  26.679  0.00  0.00    +0.239 N 
ATOM     35  C   UNL     1       6.267  -1.621  26.899  0.00  0.00    +0.192 C 
ATOM     36  C   UNL     1       8.678  -0.999  26.658  0.00  0.00    +0.192 C 
ENDBRANCH  32  34
ENDBRANCH  31  32
ENDBRANCH  30  31
ENDBRANCH  27  30
ENDBRANCH  26  27
ENDBRANCH  22  26
ENDBRANCH  21  22
ENDBRANCH  20  21
ENDBRANCH   1  20
TORSDOF 13
ENDMDL
MODEL 2
REMARK VINA RESULT:      -6.8      1.874      2.549
REMARK  Name = 
REMARK  16 active torsions:
REMARK  status: ('A' for Active; 'I' for Inactive)
REMARK    1  A    between atoms: C_1  and  N_2
REMARK    2  A    between atoms: N_2  and  C_3
REMARK    3  A    between atoms: N_2  and  C_4
REMARK    4  A    between atoms: N_2  and  C_5
REMARK    5  A    between atoms: C_5  and  C_6
REMARK    6  A    between atoms: C_6  and  O_7
REMARK    7  A    between atoms: O_7  and  P_8
REMARK    8  A    between atoms: P_8  and  O_11
REMARK    9  A    between atoms: O_11  and  P_12
REMARK   10  A    between atoms: P_12  and  O_13
REMARK   11  A    between atoms: P_12  and  O_15
REMARK   12  A    between atoms: O_15  and  C_16
REMARK   13  A    between atoms: C_16  and  C_17
REMARK   14  A    between atoms: C_20  and  N_28
REMARK   15  A    between atoms: C_22  and  O_24
REMARK   16  A    between atoms: C_25  and  O_27
REMARK                            x       y       z     vdW  Elec       q    Type
REMARK                         _______ _______ _______ _____ _____    ______ ____
ROOT
ATOM      1  C   UNL     1       6.317  -4.066  22.665  0.00  0.00    +0.178 C 
ATOM      2  C   UNL     1       7.382  -5.150  22.500  0.00  0.00    +0.178 C 
ATOM      3  C   UNL     1       7.820  -5.498  23.923  0.00  0.00    +0.195 C 
ATOM      4  C   UNL     1       6.906  -4.649  24.830  0.00  0.00    +0.255 C 
ATOM      5  O   UNL     1       5.805  -4.245  24.000  0.00  0.00    -0.346 OA
ENDROOT
BRANCH   4   6
ATOM      6  N   UNL     1       6.426  -5.357  26.017  0.00  0.00    -0.270 N 
ATOM      7  C   UNL     1       7.238  -5.322  27.155  0.00  0.00    +0.352 A 
ATOM      8  O   UNL     1       8.322  -4.743  27.136  0.00  0.00    -0.244 OA
ATOM      9  N   UNL     1       6.805  -5.969  28.291  0.00  0.00    -0.178 NA
ATOM     10  C   UNL     1       5.651  -6.555  28.299  0.00  0.00    +0.123 A 
ATOM     11  N   UNL     1       5.278  -7.187  29.453  0.00  0.00    -0.343 N 
ATOM     12  H   UNL     1       5.848  -6.917  30.248  0.00  0.00    +0.144 HD
ATOM     13  H   UNL     1       4.288  -7.238  29.661  0.00  0.00    +0.144 HD
ATOM     14  C   UNL     1       4.736  -6.558  27.144  0.00  0.00    +0.061 A 
ATOM     15  C   UNL     1       5.181  -5.948  26.048  0.00  0.00    +0.096 A 
ENDBRANCH   4   6
BRANCH   2  16
ATOM     16  O   UNL     1       6.796  -6.313  21.887  0.00  0.00    -0.386 OA
ATOM     17  H   UNL     1       6.352  -6.029  21.068  0.00  0.00    +0.210 HD
ENDBRANCH   2  16
BRANCH   3  18
ATOM     18  O   UNL     1       9.203  -5.191  24.118  0.00  0.00    -0.385 OA
ATOM     19  H   UNL     1       9.690  -5.707  23.437  0.00  0.00    +0.210 HD
ENDBRANCH   3  18
BRANCH   1  20
ATOM     20  C   UNL     1       6.873  -2.648  22.492  0.00  0.00    +0.206 C 
BRANCH  20  21
ATOM     21  O   UNL     1       8.248  -2.720  22.106  0.00  0.00    -0.284 OA
BRANCH  21  22
ATOM     22  P   UNL     1       9.186  -1.450  22.815  0.00  0.00    +0.480 P 
ATOM     23  O   UNL     1      10.206  -2.492  23.297  0.00  0.00    -0.227 OA
BRANCH  22  24
ATOM     24  O   UNL     1       9.762  -1.071  21.324  0.00  0.00    -0.302 OA
ATOM     25  H   UNL     1       9.666  -0.105  21.258  0.00  0.00    +0.222 HD
ENDBRANCH  22  24
BRANCH  22  26
ATOM     26  O   UNL     1      10.124  -0.181  23.524  0.00  0.00    -0.229 OA
BRANCH  26  27
ATOM     27  P   UNL     1       9.616   1.300  23.176  0.00  0.00    +0.222 P 
ATOM     28  O   UNL     1       9.608   2.151  24.420  0.00  0.00    -0.437 OA
ATOM     29  O   UNL     1      10.282   1.805  21.931  0.00  0.00    -0.517 OA
BRANCH  27  30
ATOM     30  O   UNL     1       8.073   0.946  22.796  0.00  0.00    -0.322 OA
BRANCH  30  31
ATOM     31  C   UNL     1       7.413   1.870  21.954  0.00  0.00    +0.218 C 
BRANCH  31  32
ATOM     32  C   UNL     1       6.153   2.398  22.651  0.00  0.00    +0.161 C 
BRANCH  32  34
ATOM     33  C   UNL     1       6.559   3.912  24.554  0.00  0.00    +0.192 C 
ATOM     34  N   UNL     1       6.226   3.888  23.068  0.00  0.00    +0.239 N 
ATOM     35  C   UNL     1       7.301   4.617  22.294  0.00  0.00    +0.192 C 
ATOM     36  C   UNL     1       4.868   4.550  22.868  0.00  0.00    +0.192 C 
ENDBRANCH  32  34
ENDBRANCH  31  32
ENDBRANCH  30  31
ENDBRANCH  27  30
ENDBRANCH  26  27
ENDBRANCH  22  26
ENDBRANCH  21  22
ENDBRANCH  20  21
ENDBRANCH   1  20
TORSDOF 13
ENDMDL
MODEL 3
REMARK VINA RESULT:      -6.5      3.261      7.986
REMARK  Name = 
REMARK  16 active torsions:
REMARK  status: ('A' for Active; 'I' for Inactive)
REMARK    1  A    between atoms: C_1  and  N_2
REMARK    2  A    between atoms: N_2  and  C_3
REMARK    3  A    between atoms: N_2  and  C_4
REMARK    4  A    between atoms: N_2  and  C_5
REMARK    5  A    between atoms: C_5  and  C_6
REMARK    6  A    between atoms: C_6  and  O_7
REMARK    7  A    between atoms: O_7  and  P_8
REMARK    8  A    between atoms: P_8  and  O_11
REMARK    9  A    between atoms: O_11  and  P_12
REMARK   10  A    between atoms: P_12  and  O_13
REMARK   11  A    between atoms: P_12  and  O_15
REMARK   12  A    between atoms: O_15  and  C_16
REMARK   13  A    between atoms: C_16  and  C_17
REMARK   14  A    between atoms: C_20  and  N_28
REMARK   15  A    between atoms: C_22  and  O_24
REMARK   16  A    between atoms: C_25  and  O_27
REMARK                            x       y       z     vdW  Elec       q    Type
REMARK                         _______ _______ _______ _____ _____    ______ ____
ROOT
ATOM      1  C   UNL     1       9.887  -1.378  23.359  0.00  0.00    +0.178 C 
ATOM      2  C   UNL     1       8.883  -1.113  22.237  0.00  0.00    +0.178 C 
ATOM      3  C   UNL     1       8.265   0.246  22.566  0.00  0.00    +0.195 C 
ATOM      4  C   UNL     1       9.026   0.724  23.820  0.00  0.00    +0.255 C 
ATOM      5  O   UNL     1      10.218  -0.075  23.880  0.00  0.00    -0.346 OA
ENDROOT
BRANCH   4   6
ATOM      6  N   UNL     1       9.359   2.149  23.805  0.00  0.00    -0.270 N 
ATOM      7  C   UNL     1       8.398   3.036  24.300  0.00  0.00    +0.352 A 
ATOM      8  O   UNL     1       7.311   2.627  24.701  0.00  0.00    -0.244 OA
ATOM      9  N   UNL     1       8.690   4.382  24.310  0.00  0.00    -0.178 NA
ATOM     10  C   UNL     1       9.849   4.794  23.904  0.00  0.00    +0.123 A 
ATOM     11  N   UNL     1      10.078   6.141  23.929  0.00  0.00    -0.343 N 
ATOM     12  H   UNL     1       9.397   6.644  24.491  0.00  0.00    +0.144 HD
ATOM     13  H   UNL     1      11.031   6.452  24.072  0.00  0.00    +0.144 HD
ATOM     14  C   UNL     1      10.912   3.887  23.438  0.00  0.00    +0.061 A 
ATOM     15  C   UNL     1      10.603   2.592  23.414  0.00  0.00    +0.096 A 
ENDBRANCH   4   6
BRANCH   2  16
ATOM     16  O   UNL     1       9.578  -1.025  20.979  0.00  0.00    -0.386 OA
ATOM     17  H   UNL     1       9.498  -1.887  20.531  0.00  0.00    +0.210 HD
ENDBRANCH   2  16
BRANCH   3  18
ATOM     18  O   UNL     1       6.861   0.122  22.805  0.00  0.00    -0.385 OA
ATOM     19  H   UNL     1       6.438   0.839  22.282  0.00  0.00    +0.210 HD
ENDBRANCH   3  18
BRANCH   1  20
ATOM     20  C   UNL     1       9.321  -2.270  24.470  0.00  0.00    +0.206 C 
BRANCH  20  21
ATOM     21  O   UNL     1       9.873  -3.583  24.353  0.00  0.00    -0.284 OA
BRANCH  21  22
ATOM     22  P   UNL     1       8.950  -4.753  25.233  0.00  0.00    +0.480 P 
ATOM     23  O   UNL     1       8.626  -5.470  23.914  0.00  0.00    -0.227 OA
BRANCH  22  24
ATOM     24  O   UNL     1      10.349  -5.485  25.687  0.00  0.00    -0.302 OA
ATOM     25  H   UNL     1      10.401  -5.350  26.648  0.00  0.00    +0.222 HD
ENDBRANCH  22  24
BRANCH  22  26
ATOM     26  O   UNL     1       8.028  -5.922  26.114  0.00  0.00    -0.229 OA
BRANCH  26  27
ATOM     27  P   UNL     1       6.699  -5.346  26.802  0.00  0.00    +0.222 P 
ATOM     28  O   UNL     1       6.913  -5.181  28.285  0.00  0.00    -0.437 OA
ATOM     29  O   UNL     1       6.141  -4.210  25.997  0.00  0.00    -0.517 OA
BRANCH  27  30
ATOM     30  O   UNL     1       5.727  -6.631  26.572  0.00  0.00    -0.322 OA
BRANCH  30  31
ATOM     31  C   UNL     1       4.413  -6.347  26.135  0.00  0.00    +0.218 C 
BRANCH  31  32
ATOM     32  C   UNL     1       4.228  -6.844  24.696  0.00  0.00    +0.161 C 
BRANCH  32  34
ATOM     33  C   UNL     1       4.744  -5.336  22.815  0.00  0.00    +0.192 C 
ATOM     34  N   UNL     1       3.616  -5.799  23.729  0.00  0.00    +0.239 N 
ATOM     35  C   UNL     1       2.507  -6.408  22.901  0.00  0.00    +0.192 C 
ATOM     36  C   UNL     1       3.111  -4.597  24.517  0.00  0.00    +0.192 C 
ENDBRANCH  32  34
ENDBRANCH  31  32
ENDBRANCH  30  31
ENDBRANCH  27  30
ENDBRANCH  26  27
ENDBRANCH  22  26
ENDBRANCH  21  22
ENDBRANCH  20  21
ENDBRANCH   1  20
TORSDOF 13
ENDMDL
MODEL 4
REMARK VINA RESULT:      -6.1      3.202      7.634
REMARK  Name = 
REMARK  16 active torsions:
REMARK  status: ('A' for Active; 'I' for Inactive)
REMARK    1  A    between atoms: C_1  and  N_2
REMARK    2  A    between atoms: N_2  and  C_3
REMARK    3  A    between atoms: N_2  and  C_4
REMARK    4  A    between atoms: N_2  and  C_5
REMARK    5  A    between atoms: C_5  and  C_6
REMARK    6  A    between atoms: C_6  and  O_7
REMARK    7  A    between atoms: O_7  and  P_8
REMARK    8  A    between atoms: P_8  and  O_11
REMARK    9  A    between atoms: O_11  and  P_12
REMARK   10  A    between atoms: P_12  and  O_13
REMARK   11  A    between atoms: P_12  and  O_15
REMARK   12  A    between atoms: O_15  and  C_16
REMARK   13  A    between atoms: C_16  and  C_17
REMARK   14  A    between atoms: C_20  and  N_28
REMARK   15  A    between atoms: C_22  and  O_24
REMARK   16  A    between atoms: C_25  and  O_27
REMARK                            x       y       z     vdW  Elec       q    Type
REMARK                         _______ _______ _______ _____ _____    ______ ____
ROOT
ATOM      1  C   UNL     1       8.516  -1.877  24.465  0.00  0.00    +0.178 C 
ATOM      2  C   UNL     1       9.047  -1.080  25.656  0.00  0.00    +0.178 C 
ATOM      3  C   UNL     1       9.230   0.345  25.133  0.00  0.00    +0.195 C 
ATOM      4  C   UNL     1       8.702   0.297  23.684  0.00  0.00    +0.255 C 
ATOM      5  O   UNL     1       7.909  -0.898  23.599  0.00  0.00    -0.346 OA
ENDROOT
BRANCH   4   6
ATOM      6  N   UNL     1       7.915   1.469  23.301  0.00  0.00    -0.270 N 
ATOM      7  C   UNL     1       8.612   2.573  22.800  0.00  0.00    +0.352 A 
ATOM      8  O   UNL     1       9.838   2.559  22.719  0.00  0.00    -0.244 OA
ATOM      9  N   UNL     1       7.895   3.685  22.420  0.00  0.00    -0.178 NA
ATOM     10  C   UNL     1       6.602   3.675  22.491  0.00  0.00    +0.123 A 
ATOM     11  N   UNL     1       5.944   4.811  22.108  0.00  0.00    -0.343 N 
ATOM     12  H   UNL     1       6.537   5.446  21.582  0.00  0.00    +0.144 HD
ATOM     13  H   UNL     1       5.015   4.706  21.719  0.00  0.00    +0.144 HD
ATOM     14  C   UNL     1       5.826   2.509  22.950  0.00  0.00    +0.061 A 
ATOM     15  C   UNL     1       6.537   1.452  23.335  0.00  0.00    +0.096 A 
ENDBRANCH   4   6
BRANCH   2  16
ATOM     16  O   UNL     1       8.065  -1.074  26.709  0.00  0.00    -0.386 OA
ATOM     17  H   UNL     1       7.573  -0.234  26.658  0.00  0.00    +0.210 HD
ENDBRANCH   2  16
BRANCH   3  18
ATOM     18  O   UNL     1      10.605   0.734  25.190  0.00  0.00    -0.385 OA
ATOM     19  H   UNL     1      10.602   1.717  25.218  0.00  0.00    +0.210 HD
ENDBRANCH   3  18
BRANCH   1  20
ATOM     20  C   UNL     1       9.615  -2.642  23.719  0.00  0.00    +0.206 C 
BRANCH  20  21
ATOM     21  O   UNL     1      10.035  -3.760  24.505  0.00  0.00    -0.284 OA
BRANCH  21  22
ATOM     22  P   UNL     1       8.692  -4.701  25.059  0.00  0.00    +0.480 P 
ATOM     23  O   UNL     1       9.183  -5.879  24.205  0.00  0.00    -0.227 OA
BRANCH  22  24
ATOM     24  O   UNL     1       9.480  -4.954  26.477  0.00  0.00    -0.302 OA
ATOM     25  H   UNL     1       9.147  -4.263  27.075  0.00  0.00    +0.222 HD
ENDBRANCH  22  24
BRANCH  22  26
ATOM     26  O   UNL     1       7.349  -5.642  25.613  0.00  0.00    -0.229 OA
BRANCH  26  27
ATOM     27  P   UNL     1       6.736  -5.169  27.017  0.00  0.00    +0.222 P 
ATOM     28  O   UNL     1       7.264  -6.036  28.131  0.00  0.00    -0.437 OA
ATOM     29  O   UNL     1       6.795  -3.676  27.140  0.00  0.00    -0.517 OA
BRANCH  27  30
ATOM     30  O   UNL     1       5.182  -5.577  26.754  0.00  0.00    -0.322 OA
BRANCH  30  31
ATOM     31  C   UNL     1       4.357  -4.566  26.209  0.00  0.00    +0.218 C 
BRANCH  31  32
ATOM     32  C   UNL     1       4.024  -4.901  24.750  0.00  0.00    +0.161 C 
BRANCH  32  34
ATOM     33  C   UNL     1       2.105  -5.382  23.279  0.00  0.00    +0.192 C 
ATOM     34  N   UNL     1       2.791  -5.821  24.566  0.00  0.00    +0.239 N 
ATOM     35  C   UNL     1       3.207  -7.270  24.452  0.00  0.00    +0.192 C 
ATOM     36  C   UNL     1       1.819  -5.622  25.722  0.00  0.00    +0.192 C 
ENDBRANCH  32  34
ENDBRANCH  31  32
ENDBRANCH  30  31
ENDBRANCH  27  30
ENDBRANCH  26  27
ENDBRANCH  22  26
ENDBRANCH  21  22
ENDBRANCH  20  21
ENDBRANCH   1  20
TORSDOF 13
ENDMDL
MODEL 5
REMARK VINA RESULT:      -5.8      3.065      4.639
REMARK  Name = 
REMARK  16 active torsions:
REMARK  status: ('A' for Active; 'I' for Inactive)
REMARK    1  A    between atoms: C_1  and  N_2
REMARK    2  A    between atoms: N_2  and  C_3
REMARK    3  A    between atoms: N_2  and  C_4
REMARK    4  A    between atoms: N_2  and  C_5
REMARK    5  A    between atoms: C_5  and  C_6
REMARK    6  A    between atoms: C_6  and  O_7
REMARK    7  A    between atoms: O_7  and  P_8
REMARK    8  A    between atoms: P_8  and  O_11
REMARK    9  A    between atoms: O_11  and  P_12
REMARK   10  A    between atoms: P_12  and  O_13
REMARK   11  A    between atoms: P_12  and  O_15
REMARK   12  A    between atoms: O_15  and  C_16
REMARK   13  A    between atoms: C_16  and  C_17
REMARK   14  A    between atoms: C_20  and  N_28
REMARK   15  A    between atoms: C_22  and  O_24
REMARK   16  A    between atoms: C_25  and  O_27
REMARK                            x       y       z     vdW  Elec       q    Type
REMARK                         _______ _______ _______ _____ _____    ______ ____
ROOT
ATOM      1  C   UNL     1       8.632  -4.417  25.440  0.00  0.00    +0.178 C 
ATOM      2  C   UNL     1       7.967  -4.547  26.811  0.00  0.00    +0.178 C 
ATOM      3  C   UNL     1       6.469  -4.405  26.541  0.00  0.00    +0.195 C 
ATOM      4  C   UNL     1       6.359  -4.294  25.007  0.00  0.00    +0.255 C 
ATOM      5  O   UNL     1       7.609  -4.779  24.492  0.00  0.00    -0.346 OA
ENDROOT
BRANCH   4   6
ATOM      6  N   UNL     1       5.239  -5.043  24.436  0.00  0.00    -0.270 N 
ATOM      7  C   UNL     1       4.633  -4.515  23.292  0.00  0.00    +0.352 A 
ATOM      8  O   UNL     1       5.014  -3.450  22.812  0.00  0.00    -0.244 OA
ATOM      9  N   UNL     1       3.585  -5.206  22.726  0.00  0.00    -0.178 NA
ATOM     10  C   UNL     1       3.210  -6.338  23.231  0.00  0.00    +0.123 A 
ATOM     11  N   UNL     1       2.159  -6.974  22.632  0.00  0.00    -0.343 N 
ATOM     12  H   UNL     1       1.949  -6.600  21.711  0.00  0.00    +0.144 HD
ATOM     13  H   UNL     1       2.137  -7.986  22.673  0.00  0.00    +0.144 HD
ATOM     14  C   UNL     1       3.865  -6.961  24.395  0.00  0.00    +0.061 A 
ATOM     15  C   UNL     1       4.861  -6.267  24.942  0.00  0.00    +0.096 A 
ENDBRANCH   4   6
BRANCH   2  16
ATOM     16  O   UNL     1       8.229  -5.854  27.353  0.00  0.00    -0.386 OA
ATOM     17  H   UNL     1       9.063  -6.178  26.966  0.00  0.00    +0.210 HD
ENDBRANCH   2  16
BRANCH   3  18
ATOM     18  O   UNL     1       5.940  -3.253  27.202  0.00  0.00    -0.385 OA
ATOM     19  H   UNL     1       6.697  -2.633  27.303  0.00  0.00    +0.210 HD
ENDBRANCH   3  18
BRANCH   1  20
ATOM     20  C   UNL     1       9.148  -3.002  25.156  0.00  0.00    +0.206 C 
BRANCH  20  21
ATOM     21  O   UNL     1       9.682  -2.948  23.831  0.00  0.00    -0.284 OA
BRANCH  21  22
ATOM     22  P   UNL     1       9.147  -1.542  22.976  0.00  0.00    +0.480 P 
ATOM     23  O   UNL     1      10.232  -1.791  21.917  0.00  0.00    -0.227 OA
BRANCH  22  24
ATOM     24  O   UNL     1       7.884  -2.408  22.383  0.00  0.00    -0.302 OA
ATOM     25  H   UNL     1       7.533  -1.870  21.653  0.00  0.00    +0.222 HD
ENDBRANCH  22  24
BRANCH  22  26
ATOM     26  O   UNL     1       8.612  -0.136  22.120  0.00  0.00    -0.229 OA
BRANCH  26  27
ATOM     27  P   UNL     1       7.926   0.985  23.039  0.00  0.00    +0.222 P 
ATOM     28  O   UNL     1       6.450   1.066  22.741  0.00  0.00    -0.437 OA
ATOM     29  O   UNL     1       8.396   0.862  24.458  0.00  0.00    -0.517 OA
BRANCH  27  30
ATOM     30  O   UNL     1       8.642   2.299  22.398  0.00  0.00    -0.322 OA
BRANCH  30  31
ATOM     31  C   UNL     1       7.829   3.447  22.265  0.00  0.00    +0.218 C 
BRANCH  31  32
ATOM     32  C   UNL     1       7.915   4.292  23.543  0.00  0.00    +0.161 C 
BRANCH  32  34
ATOM     33  C   UNL     1       9.337   6.301  23.391  0.00  0.00    +0.192 C 
ATOM     34  N   UNL     1       7.893   5.823  23.304  0.00  0.00    +0.239 N 
ATOM     35  C   UNL     1       7.329   6.152  21.940  0.00  0.00    +0.192 C 
ATOM     36  C   UNL     1       7.092   6.508  24.404  0.00  0.00    +0.192 C 
ENDBRANCH  32  34
ENDBRANCH  31  32
ENDBRANCH  30  31
ENDBRANCH  27  30
ENDBRANCH  26  27
ENDBRANCH  22  26
ENDBRANCH  21  22
ENDBRANCH  20  21
ENDBRANCH   1  20
TORSDOF 13
ENDMDL
MODEL 6
REMARK VINA RESULT:      -5.8      2.590      4.081
REMARK  Name = 
REMARK  16 active torsions:
REMARK  status: ('A' for Active; 'I' for Inactive)
REMARK    1  A    between atoms: C_1  and  N_2
REMARK    2  A    between atoms: N_2  and  C_3
REMARK    3  A    between atoms: N_2  and  C_4
REMARK    4  A    between atoms: N_2  and  C_5
REMARK    5  A    between atoms: C_5  and  C_6
REMARK    6  A    between atoms: C_6  and  O_7
REMARK    7  A    between atoms: O_7  and  P_8
REMARK    8  A    between atoms: P_8  and  O_11
REMARK    9  A    between atoms: O_11  and  P_12
REMARK   10  A    between atoms: P_12  and  O_13
REMARK   11  A    between atoms: P_12  and  O_15
REMARK   12  A    between atoms: O_15  and  C_16
REMARK   13  A    between atoms: C_16  and  C_17
REMARK   14  A    between atoms: C_20  and  N_28
REMARK   15  A    between atoms: C_22  and  O_24
REMARK   16  A    between atoms: C_25  and  O_27
REMARK                            x       y       z     vdW  Elec       q    Type
REMARK                         _______ _______ _______ _____ _____    ______ ____
ROOT
ATOM      1  C   UNL     1       8.678  -4.453  25.406  0.00  0.00    +0.178 C 
ATOM      2  C   UNL     1       8.007  -4.535  26.777  0.00  0.00    +0.178 C 
ATOM      3  C   UNL     1       6.512  -4.382  26.500  0.00  0.00    +0.195 C 
ATOM      4  C   UNL     1       6.408  -4.313  24.962  0.00  0.00    +0.255 C 
ATOM      5  O   UNL     1       7.653  -4.828  24.465  0.00  0.00    -0.346 OA
ENDROOT
BRANCH   4   6
ATOM      6  N   UNL     1       5.280  -5.064  24.409  0.00  0.00    -0.270 N 
ATOM      7  C   UNL     1       4.611  -4.502  23.317  0.00  0.00    +0.352 A 
ATOM      8  O   UNL     1       4.946  -3.408  22.868  0.00  0.00    -0.244 OA
ATOM      9  N   UNL     1       3.554  -5.193  22.769  0.00  0.00    -0.178 NA
ATOM     10  C   UNL     1       3.228  -6.354  23.240  0.00  0.00    +0.123 A 
ATOM     11  N   UNL     1       2.164  -6.990  22.661  0.00  0.00    -0.343 N 
ATOM     12  H   UNL     1       1.905  -6.582  21.768  0.00  0.00    +0.144 HD
ATOM     13  H   UNL     1       2.167  -8.002  22.659  0.00  0.00    +0.144 HD
ATOM     14  C   UNL     1       3.949  -7.011  24.345  0.00  0.00    +0.061 A 
ATOM     15  C   UNL     1       4.952  -6.318  24.877  0.00  0.00    +0.096 A 
ENDBRANCH   4   6
BRANCH   2  16
ATOM     16  O   UNL     1       8.252  -5.829  27.357  0.00  0.00    -0.386 OA
ATOM     17  H   UNL     1       9.083  -6.174  26.983  0.00  0.00    +0.210 HD
ENDBRANCH   2  16
BRANCH   3  18
ATOM     18  O   UNL     1       5.996  -3.205  27.125  0.00  0.00    -0.385 OA
ATOM     19  H   UNL     1       6.408  -3.175  28.018  0.00  0.00    +0.210 HD
ENDBRANCH   3  18
BRANCH   1  20
ATOM     20  C   UNL     1       9.213  -3.053  25.083  0.00  0.00    +0.206 C 
BRANCH  20  21
ATOM     21  O   UNL     1       9.669  -3.019  23.729  0.00  0.00    -0.284 OA
BRANCH  21  22
ATOM     22  P   UNL     1       9.920  -1.400  23.172  0.00  0.00    +0.480 P 
ATOM     23  O   UNL     1       9.657  -1.869  21.733  0.00  0.00    -0.227 OA
BRANCH  22  24
ATOM     24  O   UNL     1       8.410  -1.010  23.687  0.00  0.00    -0.302 OA
ATOM     25  H   UNL     1       8.036  -0.465  22.973  0.00  0.00    +0.222 HD
ENDBRANCH  22  24
BRANCH  22  26
ATOM     26  O   UNL     1      10.172   0.219  22.615  0.00  0.00    -0.229 OA
BRANCH  26  27
ATOM     27  P   UNL     1      10.252   1.321  23.777  0.00  0.00    +0.222 P 
ATOM     28  O   UNL     1      10.602   0.665  25.089  0.00  0.00    -0.437 OA
ATOM     29  O   UNL     1      11.023   2.520  23.313  0.00  0.00    -0.517 OA
BRANCH  27  30
ATOM     30  O   UNL     1       8.680   1.739  23.827  0.00  0.00    -0.322 OA
BRANCH  30  31
ATOM     31  C   UNL     1       8.220   2.287  25.046  0.00  0.00    +0.218 C 
BRANCH  31  32
ATOM     32  C   UNL     1       8.358   3.814  25.013  0.00  0.00    +0.161 C 
BRANCH  32  34
ATOM     33  C   UNL     1       7.424   4.846  22.979  0.00  0.00    +0.192 C 
ATOM     34  N   UNL     1       7.125   4.559  24.445  0.00  0.00    +0.239 N 
ATOM     35  C   UNL     1       5.879   3.710  24.553  0.00  0.00    +0.192 C 
ATOM     36  C   UNL     1       6.943   5.888  25.168  0.00  0.00    +0.192 C 
ENDBRANCH  32  34
ENDBRANCH  31  32
ENDBRANCH  30  31
ENDBRANCH  27  30
ENDBRANCH  26  27
ENDBRANCH  22  26
ENDBRANCH  21  22
ENDBRANCH  20  21
ENDBRANCH   1  20
TORSDOF 13
ENDMDL
MODEL 7
REMARK VINA RESULT:      -5.8      3.047      4.505
REMARK  Name = 
REMARK  16 active torsions:
REMARK  status: ('A' for Active; 'I' for Inactive)
REMARK    1  A    between atoms: C_1  and  N_2
REMARK    2  A    between atoms: N_2  and  C_3
REMARK    3  A    between atoms: N_2  and  C_4
REMARK    4  A    between atoms: N_2  and  C_5
REMARK    5  A    between atoms: C_5  and  C_6
REMARK    6  A    between atoms: C_6  and  O_7
REMARK    7  A    between atoms: O_7  and  P_8
REMARK    8  A    between atoms: P_8  and  O_11
REMARK    9  A    between atoms: O_11  and  P_12
REMARK   10  A    between atoms: P_12  and  O_13
REMARK   11  A    between atoms: P_12  and  O_15
REMARK   12  A    between atoms: O_15  and  C_16
REMARK   13  A    between atoms: C_16  and  C_17
REMARK   14  A    between atoms: C_20  and  N_28
REMARK   15  A    between atoms: C_22  and  O_24
REMARK   16  A    between atoms: C_25  and  O_27
REMARK                            x       y       z     vdW  Elec       q    Type
REMARK                         _______ _______ _______ _____ _____    ______ ____
ROOT
ATOM      1  C   UNL     1       8.913  -3.667  24.141  0.00  0.00    +0.178 C 
ATOM      2  C   UNL     1       9.042  -4.595  25.348  0.00  0.00    +0.178 C 
ATOM      3  C   UNL     1       7.605  -4.897  25.774  0.00  0.00    +0.195 C 
ATOM      4  C   UNL     1       6.731  -4.190  24.718  0.00  0.00    +0.255 C 
ATOM      5  O   UNL     1       7.601  -3.928  23.606  0.00  0.00    -0.346 OA
ENDROOT
BRANCH   4   6
ATOM      6  N   UNL     1       5.568  -4.968  24.292  0.00  0.00    -0.270 N 
ATOM      7  C   UNL     1       4.761  -4.419  23.291  0.00  0.00    +0.352 A 
ATOM      8  O   UNL     1       5.011  -3.313  22.817  0.00  0.00    -0.244 OA
ATOM      9  N   UNL     1       3.666  -5.136  22.862  0.00  0.00    -0.178 NA
ATOM     10  C   UNL     1       3.429  -6.309  23.356  0.00  0.00    +0.123 A 
ATOM     11  N   UNL     1       2.324  -6.971  22.898  0.00  0.00    -0.343 N 
ATOM     12  H   UNL     1       1.951  -6.564  22.045  0.00  0.00    +0.144 HD
ATOM     13  H   UNL     1       2.354  -7.983  22.886  0.00  0.00    +0.144 HD
ATOM     14  C   UNL     1       4.292  -6.952  24.364  0.00  0.00    +0.061 A 
ATOM     15  C   UNL     1       5.331  -6.234  24.783  0.00  0.00    +0.096 A 
ENDBRANCH   4   6
BRANCH   2  16
ATOM     16  O   UNL     1       9.684  -5.820  24.949  0.00  0.00    -0.386 OA
ATOM     17  H   UNL     1       9.898  -6.324  25.755  0.00  0.00    +0.210 HD
ENDBRANCH   2  16
BRANCH   3  18
ATOM     18  O   UNL     1       7.352  -4.409  27.093  0.00  0.00    -0.385 OA
ATOM     19  H   UNL     1       6.808  -3.598  26.978  0.00  0.00    +0.210 HD
ENDBRANCH   3  18
BRANCH   1  20
ATOM     20  C   UNL     1       9.056  -2.185  24.507  0.00  0.00    +0.206 C 
BRANCH  20  21
ATOM     21  O   UNL     1       8.968  -2.034  25.926  0.00  0.00    -0.284 OA
BRANCH  21  22
ATOM     22  P   UNL     1       7.973  -0.691  26.372  0.00  0.00    +0.480 P 
ATOM     23  O   UNL     1       6.985  -1.661  27.038  0.00  0.00    -0.227 OA
BRANCH  22  24
ATOM     24  O   UNL     1       9.009  -0.359  27.603  0.00  0.00    -0.302 OA
ATOM     25  H   UNL     1       9.894  -0.411  27.204  0.00  0.00    +0.222 HD
ENDBRANCH  22  24
BRANCH  22  26
ATOM     26  O   UNL     1       6.978   0.653  26.819  0.00  0.00    -0.229 OA
BRANCH  26  27
ATOM     27  P   UNL     1       6.124   1.281  25.616  0.00  0.00    +0.222 P 
ATOM     28  O   UNL     1       4.903   0.438  25.353  0.00  0.00    -0.437 OA
ATOM     29  O   UNL     1       5.985   2.764  25.789  0.00  0.00    -0.517 OA
BRANCH  27  30
ATOM     30  O   UNL     1       7.183   1.027  24.406  0.00  0.00    -0.322 OA
BRANCH  30  31
ATOM     31  C   UNL     1       7.652   2.181  23.738  0.00  0.00    +0.218 C 
BRANCH  31  32
ATOM     32  C   UNL     1       8.974   2.641  24.365  0.00  0.00    +0.161 C 
BRANCH  32  34
ATOM     33  C   UNL     1       9.762   1.764  22.200  0.00  0.00    +0.192 C 
ATOM     34  N   UNL     1      10.239   2.240  23.567  0.00  0.00    +0.239 N 
ATOM     35  C   UNL     1      11.173   3.417  23.398  0.00  0.00    +0.192 C 
ATOM     36  C   UNL     1      10.944   1.080  24.260  0.00  0.00    +0.192 C 
ENDBRANCH  32  34
ENDBRANCH  31  32
ENDBRANCH  30  31
ENDBRANCH  27  30
ENDBRANCH  26  27
ENDBRANCH  22  26
ENDBRANCH  21  22
ENDBRANCH  20  21
ENDBRANCH   1  20
TORSDOF 13
ENDMDL
MODEL 8
REMARK VINA RESULT:      -5.7      3.282      7.522
REMARK  Name = 
REMARK  16 active torsions:
REMARK  status: ('A' for Active; 'I' for Inactive)
REMARK    1  A    between atoms: C_1  and  N_2
REMARK    2  A    between atoms: N_2  and  C_3
REMARK    3  A    between atoms: N_2  and  C_4
REMARK    4  A    between atoms: N_2  and  C_5
REMARK    5  A    between atoms: C_5  and  C_6
REMARK    6  A    between atoms: C_6  and  O_7
REMARK    7  A    between atoms: O_7  and  P_8
REMARK    8  A    between atoms: P_8  and  O_11
REMARK    9  A    between atoms: O_11  and  P_12
REMARK   10  A    between atoms: P_12  and  O_13
REMARK   11  A    between atoms: P_12  and  O_15
REMARK   12  A    between atoms: O_15  and  C_16
REMARK   13  A    between atoms: C_16  and  C_17
REMARK   14  A    between atoms: C_20  and  N_28
REMARK   15  A    between atoms: C_22  and  O_24
REMARK   16  A    between atoms: C_25  and  O_27
REMARK                            x       y       z     vdW  Elec       q    Type
REMARK                         _______ _______ _______ _____ _____    ______ ____
ROOT
ATOM      1  C   UNL     1       7.434  -3.353  23.888  0.00  0.00    +0.178 C 
ATOM      2  C   UNL     1       8.830  -3.070  24.444  0.00  0.00    +0.178 C 
ATOM      3  C   UNL     1       9.336  -1.862  23.656  0.00  0.00    +0.195 C 
ATOM      4  C   UNL     1       8.151  -1.465  22.751  0.00  0.00    +0.255 C 
ATOM      5  O   UNL     1       6.997  -2.102  23.320  0.00  0.00    -0.346 OA
ENDROOT
BRANCH   4   6
ATOM      6  N   UNL     1       7.944  -0.021  22.644  0.00  0.00    -0.270 N 
ATOM      7  C   UNL     1       8.816   0.691  21.814  0.00  0.00    +0.352 A 
ATOM      8  O   UNL     1       9.734   0.121  21.228  0.00  0.00    -0.244 OA
ATOM      9  N   UNL     1       8.637   2.050  21.685  0.00  0.00    -0.178 NA
ATOM     10  C   UNL     1       7.652   2.632  22.291  0.00  0.00    +0.123 A 
ATOM     11  N   UNL     1       7.529   3.985  22.132  0.00  0.00    -0.343 N 
ATOM     12  H   UNL     1       8.085   4.339  21.360  0.00  0.00    +0.144 HD
ATOM     13  H   UNL     1       6.598   4.379  22.177  0.00  0.00    +0.144 HD
ATOM     14  C   UNL     1       6.672   1.909  23.120  0.00  0.00    +0.061 A 
ATOM     15  C   UNL     1       6.875   0.600  23.252  0.00  0.00    +0.096 A 
ENDBRANCH   4   6
BRANCH   2  16
ATOM     16  O   UNL     1       8.732  -2.721  25.837  0.00  0.00    -0.386 OA
ATOM     17  H   UNL     1       7.954  -3.175  26.207  0.00  0.00    +0.210 HD
ENDBRANCH   2  16
BRANCH   3  18
ATOM     18  O   UNL     1      10.499  -2.200  22.898  0.00  0.00    -0.385 OA
ATOM     19  H   UNL     1      11.232  -2.268  23.551  0.00  0.00    +0.210 HD
ENDBRANCH   3  18
BRANCH   1  20
ATOM     20  C   UNL     1       7.425  -4.455  22.822  0.00  0.00    +0.206 C 
BRANCH  20  21
ATOM     21  O   UNL     1       6.763  -5.612  23.340  0.00  0.00    -0.284 OA
BRANCH  21  22
ATOM     22  P   UNL     1       5.049  -5.529  23.116  0.00  0.00    +0.480 P 
ATOM     23  O   UNL     1       5.262  -5.518  21.595  0.00  0.00    -0.227 OA
BRANCH  22  24
ATOM     24  O   UNL     1       4.950  -7.137  23.437  0.00  0.00    -0.302 OA
ATOM     25  H   UNL     1       4.720  -7.190  24.380  0.00  0.00    +0.222 HD
ENDBRANCH  22  24
BRANCH  22  26
ATOM     26  O   UNL     1       3.335  -5.447  22.892  0.00  0.00    -0.229 OA
BRANCH  26  27
ATOM     27  P   UNL     1       2.475  -5.687  24.223  0.00  0.00    +0.222 P 
ATOM     28  O   UNL     1       1.319  -4.720  24.275  0.00  0.00    -0.437 OA
ATOM     29  O   UNL     1       2.233  -7.151  24.437  0.00  0.00    -0.517 OA
BRANCH  27  30
ATOM     30  O   UNL     1       3.581  -5.210  25.318  0.00  0.00    -0.322 OA
BRANCH  30  31
ATOM     31  C   UNL     1       3.468  -5.782  26.606  0.00  0.00    +0.218 C 
BRANCH  31  32
ATOM     32  C   UNL     1       4.775  -6.499  26.970  0.00  0.00    +0.161 C 
BRANCH  32  34
ATOM     33  C   UNL     1       5.927  -6.565  29.149  0.00  0.00    +0.192 C 
ATOM     34  N   UNL     1       5.706  -5.699  27.915  0.00  0.00    +0.239 N 
ATOM     35  C   UNL     1       7.033  -5.409  27.252  0.00  0.00    +0.192 C 
ATOM     36  C   UNL     1       5.020  -4.409  28.349  0.00  0.00    +0.192 C 
ENDBRANCH  32  34
ENDBRANCH  31  32
ENDBRANCH  30  31
ENDBRANCH  27  30
ENDBRANCH  26  27
ENDBRANCH  22  26
ENDBRANCH  21  22
ENDBRANCH  20  21
ENDBRANCH   1  20
TORSDOF 13
ENDMDL
MODEL 9
REMARK VINA RESULT:      -5.7      3.588      8.433
REMARK  Name = 
REMARK  16 active torsions:
REMARK  status: ('A' for Active; 'I' for Inactive)
REMARK    1  A    between atoms: C_1  and  N_2
REMARK    2  A    between atoms: N_2  and  C_3
REMARK    3  A    between atoms: N_2  and  C_4
REMARK    4  A    between atoms: N_2  and  C_5
REMARK    5  A    between atoms: C_5  and  C_6
REMARK    6  A    between atoms: C_6  and  O_7
REMARK    7  A    between atoms: O_7  and  P_8
REMARK    8  A    between atoms: P_8  and  O_11
REMARK    9  A    between atoms: O_11  and  P_12
REMARK   10  A    between atoms: P_12  and  O_13
REMARK   11  A    between atoms: P_12  and  O_15
REMARK   12  A    between atoms: O_15  and  C_16
REMARK   13  A    between atoms: C_16  and  C_17
REMARK   14  A    between atoms: C_20  and  N_28
REMARK   15  A    between atoms: C_22  and  O_24
REMARK   16  A    between atoms: C_25  and  O_27
REMARK                            x       y       z     vdW  Elec       q    Type
REMARK                         _______ _______ _______ _____ _____    ______ ____
ROOT
ATOM      1  C   UNL     1       7.134   1.695  22.252  0.00  0.00    +0.178 C 
ATOM      2  C   UNL     1       6.252   2.744  22.927  0.00  0.00    +0.178 C 
ATOM      3  C   UNL     1       7.173   3.470  23.906  0.00  0.00    +0.195 C 
ATOM      4  C   UNL     1       8.564   2.847  23.665  0.00  0.00    +0.255 C 
ATOM      5  O   UNL     1       8.480   2.192  22.390  0.00  0.00    -0.346 OA
ENDROOT
BRANCH   4   6
ATOM      6  N   UNL     1       9.659   3.818  23.677  0.00  0.00    -0.270 N 
ATOM      7  C   UNL     1      10.958   3.319  23.540  0.00  0.00    +0.352 A 
ATOM      8  O   UNL     1      11.161   2.110  23.445  0.00  0.00    -0.244 OA
ATOM      9  N   UNL     1      12.007   4.211  23.535  0.00  0.00    -0.178 NA
ATOM     10  C   UNL     1      11.774   5.482  23.613  0.00  0.00    +0.123 A 
ATOM     11  N   UNL     1      12.855   6.319  23.611  0.00  0.00    -0.343 N 
ATOM     12  H   UNL     1      13.706   5.857  23.305  0.00  0.00    +0.144 HD
ATOM     13  H   UNL     1      12.732   7.244  23.219  0.00  0.00    +0.144 HD
ATOM     14  C   UNL     1      10.417   6.052  23.691  0.00  0.00    +0.061 A 
ATOM     15  C   UNL     1       9.418   5.174  23.718  0.00  0.00    +0.096 A 
ENDBRANCH   4   6
BRANCH   2  16
ATOM     16  O   UNL     1       5.776   3.680  21.942  0.00  0.00    -0.386 OA
ATOM     17  H   UNL     1       5.667   3.201  21.100  0.00  0.00    +0.210 HD
ENDBRANCH   2  16
BRANCH   3  18
ATOM     18  O   UNL     1       6.730   3.287  25.253  0.00  0.00    -0.385 OA
ATOM     19  H   UNL     1       5.852   2.848  25.187  0.00  0.00    +0.210 HD
ENDBRANCH   3  18
BRANCH   1  20
ATOM     20  C   UNL     1       7.010   0.306  22.891  0.00  0.00    +0.206 C 
BRANCH  20  21
ATOM     21  O   UNL     1       8.314  -0.238  23.102  0.00  0.00    -0.284 OA
BRANCH  21  22
ATOM     22  P   UNL     1       8.269  -1.953  23.332  0.00  0.00    +0.480 P 
ATOM     23  O   UNL     1       8.489  -2.146  21.824  0.00  0.00    -0.227 OA
BRANCH  22  24
ATOM     24  O   UNL     1       9.810  -1.898  23.898  0.00  0.00    -0.302 OA
ATOM     25  H   UNL     1       9.933  -0.980  24.197  0.00  0.00    +0.222 HD
ENDBRANCH  22  24
BRANCH  22  26
ATOM     26  O   UNL     1       8.224  -3.668  23.561  0.00  0.00    -0.229 OA
BRANCH  26  27
ATOM     27  P   UNL     1       8.729  -4.163  24.999  0.00  0.00    +0.222 P 
ATOM     28  O   UNL     1      10.091  -4.799  24.880  0.00  0.00    -0.437 OA
ATOM     29  O   UNL     1       8.487  -3.106  26.035  0.00  0.00    -0.517 OA
BRANCH  27  30
ATOM     30  O   UNL     1       7.640  -5.348  25.246  0.00  0.00    -0.322 OA
BRANCH  30  31
ATOM     31  C   UNL     1       6.297  -4.935  25.402  0.00  0.00    +0.218 C 
BRANCH  31  32
ATOM     32  C   UNL     1       5.366  -5.921  24.687  0.00  0.00    +0.161 C 
BRANCH  32  34
ATOM     33  C   UNL     1       4.728  -3.899  23.430  0.00  0.00    +0.192 C 
ATOM     34  N   UNL     1       4.813  -5.417  23.331  0.00  0.00    +0.239 N 
ATOM     35  C   UNL     1       5.732  -5.801  22.193  0.00  0.00    +0.192 C 
ATOM     36  C   UNL     1       3.409  -5.964  23.106  0.00  0.00    +0.192 C 
ENDBRANCH  32  34
ENDBRANCH  31  32
ENDBRANCH  30  31
ENDBRANCH  27  30
ENDBRANCH  26  27
ENDBRANCH  22  26
ENDBRANCH  21  22
ENDBRANCH  20  21
ENDBRANCH   1  20
TORSDOF 13
ENDMDL
