MODEL 1
REMARK VINA RESULT:      -6.8      0.000      0.000
REMARK  Name = 
REMARK  9 active torsions:
REMARK  status: ('A' for Active; 'I' for Inactive)
REMARK    1  A    between atoms: C_1  and  O_2
REMARK    2  A    between atoms: O_2  and  N_3
REMARK    3  A    between atoms: N_3  and  C_4
REMARK    4  A    between atoms: C_7  and  C_22
REMARK    5  A    between atoms: N_9  and  S_11
REMARK    6  A    between atoms: S_11  and  C_14
REMARK    7  A    between atoms: C_17  and  O_18
REMARK    8  A    between atoms: O_18  and  C_19
REMARK    9  A    between atoms: N_24  and  O_25
REMARK                            x       y       z     vdW  Elec       q    Type
REMARK                         _______ _______ _______ _____ _____    ______ ____
ROOT
ATOM      1  C   UNL     1       7.854  -5.278  25.958  0.00  0.00    +0.099 C 
ATOM      2  C   UNL     1       8.559  -3.927  25.783  0.00  0.00    +0.131 C 
ATOM      3  N   UNL     1       7.858  -3.229  24.660  0.00  0.00    -0.163 NA
ATOM      4  C   UNL     1       6.676  -4.059  24.264  0.00  0.00    +0.169 C 
ATOM      5  C   UNL     1       6.441  -4.958  25.488  0.00  0.00    +0.052 C 
ENDROOT
BRANCH   4   6
ATOM      6  C   UNL     1       6.792  -4.880  22.980  0.00  0.00    +0.254 C 
ATOM      7  N   UNL     1       5.847  -4.575  22.021  0.00  0.00    -0.196 N 
ATOM      8  H   UNL     1       5.384  -3.677  21.965  0.00  0.00    +0.182 HD
ATOM      9  O   UNL     1       7.635  -5.758  22.801  0.00  0.00    -0.272 OA
BRANCH   7  10
ATOM     10  O   UNL     1       6.030  -5.232  20.777  0.00  0.00    -0.295 OA
ATOM     11  H   UNL     1       5.569  -6.089  20.920  0.00  0.00    +0.241 HD
ENDBRANCH   7  10
ENDBRANCH   4   6
BRANCH   3  12
ATOM     12  S   UNL     1       8.888  -2.503  23.534  0.00  0.00    +0.062 S 
ATOM     13  O   UNL     1       8.257  -2.595  22.234  0.00  0.00    -0.153 OA
ATOM     14  O   UNL     1      10.220  -3.019  23.759  0.00  0.00    -0.153 OA
BRANCH  12  15
ATOM     15  C   UNL     1       8.946  -0.784  23.975  0.00  0.00    +0.106 A 
ATOM     16  C   UNL     1      10.194  -0.209  24.242  0.00  0.00    +0.032 A 
ATOM     17  C   UNL     1      10.283   1.156  24.541  0.00  0.00    +0.047 A 
ATOM     18  C   UNL     1       9.133   1.945  24.540  0.00  0.00    +0.120 A 
ATOM     19  C   UNL     1       7.894   1.365  24.266  0.00  0.00    +0.047 A 
ATOM     20  C   UNL     1       7.789  -0.005  24.025  0.00  0.00    +0.032 A 
BRANCH  18  21
ATOM     21  O   UNL     1       9.108   3.299  24.726  0.00  0.00    -0.495 OA
ATOM     22  C   UNL     1       7.996   3.796  25.461  0.00  0.00    +0.277 C 
ENDBRANCH  18  21
ENDBRANCH  12  15
ENDBRANCH   3  12
BRANCH   1  23
ATOM     23  N   UNL     1       7.947  -5.772  27.339  0.00  0.00    -0.197 NA
ATOM     24  H   UNL     1       7.675  -6.759  27.327  0.00  0.00    +0.154 HD
BRANCH  23  26
ATOM     25  C   UNL     1       6.202  -6.167  28.855  0.00  0.00    +0.221 C 
ATOM     26  O   UNL     1       6.824  -5.167  28.048  0.00  0.00    -0.303 OA
ENDBRANCH  23  26
ENDBRANCH   1  23
TORSDOF 7
ENDMDL
MODEL 2
REMARK VINA RESULT:      -6.6      1.789      3.874
REMARK  Name = 
REMARK  9 active torsions:
REMARK  status: ('A' for Active; 'I' for Inactive)
REMARK    1  A    between atoms: C_1  and  O_2
REMARK    2  A    between atoms: O_2  and  N_3
REMARK    3  A    between atoms: N_3  and  C_4
REMARK    4  A    between atoms: C_7  and  C_22
REMARK    5  A    between atoms: N_9  and  S_11
REMARK    6  A    between atoms: S_11  and  C_14
REMARK    7  A    between atoms: C_17  and  O_18
REMARK    8  A    between atoms: O_18  and  C_19
REMARK    9  A    between atoms: N_24  and  O_25
REMARK                            x       y       z     vdW  Elec       q    Type
REMARK                         _______ _______ _______ _____ _____    ______ ____
ROOT
ATOM      1  C   UNL     1       6.585  -4.357  22.812  0.00  0.00    +0.099 C 
ATOM      2  C   UNL     1       7.140  -2.964  23.133  0.00  0.00    +0.131 C 
ATOM      3  N   UNL     1       8.098  -3.144  24.268  0.00  0.00    -0.163 NA
ATOM      4  C   UNL     1       8.234  -4.612  24.531  0.00  0.00    +0.169 C 
ATOM      5  C   UNL     1       7.739  -5.259  23.228  0.00  0.00    +0.052 C 
ENDROOT
BRANCH   4   6
ATOM      6  C   UNL     1       7.506  -5.178  25.750  0.00  0.00    +0.254 C 
ATOM      7  N   UNL     1       8.339  -5.668  26.736  0.00  0.00    -0.196 N 
ATOM      8  H   UNL     1       9.292  -5.355  26.861  0.00  0.00    +0.182 HD
ATOM      9  O   UNL     1       6.282  -5.223  25.858  0.00  0.00    -0.272 OA
BRANCH   7  10
ATOM     10  O   UNL     1       7.680  -6.069  27.926  0.00  0.00    -0.295 OA
ATOM     11  H   UNL     1       7.249  -6.910  27.657  0.00  0.00    +0.241 HD
ENDBRANCH   7  10
ENDBRANCH   4   6
BRANCH   3  12
ATOM     12  S   UNL     1       7.945  -2.001  25.503  0.00  0.00    +0.062 S 
ATOM     13  O   UNL     1       8.714  -2.469  26.638  0.00  0.00    -0.153 OA
ATOM     14  O   UNL     1       6.543  -1.676  25.632  0.00  0.00    -0.153 OA
BRANCH  12  15
ATOM     15  C   UNL     1       8.735  -0.531  24.897  0.00  0.00    +0.106 A 
ATOM     16  C   UNL     1       7.992   0.655  24.858  0.00  0.00    +0.032 A 
ATOM     17  C   UNL     1       8.599   1.844  24.437  0.00  0.00    +0.047 A 
ATOM     18  C   UNL     1       9.949   1.851  24.087  0.00  0.00    +0.120 A 
ATOM     19  C   UNL     1      10.684   0.666  24.134  0.00  0.00    +0.047 A 
ATOM     20  C   UNL     1      10.073  -0.534  24.497  0.00  0.00    +0.032 A 
BRANCH  18  21
ATOM     21  O   UNL     1      10.668   2.963  23.749  0.00  0.00    -0.495 OA
ATOM     22  C   UNL     1       9.950   4.190  23.780  0.00  0.00    +0.277 C 
ENDBRANCH  18  21
ENDBRANCH  12  15
ENDBRANCH   3  12
BRANCH   1  23
ATOM     23  N   UNL     1       6.184  -4.479  21.404  0.00  0.00    -0.197 NA
ATOM     24  H   UNL     1       5.519  -3.725  21.211  0.00  0.00    +0.154 HD
BRANCH  23  26
ATOM     25  C   UNL     1       4.561  -5.724  22.550  0.00  0.00    +0.221 C 
ATOM     26  O   UNL     1       5.319  -5.653  21.343  0.00  0.00    -0.303 OA
ENDBRANCH  23  26
ENDBRANCH   1  23
TORSDOF 7
ENDMDL
MODEL 3
REMARK VINA RESULT:      -6.4      2.224      3.545
REMARK  Name = 
REMARK  9 active torsions:
REMARK  status: ('A' for Active; 'I' for Inactive)
REMARK    1  A    between atoms: C_1  and  O_2
REMARK    2  A    between atoms: O_2  and  N_3
REMARK    3  A    between atoms: N_3  and  C_4
REMARK    4  A    between atoms: C_7  and  C_22
REMARK    5  A    between atoms: N_9  and  S_11
REMARK    6  A    between atoms: S_11  and  C_14
REMARK    7  A    between atoms: C_17  and  O_18
REMARK    8  A    between atoms: O_18  and  C_19
REMARK    9  A    between atoms: N_24  and  O_25
REMARK                            x       y       z     vdW  Elec       q    Type
REMARK                         _______ _______ _______ _____ _____    ______ ____
ROOT
ATOM      1  C   UNL     1       5.623  -4.252  23.544  0.00  0.00    +0.099 C 
ATOM      2  C   UNL     1       6.304  -2.906  23.269  0.00  0.00    +0.131 C 
ATOM      3  N   UNL     1       7.773  -3.186  23.192  0.00  0.00    -0.163 NA
ATOM      4  C   UNL     1       7.966  -4.669  23.269  0.00  0.00    +0.169 C 
ATOM      5  C   UNL     1       6.587  -5.232  22.891  0.00  0.00    +0.052 C 
ENDROOT
BRANCH   4   6
ATOM      6  C   UNL     1       8.462  -5.245  24.595  0.00  0.00    +0.254 C 
ATOM      7  N   UNL     1       7.531  -5.214  25.614  0.00  0.00    -0.196 N 
ATOM      8  H   UNL     1       6.533  -5.198  25.452  0.00  0.00    +0.182 HD
ATOM      9  O   UNL     1       9.596  -5.686  24.770  0.00  0.00    -0.272 OA
BRANCH   7  10
ATOM     10  O   UNL     1       7.932  -5.869  26.806  0.00  0.00    -0.295 OA
ATOM     11  H   UNL     1       8.853  -6.144  26.598  0.00  0.00    +0.241 HD
ENDBRANCH   7  10
ENDBRANCH   4   6
BRANCH   3  12
ATOM     12  S   UNL     1       8.741  -2.090  24.038  0.00  0.00    +0.062 S 
ATOM     13  O   UNL     1      10.124  -2.402  23.745  0.00  0.00    -0.153 OA
ATOM     14  O   UNL     1       8.258  -2.034  25.399  0.00  0.00    -0.153 OA
BRANCH  12  15
ATOM     15  C   UNL     1       8.396  -0.498  23.329  0.00  0.00    +0.106 A 
ATOM     16  C   UNL     1       9.003  -0.168  22.112  0.00  0.00    +0.032 A 
ATOM     17  C   UNL     1       8.712   1.056  21.498  0.00  0.00    +0.047 A 
ATOM     18  C   UNL     1       7.794   1.928  22.084  0.00  0.00    +0.120 A 
ATOM     19  C   UNL     1       7.189   1.589  23.294  0.00  0.00    +0.047 A 
ATOM     20  C   UNL     1       7.518   0.398  23.942  0.00  0.00    +0.032 A 
BRANCH  18  21
ATOM     21  O   UNL     1       7.365   3.104  21.534  0.00  0.00    -0.495 OA
ATOM     22  C   UNL     1       7.037   4.131  22.462  0.00  0.00    +0.277 C 
ENDBRANCH  18  21
ENDBRANCH  12  15
ENDBRANCH   3  12
BRANCH   1  23
ATOM     23  N   UNL     1       4.252  -4.292  23.017  0.00  0.00    -0.197 NA
ATOM     24  H   UNL     1       3.617  -4.177  23.812  0.00  0.00    +0.154 HD
BRANCH  23  26
ATOM     25  C   UNL     1       2.692  -6.043  23.058  0.00  0.00    +0.221 C 
ATOM     26  O   UNL     1       4.013  -5.685  22.652  0.00  0.00    -0.303 OA
ENDBRANCH  23  26
ENDBRANCH   1  23
TORSDOF 7
ENDMDL
MODEL 4
REMARK VINA RESULT:      -6.3      2.170      4.008
REMARK  Name = 
REMARK  9 active torsions:
REMARK  status: ('A' for Active; 'I' for Inactive)
REMARK    1  A    between atoms: C_1  and  O_2
REMARK    2  A    between atoms: O_2  and  N_3
REMARK    3  A    between atoms: N_3  and  C_4
REMARK    4  A    between atoms: C_7  and  C_22
REMARK    5  A    between atoms: N_9  and  S_11
REMARK    6  A    between atoms: S_11  and  C_14
REMARK    7  A    between atoms: C_17  and  O_18
REMARK    8  A    between atoms: O_18  and  C_19
REMARK    9  A    between atoms: N_24  and  O_25
REMARK                            x       y       z     vdW  Elec       q    Type
REMARK                         _______ _______ _______ _____ _____    ______ ____
ROOT
ATOM      1  C   UNL     1       5.230  -4.283  23.896  0.00  0.00    +0.099 C 
ATOM      2  C   UNL     1       6.148  -3.073  24.108  0.00  0.00    +0.131 C 
ATOM      3  N   UNL     1       7.317  -3.567  24.901  0.00  0.00    -0.163 NA
ATOM      4  C   UNL     1       7.190  -5.053  25.038  0.00  0.00    +0.169 C 
ATOM      5  C   UNL     1       6.222  -5.437  23.908  0.00  0.00    +0.052 C 
ENDROOT
BRANCH   4   6
ATOM      6  C   UNL     1       6.720  -5.596  26.387  0.00  0.00    +0.254 C 
ATOM      7  N   UNL     1       7.738  -6.014  27.220  0.00  0.00    -0.196 N 
ATOM      8  H   UNL     1       8.684  -5.660  27.159  0.00  0.00    +0.182 HD
ATOM      9  O   UNL     1       5.539  -5.684  26.718  0.00  0.00    -0.272 OA
BRANCH   7  10
ATOM     10  O   UNL     1       7.324  -6.390  28.523  0.00  0.00    -0.295 OA
ATOM     11  H   UNL     1       6.647  -5.710  28.735  0.00  0.00    +0.241 HD
ENDBRANCH   7  10
ENDBRANCH   4   6
BRANCH   3  12
ATOM     12  S   UNL     1       7.771  -2.563  26.182  0.00  0.00    +0.062 S 
ATOM     13  O   UNL     1       8.773  -3.263  26.960  0.00  0.00    -0.153 OA
ATOM     14  O   UNL     1       6.563  -2.059  26.796  0.00  0.00    -0.153 OA
BRANCH  12  15
ATOM     15  C   UNL     1       8.563  -1.161  25.435  0.00  0.00    +0.106 A 
ATOM     16  C   UNL     1       8.087   0.117  25.750  0.00  0.00    +0.032 A 
ATOM     17  C   UNL     1       8.721   1.248  25.222  0.00  0.00    +0.047 A 
ATOM     18  C   UNL     1       9.845   1.099  24.409  0.00  0.00    +0.120 A 
ATOM     19  C   UNL     1      10.318  -0.178  24.105  0.00  0.00    +0.047 A 
ATOM     20  C   UNL     1       9.657  -1.310  24.580  0.00  0.00    +0.032 A 
BRANCH  18  21
ATOM     21  O   UNL     1      10.598   2.126  23.913  0.00  0.00    -0.495 OA
ATOM     22  C   UNL     1       9.868   3.264  23.472  0.00  0.00    +0.277 C 
ENDBRANCH  18  21
ENDBRANCH  12  15
ENDBRANCH   3  12
BRANCH   1  23
ATOM     23  N   UNL     1       4.438  -4.163  22.664  0.00  0.00    -0.197 NA
ATOM     24  H   UNL     1       3.735  -3.436  22.824  0.00  0.00    +0.154 HD
BRANCH  23  26
ATOM     25  C   UNL     1       2.448  -5.151  23.413  0.00  0.00    +0.221 C 
ATOM     26  O   UNL     1       3.609  -5.364  22.612  0.00  0.00    -0.303 OA
ENDBRANCH  23  26
ENDBRANCH   1  23
TORSDOF 7
ENDMDL
MODEL 5
REMARK VINA RESULT:      -6.3      2.463      4.320
REMARK  Name = 
REMARK  9 active torsions:
REMARK  status: ('A' for Active; 'I' for Inactive)
REMARK    1  A    between atoms: C_1  and  O_2
REMARK    2  A    between atoms: O_2  and  N_3
REMARK    3  A    between atoms: N_3  and  C_4
REMARK    4  A    between atoms: C_7  and  C_22
REMARK    5  A    between atoms: N_9  and  S_11
REMARK    6  A    between atoms: S_11  and  C_14
REMARK    7  A    between atoms: C_17  and  O_18
REMARK    8  A    between atoms: O_18  and  C_19
REMARK    9  A    between atoms: N_24  and  O_25
REMARK                            x       y       z     vdW  Elec       q    Type
REMARK                         _______ _______ _______ _____ _____    ______ ____
ROOT
ATOM      1  C   UNL     1       4.699  -4.626  24.127  0.00  0.00    +0.099 C 
ATOM      2  C   UNL     1       5.947  -3.749  23.968  0.00  0.00    +0.131 C 
ATOM      3  N   UNL     1       6.995  -4.346  24.855  0.00  0.00    -0.163 NA
ATOM      4  C   UNL     1       6.453  -5.624  25.418  0.00  0.00    +0.169 C 
ATOM      5  C   UNL     1       5.306  -5.982  24.460  0.00  0.00    +0.052 C 
ENDROOT
BRANCH   4   6
ATOM      6  C   UNL     1       5.983  -5.607  26.872  0.00  0.00    +0.254 C 
ATOM      7  N   UNL     1       6.922  -6.053  27.781  0.00  0.00    -0.196 N 
ATOM      8  H   UNL     1       7.919  -6.021  27.607  0.00  0.00    +0.182 HD
ATOM      9  O   UNL     1       4.861  -5.251  27.227  0.00  0.00    -0.272 OA
BRANCH   7  10
ATOM     10  O   UNL     1       6.548  -5.913  29.141  0.00  0.00    -0.295 OA
ATOM     11  H   UNL     1       6.809  -4.985  29.339  0.00  0.00    +0.241 HD
ENDBRANCH   7  10
ENDBRANCH   4   6
BRANCH   3  12
ATOM     12  S   UNL     1       7.849  -3.223  25.785  0.00  0.00    +0.062 S 
ATOM     13  O   UNL     1       8.946  -3.920  26.423  0.00  0.00    -0.153 OA
ATOM     14  O   UNL     1       6.888  -2.470  26.558  0.00  0.00    -0.153 OA
BRANCH  12  15
ATOM     15  C   UNL     1       8.552  -2.076  24.626  0.00  0.00    +0.106 A 
ATOM     16  C   UNL     1       9.661  -2.486  23.876  0.00  0.00    +0.032 A 
ATOM     17  C   UNL     1      10.208  -1.628  22.914  0.00  0.00    +0.047 A 
ATOM     18  C   UNL     1       9.628  -0.380  22.685  0.00  0.00    +0.120 A 
ATOM     19  C   UNL     1       8.520   0.019  23.433  0.00  0.00    +0.047 A 
ATOM     20  C   UNL     1       8.005  -0.807  24.432  0.00  0.00    +0.032 A 
BRANCH  18  21
ATOM     21  O   UNL     1      10.017   0.502  21.716  0.00  0.00    -0.495 OA
ATOM     22  C   UNL     1      10.145   1.855  22.133  0.00  0.00    +0.277 C 
ENDBRANCH  18  21
ENDBRANCH  12  15
ENDBRANCH   3  12
BRANCH   1  23
ATOM     23  N   UNL     1       3.857  -4.607  22.922  0.00  0.00    -0.197 NA
ATOM     24  H   UNL     1       3.004  -4.090  23.156  0.00  0.00    +0.154 HD
BRANCH  23  26
ATOM     25  C   UNL     1       1.929  -5.942  22.958  0.00  0.00    +0.221 C 
ATOM     26  O   UNL     1       3.345  -5.967  22.780  0.00  0.00    -0.303 OA
ENDBRANCH  23  26
ENDBRANCH   1  23
TORSDOF 7
ENDMDL
MODEL 6
REMARK VINA RESULT:      -6.3      2.325      2.990
REMARK  Name = 
REMARK  9 active torsions:
REMARK  status: ('A' for Active; 'I' for Inactive)
REMARK    1  A    between atoms: C_1  and  O_2
REMARK    2  A    between atoms: O_2  and  N_3
REMARK    3  A    between atoms: N_3  and  C_4
REMARK    4  A    between atoms: C_7  and  C_22
REMARK    5  A    between atoms: N_9  and  S_11
REMARK    6  A    between atoms: S_11  and  C_14
REMARK    7  A    between atoms: C_17  and  O_18
REMARK    8  A    between atoms: O_18  and  C_19
REMARK    9  A    between atoms: N_24  and  O_25
REMARK                            x       y       z     vdW  Elec       q    Type
REMARK                         _______ _______ _______ _____ _____    ______ ____
ROOT
ATOM      1  C   UNL     1       8.331  -4.146  25.782  0.00  0.00    +0.099 C 
ATOM      2  C   UNL     1       9.417  -3.762  24.769  0.00  0.00    +0.131 C 
ATOM      3  N   UNL     1       9.324  -2.278  24.596  0.00  0.00    -0.163 NA
ATOM      4  C   UNL     1       8.319  -1.759  25.578  0.00  0.00    +0.169 C 
ATOM      5  C   UNL     1       8.224  -2.882  26.623  0.00  0.00    +0.052 C 
ENDROOT
BRANCH   4   6
ATOM      6  C   UNL     1       6.941  -1.378  25.038  0.00  0.00    +0.254 C 
ATOM      7  N   UNL     1       6.781  -0.030  24.785  0.00  0.00    -0.196 N 
ATOM      8  H   UNL     1       7.554   0.591  24.583  0.00  0.00    +0.182 HD
ATOM      9  O   UNL     1       6.029  -2.182  24.856  0.00  0.00    -0.272 OA
BRANCH   7  10
ATOM     10  O   UNL     1       5.558   0.315  24.156  0.00  0.00    -0.295 OA
ATOM     11  H   UNL     1       5.694  -0.005  23.236  0.00  0.00    +0.241 HD
ENDBRANCH   7  10
ENDBRANCH   4   6
BRANCH   3  12
ATOM     12  S   UNL     1       9.394  -1.754  22.991  0.00  0.00    +0.062 S 
ATOM     13  O   UNL     1       8.064  -1.866  22.430  0.00  0.00    -0.153 OA
ATOM     14  O   UNL     1      10.527  -2.397  22.367  0.00  0.00    -0.153 OA
BRANCH  12  15
ATOM     15  C   UNL     1       9.792  -0.025  23.068  0.00  0.00    +0.106 A 
ATOM     16  C   UNL     1       9.170   0.841  22.161  0.00  0.00    +0.032 A 
ATOM     17  C   UNL     1       9.420   2.217  22.227  0.00  0.00    +0.047 A 
ATOM     18  C   UNL     1      10.262   2.725  23.217  0.00  0.00    +0.120 A 
ATOM     19  C   UNL     1      10.873   1.856  24.121  0.00  0.00    +0.047 A 
ATOM     20  C   UNL     1      10.676   0.478  24.025  0.00  0.00    +0.032 A 
BRANCH  18  21
ATOM     21  O   UNL     1      10.507   4.051  23.436  0.00  0.00    -0.495 OA
ATOM     22  C   UNL     1      11.872   4.444  23.351  0.00  0.00    +0.277 C 
ENDBRANCH  18  21
ENDBRANCH  12  15
ENDBRANCH   3  12
BRANCH   1  23
ATOM     23  N   UNL     1       8.685  -5.359  26.534  0.00  0.00    -0.197 NA
ATOM     24  H   UNL     1       8.622  -6.148  25.884  0.00  0.00    +0.154 HD
BRANCH  23  26
ATOM     25  C   UNL     1       6.375  -5.752  26.621  0.00  0.00    +0.221 C 
ATOM     26  O   UNL     1       7.552  -5.616  27.417  0.00  0.00    -0.303 OA
ENDBRANCH  23  26
ENDBRANCH   1  23
TORSDOF 7
ENDMDL
MODEL 7
REMARK VINA RESULT:      -6.1      2.796      6.649
REMARK  Name = 
REMARK  9 active torsions:
REMARK  status: ('A' for Active; 'I' for Inactive)
REMARK    1  A    between atoms: C_1  and  O_2
REMARK    2  A    between atoms: O_2  and  N_3
REMARK    3  A    between atoms: N_3  and  C_4
REMARK    4  A    between atoms: C_7  and  C_22
REMARK    5  A    between atoms: N_9  and  S_11
REMARK    6  A    between atoms: S_11  and  C_14
REMARK    7  A    between atoms: C_17  and  O_18
REMARK    8  A    between atoms: O_18  and  C_19
REMARK    9  A    between atoms: N_24  and  O_25
REMARK                            x       y       z     vdW  Elec       q    Type
REMARK                         _______ _______ _______ _____ _____    ______ ____
ROOT
ATOM      1  C   UNL     1       6.542  -0.738  24.039  0.00  0.00    +0.099 C 
ATOM      2  C   UNL     1       6.244  -2.214  24.332  0.00  0.00    +0.131 C 
ATOM      3  N   UNL     1       7.572  -2.884  24.504  0.00  0.00    -0.163 NA
ATOM      4  C   UNL     1       8.632  -1.828  24.466  0.00  0.00    +0.169 C 
ATOM      5  C   UNL     1       7.862  -0.533  24.768  0.00  0.00    +0.052 C 
ENDROOT
BRANCH   4   6
ATOM      6  C   UNL     1       9.454  -1.704  23.183  0.00  0.00    +0.254 C 
ATOM      7  N   UNL     1       8.757  -1.196  22.105  0.00  0.00    -0.196 N 
ATOM      8  H   UNL     1       7.944  -0.602  22.202  0.00  0.00    +0.182 HD
ATOM      9  O   UNL     1      10.633  -2.041  23.088  0.00  0.00    -0.272 OA
BRANCH   7  10
ATOM     10  O   UNL     1       9.543  -0.949  20.952  0.00  0.00    -0.295 OA
ATOM     11  H   UNL     1       9.438   0.021  20.827  0.00  0.00    +0.241 HD
ENDBRANCH   7  10
ENDBRANCH   4   6
BRANCH   3  12
ATOM     12  S   UNL     1       7.720  -4.363  23.700  0.00  0.00    +0.062 S 
ATOM     13  O   UNL     1       8.968  -4.969  24.115  0.00  0.00    -0.153 OA
ATOM     14  O   UNL     1       7.424  -4.137  22.304  0.00  0.00    -0.153 OA
BRANCH  12  15
ATOM     15  C   UNL     1       6.405  -5.381  24.322  0.00  0.00    +0.106 A 
ATOM     16  C   UNL     1       6.309  -5.572  25.705  0.00  0.00    +0.032 A 
ATOM     17  C   UNL     1       5.254  -6.324  26.235  0.00  0.00    +0.047 A 
ATOM     18  C   UNL     1       4.284  -6.856  25.385  0.00  0.00    +0.120 A 
ATOM     19  C   UNL     1       4.383  -6.656  24.007  0.00  0.00    +0.047 A 
ATOM     20  C   UNL     1       5.462  -5.957  23.468  0.00  0.00    +0.032 A 
BRANCH  18  21
ATOM     21  O   UNL     1       3.165  -7.526  25.792  0.00  0.00    -0.495 OA
ATOM     22  C   UNL     1       2.328  -8.013  24.749  0.00  0.00    +0.277 C 
ENDBRANCH  18  21
ENDBRANCH  12  15
ENDBRANCH   3  12
BRANCH   1  23
ATOM     23  N   UNL     1       5.450   0.141  24.482  0.00  0.00    -0.197 NA
ATOM     24  H   UNL     1       5.874   0.912  25.005  0.00  0.00    +0.154 HD
BRANCH  23  26
ATOM     25  C   UNL     1       4.606   0.277  26.665  0.00  0.00    +0.221 C 
ATOM     26  O   UNL     1       4.764  -0.591  25.543  0.00  0.00    -0.303 OA
ENDBRANCH  23  26
ENDBRANCH   1  23
TORSDOF 7
ENDMDL
MODEL 8
REMARK VINA RESULT:      -6.1      3.064      5.369
REMARK  Name = 
REMARK  9 active torsions:
REMARK  status: ('A' for Active; 'I' for Inactive)
REMARK    1  A    between atoms: C_1  and  O_2
REMARK    2  A    between atoms: O_2  and  N_3
REMARK    3  A    between atoms: N_3  and  C_4
REMARK    4  A    between atoms: C_7  and  C_22
REMARK    5  A    between atoms: N_9  and  S_11
REMARK    6  A    between atoms: S_11  and  C_14
REMARK    7  A    between atoms: C_17  and  O_18
REMARK    8  A    between atoms: O_18  and  C_19
REMARK    9  A    between atoms: N_24  and  O_25
REMARK                            x       y       z     vdW  Elec       q    Type
REMARK                         _______ _______ _______ _____ _____    ______ ____
ROOT
ATOM      1  C   UNL     1       3.672  -5.344  24.547  0.00  0.00    +0.099 C 
ATOM      2  C   UNL     1       5.059  -4.697  24.653  0.00  0.00    +0.131 C 
ATOM      3  N   UNL     1       5.848  -5.550  25.596  0.00  0.00    -0.163 NA
ATOM      4  C   UNL     1       5.023  -6.752  25.936  0.00  0.00    +0.169 C 
ATOM      5  C   UNL     1       3.988  -6.811  24.802  0.00  0.00    +0.052 C 
ENDROOT
BRANCH   4   6
ATOM      6  C   UNL     1       4.352  -6.779  27.309  0.00  0.00    +0.254 C 
ATOM      7  N   UNL     1       5.092  -7.403  28.293  0.00  0.00    -0.196 N 
ATOM      8  H   UNL     1       6.100  -7.485  28.260  0.00  0.00    +0.182 HD
ATOM      9  O   UNL     1       3.239  -6.310  27.538  0.00  0.00    -0.272 OA
BRANCH   7  10
ATOM     10  O   UNL     1       4.543  -7.313  29.597  0.00  0.00    -0.295 OA
ATOM     11  H   UNL     1       4.878  -6.442  29.909  0.00  0.00    +0.241 HD
ENDBRANCH   7  10
ENDBRANCH   4   6
BRANCH   3  12
ATOM     12  S   UNL     1       6.731  -4.686  26.750  0.00  0.00    +0.062 S 
ATOM     13  O   UNL     1       7.625  -5.615  27.409  0.00  0.00    -0.153 OA
ATOM     14  O   UNL     1       5.798  -3.880  27.504  0.00  0.00    -0.153 OA
BRANCH  12  15
ATOM     15  C   UNL     1       7.735  -3.546  25.832  0.00  0.00    +0.106 A 
ATOM     16  C   UNL     1       7.628  -2.181  26.126  0.00  0.00    +0.032 A 
ATOM     17  C   UNL     1       8.443  -1.258  25.459  0.00  0.00    +0.047 A 
ATOM     18  C   UNL     1       9.380  -1.704  24.527  0.00  0.00    +0.120 A 
ATOM     19  C   UNL     1       9.484  -3.066  24.243  0.00  0.00    +0.047 A 
ATOM     20  C   UNL     1       8.636  -3.985  24.860  0.00  0.00    +0.032 A 
BRANCH  18  21
ATOM     21  O   UNL     1      10.288  -0.910  23.883  0.00  0.00    -0.495 OA
ATOM     22  C   UNL     1      10.381  -1.101  22.477  0.00  0.00    +0.277 C 
ENDBRANCH  18  21
ENDBRANCH  12  15
ENDBRANCH   3  12
BRANCH   1  23
ATOM     23  N   UNL     1       3.033  -5.066  23.253  0.00  0.00    -0.197 NA
ATOM     24  H   UNL     1       3.176  -4.073  23.050  0.00  0.00    +0.154 HD
BRANCH  23  26
ATOM     25  C   UNL     1       0.997  -6.029  22.598  0.00  0.00    +0.221 C 
ATOM     26  O   UNL     1       1.596  -5.107  23.509  0.00  0.00    -0.303 OA
ENDBRANCH  23  26
ENDBRANCH   1  23
TORSDOF 7
ENDMDL
MODEL 9
REMARK VINA RESULT:      -6.0      2.909      6.573
REMARK  Name = 
REMARK  9 active torsions:
REMARK  status: ('A' for Active; 'I' for Inactive)
REMARK    1  A    between atoms: C_1  and  O_2
REMARK    2  A    between atoms: O_2  and  N_3
REMARK    3  A    between atoms: N_3  and  C_4
REMARK    4  A    between atoms: C_7  and  C_22
REMARK    5  A    between atoms: N_9  and  S_11
REMARK    6  A    between atoms: S_11  and  C_14
REMARK    7  A    between atoms: C_17  and  O_18
REMARK    8  A    between atoms: O_18  and  C_19
REMARK    9  A    between atoms: N_24  and  O_25
REMARK                            x       y       z     vdW  Elec       q    Type
REMARK                         _______ _______ _______ _____ _____    ______ ____
ROOT
ATOM      1  C   UNL     1       5.773   1.393  24.140  0.00  0.00    +0.099 C 
ATOM      2  C   UNL     1       6.310  -0.007  24.460  0.00  0.00    +0.131 C 
ATOM      3  N   UNL     1       7.803   0.109  24.476  0.00  0.00    -0.163 NA
ATOM      4  C   UNL     1       8.157   1.556  24.319  0.00  0.00    +0.169 C 
ATOM      5  C   UNL     1       6.864   2.288  24.712  0.00  0.00    +0.052 C 
ENDROOT
BRANCH   4   6
ATOM      6  C   UNL     1       8.664   2.010  22.951  0.00  0.00    +0.254 C 
ATOM      7  N   UNL     1      10.037   2.119  22.859  0.00  0.00    -0.196 N 
ATOM      8  H   UNL     1      10.675   1.599  23.448  0.00  0.00    +0.182 HD
ATOM      9  O   UNL     1       7.930   2.282  22.003  0.00  0.00    -0.272 OA
BRANCH   7  10
ATOM     10  O   UNL     1      10.525   2.406  21.559  0.00  0.00    -0.295 OA
ATOM     11  H   UNL     1      10.764   1.514  21.220  0.00  0.00    +0.241 HD
ENDBRANCH   7  10
ENDBRANCH   4   6
BRANCH   3  12
ATOM     12  S   UNL     1       8.611  -1.128  23.656  0.00  0.00    +0.062 S 
ATOM     13  O   UNL     1      10.032  -0.935  23.854  0.00  0.00    -0.153 OA
ATOM     14  O   UNL     1       8.045  -1.220  22.329  0.00  0.00    -0.153 OA
BRANCH  12  15
ATOM     15  C   UNL     1       8.159  -2.630  24.488  0.00  0.00    +0.106 A 
ATOM     16  C   UNL     1       8.509  -2.774  25.835  0.00  0.00    +0.032 A 
ATOM     17  C   UNL     1       8.123  -3.922  26.537  0.00  0.00    +0.047 A 
ATOM     18  C   UNL     1       7.363  -4.905  25.900  0.00  0.00    +0.120 A 
ATOM     19  C   UNL     1       7.014  -4.751  24.558  0.00  0.00    +0.047 A 
ATOM     20  C   UNL     1       7.444  -3.637  23.837  0.00  0.00    +0.032 A 
BRANCH  18  21
ATOM     21  O   UNL     1       6.853  -6.019  26.505  0.00  0.00    -0.495 OA
ATOM     22  C   UNL     1       5.463  -6.242  26.307  0.00  0.00    +0.277 C 
ENDBRANCH  18  21
ENDBRANCH  12  15
ENDBRANCH   3  12
BRANCH   1  23
ATOM     23  N   UNL     1       4.435   1.612  24.707  0.00  0.00    -0.197 NA
ATOM     24  H   UNL     1       4.460   2.505  25.207  0.00  0.00    +0.154 HD
BRANCH  23  26
ATOM     25  C   UNL     1       3.817   1.354  26.955  0.00  0.00    +0.221 C 
ATOM     26  O   UNL     1       4.318   0.663  25.811  0.00  0.00    -0.303 OA
ENDBRANCH  23  26
ENDBRANCH   1  23
TORSDOF 7
ENDMDL
