MODEL 1
REMARK VINA RESULT:      -4.9      0.000      0.000
REMARK  Name = 
REMARK  11 active torsions:
REMARK  status: ('A' for Active; 'I' for Inactive)
REMARK    1  A    between atoms: O_1  and  C_2
REMARK    2  A    between atoms: C_2  and  C_3
REMARK    3  A    between atoms: C_3  and  C_5
REMARK    4  A    between atoms: C_5  and  O_7
REMARK    5  A    between atoms: C_5  and  C_8
REMARK    6  A    between atoms: C_8  and  O_10
REMARK    7  A    between atoms: C_8  and  C_11
REMARK    8  A    between atoms: C_11  and  O_12
REMARK    9  A    between atoms: O_12  and  P_13
REMARK   10  A    between atoms: P_13  and  O_14
REMARK   11  A    between atoms: P_13  and  O_15
REMARK                            x       y       z     vdW  Elec       q    Type
REMARK                         _______ _______ _______ _____ _____    ______ ____
ROOT
ATOM      1  C   UNL     1      10.155  -1.558  22.929  0.00  0.00    +0.176 C 
ENDROOT
BRANCH   1   2
ATOM      2  O   UNL     1       9.760  -1.211  21.592  0.00  0.00    -0.386 OA
ATOM      3  H   UNL     1      10.583  -0.958  21.131  0.00  0.00    +0.210 HD
ENDBRANCH   1   2
BRANCH   1   4
ATOM      4  C   UNL     1      10.107  -0.322  23.844  0.00  0.00    +0.213 C 
BRANCH   4   5
ATOM      5  C   UNL     1       9.130   0.721  23.286  0.00  0.00    +0.189 C 
ATOM      6  O   UNL     1       7.924   0.490  23.193  0.00  0.00    -0.292 OA
BRANCH   5   7
ATOM      7  C   UNL     1       9.732   2.042  22.819  0.00  0.00    +0.232 C 
BRANCH   7   8
ATOM      8  O   UNL     1      10.097   2.000  21.450  0.00  0.00    -0.387 OA
ATOM      9  H   UNL     1      11.047   1.793  21.414  0.00  0.00    +0.210 HD
ENDBRANCH   7   8
ENDBRANCH   5   7
ENDBRANCH   4   5
BRANCH   4  10
ATOM     10  O   UNL     1       9.770  -0.734  25.167  0.00  0.00    -0.382 OA
ATOM     11  H   UNL     1       8.956  -1.265  25.104  0.00  0.00    +0.210 HD
ENDBRANCH   4  10
ENDBRANCH   1   4
BRANCH   1  12
ATOM     12  C   UNL     1       9.291  -2.724  23.422  0.00  0.00    +0.206 C 
BRANCH  12  13
ATOM     13  O   UNL     1      10.099  -3.591  24.242  0.00  0.00    -0.284 OA
BRANCH  13  14
ATOM     14  P   UNL     1       9.095  -4.573  25.250  0.00  0.00    +0.472 P 
ATOM     15  O   UNL     1       8.194  -5.453  26.153  0.00  0.00    -0.228 OA
BRANCH  14  16
ATOM     16  O   UNL     1      10.434  -5.503  25.370  0.00  0.00    -0.303 OA
ATOM     17  H   UNL     1      10.442  -5.857  26.277  0.00  0.00    +0.222 HD
ENDBRANCH  14  16
BRANCH  14  18
ATOM     18  O   UNL     1       8.608  -5.248  23.837  0.00  0.00    -0.303 OA
ATOM     19  H   UNL     1       9.065  -6.093  23.678  0.00  0.00    +0.222 HD
ENDBRANCH  14  18
ENDBRANCH  13  14
ENDBRANCH  12  13
ENDBRANCH   1  12
TORSDOF 11
ENDMDL
MODEL 2
REMARK VINA RESULT:      -4.8      1.219      1.659
REMARK  Name = 
REMARK  11 active torsions:
REMARK  status: ('A' for Active; 'I' for Inactive)
REMARK    1  A    between atoms: O_1  and  C_2
REMARK    2  A    between atoms: C_2  and  C_3
REMARK    3  A    between atoms: C_3  and  C_5
REMARK    4  A    between atoms: C_5  and  O_7
REMARK    5  A    between atoms: C_5  and  C_8
REMARK    6  A    between atoms: C_8  and  O_10
REMARK    7  A    between atoms: C_8  and  C_11
REMARK    8  A    between atoms: C_11  and  O_12
REMARK    9  A    between atoms: O_12  and  P_13
REMARK   10  A    between atoms: P_13  and  O_14
REMARK   11  A    between atoms: P_13  and  O_15
REMARK                            x       y       z     vdW  Elec       q    Type
REMARK                         _______ _______ _______ _____ _____    ______ ____
ROOT
ATOM      1  C   UNL     1       8.330  -2.227  22.727  0.00  0.00    +0.176 C 
ENDROOT
BRANCH   1   2
ATOM      2  O   UNL     1       6.959  -1.846  22.920  0.00  0.00    -0.386 OA
ATOM      3  H   UNL     1       6.894  -0.924  22.604  0.00  0.00    +0.210 HD
ENDBRANCH   1   2
BRANCH   1   4
ATOM      4  C   UNL     1       9.027  -1.262  21.752  0.00  0.00    +0.213 C 
BRANCH   4   5
ATOM      5  C   UNL     1       8.822   0.192  22.198  0.00  0.00    +0.189 C 
ATOM      6  O   UNL     1       7.696   0.678  22.315  0.00  0.00    -0.292 OA
BRANCH   5   7
ATOM      7  C   UNL     1      10.081   1.013  22.453  0.00  0.00    +0.232 C 
BRANCH   7   8
ATOM      8  O   UNL     1      10.166   2.130  21.584  0.00  0.00    -0.387 OA
ATOM      9  H   UNL     1      10.905   2.681  21.898  0.00  0.00    +0.210 HD
ENDBRANCH   7   8
ENDBRANCH   5   7
ENDBRANCH   4   5
BRANCH   4  10
ATOM     10  O   UNL     1      10.406  -1.614  21.653  0.00  0.00    -0.382 OA
ATOM     11  H   UNL     1      10.691  -1.912  22.535  0.00  0.00    +0.210 HD
ENDBRANCH   4  10
ENDBRANCH   1   4
BRANCH   1  12
ATOM     12  C   UNL     1       9.021  -2.330  24.092  0.00  0.00    +0.206 C 
BRANCH  12  13
ATOM     13  O   UNL     1       9.778  -3.556  24.142  0.00  0.00    -0.284 OA
BRANCH  13  14
ATOM     14  P   UNL     1       9.008  -4.695  25.191  0.00  0.00    +0.472 P 
ATOM     15  O   UNL     1       8.317  -5.715  26.130  0.00  0.00    -0.228 OA
BRANCH  14  16
ATOM     16  O   UNL     1      10.492  -5.378  25.242  0.00  0.00    -0.303 OA
ATOM     17  H   UNL     1      10.953  -4.977  26.001  0.00  0.00    +0.222 HD
ENDBRANCH  14  16
BRANCH  14  18
ATOM     18  O   UNL     1       8.579  -5.448  23.799  0.00  0.00    -0.303 OA
ATOM     19  H   UNL     1       8.470  -4.807  23.075  0.00  0.00    +0.222 HD
ENDBRANCH  14  18
ENDBRANCH  13  14
ENDBRANCH  12  13
ENDBRANCH   1  12
TORSDOF 11
ENDMDL
MODEL 3
REMARK VINA RESULT:      -4.8      2.604      5.605
REMARK  Name = 
REMARK  11 active torsions:
REMARK  status: ('A' for Active; 'I' for Inactive)
REMARK    1  A    between atoms: O_1  and  C_2
REMARK    2  A    between atoms: C_2  and  C_3
REMARK    3  A    between atoms: C_3  and  C_5
REMARK    4  A    between atoms: C_5  and  O_7
REMARK    5  A    between atoms: C_5  and  C_8
REMARK    6  A    between atoms: C_8  and  O_10
REMARK    7  A    between atoms: C_8  and  C_11
REMARK    8  A    between atoms: C_11  and  O_12
REMARK    9  A    between atoms: O_12  and  P_13
REMARK   10  A    between atoms: P_13  and  O_14
REMARK   11  A    between atoms: P_13  and  O_15
REMARK                            x       y       z     vdW  Elec       q    Type
REMARK                         _______ _______ _______ _____ _____    ______ ____
ROOT
ATOM      1  C   UNL     1      10.669  -0.072  23.499  0.00  0.00    +0.176 C 
ENDROOT
BRANCH   1   2
ATOM      2  O   UNL     1      10.210  -0.384  24.824  0.00  0.00    -0.386 OA
ATOM      3  H   UNL     1       9.651  -1.179  24.729  0.00  0.00    +0.210 HD
ENDBRANCH   1   2
BRANCH   1   4
ATOM      4  C   UNL     1      10.299  -1.198  22.519  0.00  0.00    +0.213 C 
BRANCH   4   5
ATOM      5  C   UNL     1       9.538  -2.314  23.248  0.00  0.00    +0.189 C 
ATOM      6  O   UNL     1      10.122  -3.148  23.940  0.00  0.00    -0.292 OA
BRANCH   5   7
ATOM      7  C   UNL     1       8.028  -2.359  23.041  0.00  0.00    +0.232 C 
BRANCH   7   8
ATOM      8  O   UNL     1       7.395  -1.185  23.520  0.00  0.00    -0.387 OA
ATOM      9  H   UNL     1       8.088  -0.509  23.623  0.00  0.00    +0.210 HD
ENDBRANCH   7   8
ENDBRANCH   5   7
ENDBRANCH   4   5
BRANCH   4  10
ATOM     10  O   UNL     1       9.556  -0.648  21.434  0.00  0.00    -0.382 OA
ATOM     11  H   UNL     1       8.630  -0.925  21.550  0.00  0.00    +0.210 HD
ENDBRANCH   4  10
ENDBRANCH   1   4
BRANCH   1  12
ATOM     12  C   UNL     1      10.128   1.303  23.090  0.00  0.00    +0.206 C 
BRANCH  12  13
ATOM     13  O   UNL     1       8.780   1.440  23.583  0.00  0.00    -0.284 OA
BRANCH  13  14
ATOM     14  P   UNL     1       7.899   2.570  22.614  0.00  0.00    +0.472 P 
ATOM     15  O   UNL     1       7.110   3.583  21.747  0.00  0.00    -0.228 OA
BRANCH  14  16
ATOM     16  O   UNL     1       7.103   1.236  22.104  0.00  0.00    -0.303 OA
ATOM     17  H   UNL     1       6.406   1.064  22.761  0.00  0.00    +0.222 HD
ENDBRANCH  14  16
BRANCH  14  18
ATOM     18  O   UNL     1       9.135   2.384  21.554  0.00  0.00    -0.303 OA
ATOM     19  H   UNL     1       9.994   2.506  21.994  0.00  0.00    +0.222 HD
ENDBRANCH  14  18
ENDBRANCH  13  14
ENDBRANCH  12  13
ENDBRANCH   1  12
TORSDOF 11
ENDMDL
MODEL 4
REMARK VINA RESULT:      -4.7      2.597      5.320
REMARK  Name = 
REMARK  11 active torsions:
REMARK  status: ('A' for Active; 'I' for Inactive)
REMARK    1  A    between atoms: O_1  and  C_2
REMARK    2  A    between atoms: C_2  and  C_3
REMARK    3  A    between atoms: C_3  and  C_5
REMARK    4  A    between atoms: C_5  and  O_7
REMARK    5  A    between atoms: C_5  and  C_8
REMARK    6  A    between atoms: C_8  and  O_10
REMARK    7  A    between atoms: C_8  and  C_11
REMARK    8  A    between atoms: C_11  and  O_12
REMARK    9  A    between atoms: O_12  and  P_13
REMARK   10  A    between atoms: P_13  and  O_14
REMARK   11  A    between atoms: P_13  and  O_15
REMARK                            x       y       z     vdW  Elec       q    Type
REMARK                         _______ _______ _______ _____ _____    ______ ____
ROOT
ATOM      1  C   UNL     1       9.465  -1.318  21.785  0.00  0.00    +0.176 C 
ENDROOT
BRANCH   1   2
ATOM      2  O   UNL     1      10.761  -1.820  22.150  0.00  0.00    -0.386 OA
ATOM      3  H   UNL     1      10.965  -1.417  23.016  0.00  0.00    +0.210 HD
ENDBRANCH   1   2
BRANCH   1   4
ATOM      4  C   UNL     1       8.391  -1.840  22.753  0.00  0.00    +0.213 C 
BRANCH   4   5
ATOM      5  C   UNL     1       9.044  -2.443  24.005  0.00  0.00    +0.189 C 
ATOM      6  O   UNL     1       9.668  -3.503  23.959  0.00  0.00    -0.292 OA
BRANCH   5   7
ATOM      7  C   UNL     1       8.849  -1.682  25.311  0.00  0.00    +0.232 C 
BRANCH   7   8
ATOM      8  O   UNL     1       9.604  -0.483  25.341  0.00  0.00    -0.387 OA
ATOM      9  H   UNL     1       9.024   0.228  25.015  0.00  0.00    +0.210 HD
ENDBRANCH   7   8
ENDBRANCH   5   7
ENDBRANCH   4   5
BRANCH   4  10
ATOM     10  O   UNL     1       7.488  -0.781  23.064  0.00  0.00    -0.382 OA
ATOM     11  H   UNL     1       7.956  -0.170  23.661  0.00  0.00    +0.210 HD
ENDBRANCH   4  10
ENDBRANCH   1   4
BRANCH   1  12
ATOM     12  C   UNL     1       9.525   0.211  21.696  0.00  0.00    +0.206 C 
BRANCH  12  13
ATOM     13  O   UNL     1      10.330   0.712  22.782  0.00  0.00    -0.284 OA
BRANCH  13  14
ATOM     14  P   UNL     1       9.919   2.356  23.126  0.00  0.00    +0.472 P 
ATOM     15  O   UNL     1       9.552   3.829  23.433  0.00  0.00    -0.228 OA
BRANCH  14  16
ATOM     16  O   UNL     1       8.512   1.707  23.648  0.00  0.00    -0.303 OA
ATOM     17  H   UNL     1       8.753   0.962  24.227  0.00  0.00    +0.222 HD
ENDBRANCH  14  16
BRANCH  14  18
ATOM     18  O   UNL     1       9.452   2.402  21.555  0.00  0.00    -0.303 OA
ATOM     19  H   UNL     1      10.151   2.783  20.994  0.00  0.00    +0.222 HD
ENDBRANCH  14  18
ENDBRANCH  13  14
ENDBRANCH  12  13
ENDBRANCH   1  12
TORSDOF 11
ENDMDL
MODEL 5
REMARK VINA RESULT:      -4.6      2.504      3.546
REMARK  Name = 
REMARK  11 active torsions:
REMARK  status: ('A' for Active; 'I' for Inactive)
REMARK    1  A    between atoms: O_1  and  C_2
REMARK    2  A    between atoms: C_2  and  C_3
REMARK    3  A    between atoms: C_3  and  C_5
REMARK    4  A    between atoms: C_5  and  O_7
REMARK    5  A    between atoms: C_5  and  C_8
REMARK    6  A    between atoms: C_8  and  O_10
REMARK    7  A    between atoms: C_8  and  C_11
REMARK    8  A    between atoms: C_11  and  O_12
REMARK    9  A    between atoms: O_12  and  P_13
REMARK   10  A    between atoms: P_13  and  O_14
REMARK   11  A    between atoms: P_13  and  O_15
REMARK                            x       y       z     vdW  Elec       q    Type
REMARK                         _______ _______ _______ _____ _____    ______ ____
ROOT
ATOM      1  C   UNL     1      10.071   1.591  22.040  0.00  0.00    +0.176 C 
ENDROOT
BRANCH   1   2
ATOM      2  O   UNL     1       8.973   2.410  21.607  0.00  0.00    -0.386 OA
ATOM      3  H   UNL     1       9.363   3.277  21.386  0.00  0.00    +0.210 HD
ENDBRANCH   1   2
BRANCH   1   4
ATOM      4  C   UNL     1      10.403   1.868  23.516  0.00  0.00    +0.213 C 
BRANCH   4   5
ATOM      5  C   UNL     1       9.444   2.918  24.093  0.00  0.00    +0.189 C 
ATOM      6  O   UNL     1       9.596   4.120  23.872  0.00  0.00    -0.292 OA
BRANCH   5   7
ATOM      7  C   UNL     1       8.319   2.401  24.983  0.00  0.00    +0.232 C 
BRANCH   7   8
ATOM      8  O   UNL     1       7.429   1.560  24.271  0.00  0.00    -0.387 OA
ATOM      9  H   UNL     1       7.949   1.113  23.580  0.00  0.00    +0.210 HD
ENDBRANCH   7   8
ENDBRANCH   5   7
ENDBRANCH   4   5
BRANCH   4  10
ATOM     10  O   UNL     1      10.369   0.640  24.241  0.00  0.00    -0.382 OA
ATOM     11  H   UNL     1      11.271   0.474  24.568  0.00  0.00    +0.210 HD
ENDBRANCH   4  10
ENDBRANCH   1   4
BRANCH   1  12
ATOM     12  C   UNL     1       9.750   0.121  21.745  0.00  0.00    +0.206 C 
BRANCH  12  13
ATOM     13  O   UNL     1       8.411  -0.164  22.198  0.00  0.00    -0.284 OA
BRANCH  13  14
ATOM     14  P   UNL     1       8.257  -1.839  22.600  0.00  0.00    +0.472 P 
ATOM     15  O   UNL     1       8.120  -3.340  22.960  0.00  0.00    -0.228 OA
BRANCH  14  16
ATOM     16  O   UNL     1       8.130  -1.275  24.129  0.00  0.00    -0.303 OA
ATOM     17  H   UNL     1       7.709  -0.399  24.064  0.00  0.00    +0.222 HD
ENDBRANCH  14  16
BRANCH  14  18
ATOM     18  O   UNL     1       9.897  -1.826  22.605  0.00  0.00    -0.303 OA
ATOM     19  H   UNL     1      10.251  -2.622  23.038  0.00  0.00    +0.222 HD
ENDBRANCH  14  18
ENDBRANCH  13  14
ENDBRANCH  12  13
ENDBRANCH   1  12
TORSDOF 11
ENDMDL
MODEL 6
REMARK VINA RESULT:      -4.6      2.425      5.634
REMARK  Name = 
REMARK  11 active torsions:
REMARK  status: ('A' for Active; 'I' for Inactive)
REMARK    1  A    between atoms: O_1  and  C_2
REMARK    2  A    between atoms: C_2  and  C_3
REMARK    3  A    between atoms: C_3  and  C_5
REMARK    4  A    between atoms: C_5  and  O_7
REMARK    5  A    between atoms: C_5  and  C_8
REMARK    6  A    between atoms: C_8  and  O_10
REMARK    7  A    between atoms: C_8  and  C_11
REMARK    8  A    between atoms: C_11  and  O_12
REMARK    9  A    between atoms: O_12  and  P_13
REMARK   10  A    between atoms: P_13  and  O_14
REMARK   11  A    between atoms: P_13  and  O_15
REMARK                            x       y       z     vdW  Elec       q    Type
REMARK                         _______ _______ _______ _____ _____    ______ ____
ROOT
ATOM      1  C   UNL     1       8.510  -1.951  22.387  0.00  0.00    +0.176 C 
ENDROOT
BRANCH   1   2
ATOM      2  O   UNL     1       9.624  -1.861  21.484  0.00  0.00    -0.386 OA
ATOM      3  H   UNL     1      10.241  -2.568  21.756  0.00  0.00    +0.210 HD
ENDBRANCH   1   2
BRANCH   1   4
ATOM      4  C   UNL     1       8.901  -2.733  23.652  0.00  0.00    +0.213 C 
BRANCH   4   5
ATOM      5  C   UNL     1       8.249  -4.123  23.646  0.00  0.00    +0.189 C 
ATOM      6  O   UNL     1       7.501  -4.480  22.735  0.00  0.00    -0.292 OA
BRANCH   5   7
ATOM      7  C   UNL     1       8.544  -5.022  24.841  0.00  0.00    +0.232 C 
BRANCH   7   8
ATOM      8  O   UNL     1       9.847  -5.575  24.775  0.00  0.00    -0.387 OA
ATOM      9  H   UNL     1      10.013  -5.806  23.844  0.00  0.00    +0.210 HD
ENDBRANCH   7   8
ENDBRANCH   5   7
ENDBRANCH   4   5
BRANCH   4  10
ATOM     10  O   UNL     1      10.322  -2.797  23.742  0.00  0.00    -0.382 OA
ATOM     11  H   UNL     1      10.557  -2.690  24.681  0.00  0.00    +0.210 HD
ENDBRANCH   4  10
ENDBRANCH   1   4
BRANCH   1  12
ATOM     12  C   UNL     1       7.980  -0.541  22.673  0.00  0.00    +0.206 C 
BRANCH  12  13
ATOM     13  O   UNL     1       8.765   0.413  21.931  0.00  0.00    -0.284 OA
BRANCH  13  14
ATOM     14  P   UNL     1       9.512   1.544  23.006  0.00  0.00    +0.472 P 
ATOM     15  O   UNL     1      10.180   2.555  23.970  0.00  0.00    -0.228 OA
BRANCH  14  16
ATOM     16  O   UNL     1      10.204   2.112  21.638  0.00  0.00    -0.303 OA
ATOM     17  H   UNL     1       9.563   1.956  20.921  0.00  0.00    +0.222 HD
ENDBRANCH  14  16
BRANCH  14  18
ATOM     18  O   UNL     1      10.627   0.361  23.220  0.00  0.00    -0.303 OA
ATOM     19  H   UNL     1      10.389  -0.438  22.718  0.00  0.00    +0.222 HD
ENDBRANCH  14  18
ENDBRANCH  13  14
ENDBRANCH  12  13
ENDBRANCH   1  12
TORSDOF 11
ENDMDL
MODEL 7
REMARK VINA RESULT:      -4.6      2.366      3.086
REMARK  Name = 
REMARK  11 active torsions:
REMARK  status: ('A' for Active; 'I' for Inactive)
REMARK    1  A    between atoms: O_1  and  C_2
REMARK    2  A    between atoms: C_2  and  C_3
REMARK    3  A    between atoms: C_3  and  C_5
REMARK    4  A    between atoms: C_5  and  O_7
REMARK    5  A    between atoms: C_5  and  C_8
REMARK    6  A    between atoms: C_8  and  O_10
REMARK    7  A    between atoms: C_8  and  C_11
REMARK    8  A    between atoms: C_11  and  O_12
REMARK    9  A    between atoms: O_12  and  P_13
REMARK   10  A    between atoms: P_13  and  O_14
REMARK   11  A    between atoms: P_13  and  O_15
REMARK                            x       y       z     vdW  Elec       q    Type
REMARK                         _______ _______ _______ _____ _____    ______ ____
ROOT
ATOM      1  C   UNL     1       9.856  -2.371  23.812  0.00  0.00    +0.176 C 
ENDROOT
BRANCH   1   2
ATOM      2  O   UNL     1      10.501  -1.922  22.609  0.00  0.00    -0.386 OA
ATOM      3  H   UNL     1      11.459  -1.953  22.796  0.00  0.00    +0.210 HD
ENDBRANCH   1   2
BRANCH   1   4
ATOM      4  C   UNL     1       9.435  -1.173  24.680  0.00  0.00    +0.213 C 
BRANCH   4   5
ATOM      5  C   UNL     1       9.884   0.143  24.031  0.00  0.00    +0.189 C 
ATOM      6  O   UNL     1      11.044   0.545  24.125  0.00  0.00    -0.292 OA
BRANCH   5   7
ATOM      7  C   UNL     1       8.815   0.944  23.296  0.00  0.00    +0.232 C 
BRANCH   7   8
ATOM      8  O   UNL     1       8.202   0.185  22.268  0.00  0.00    -0.387 OA
ATOM      9  H   UNL     1       8.913  -0.123  21.678  0.00  0.00    +0.210 HD
ENDBRANCH   7   8
ENDBRANCH   5   7
ENDBRANCH   4   5
BRANCH   4  10
ATOM     10  O   UNL     1       8.026  -1.223  24.894  0.00  0.00    -0.382 OA
ATOM     11  H   UNL     1       7.604  -0.776  24.139  0.00  0.00    +0.210 HD
ENDBRANCH   4  10
ENDBRANCH   1   4
BRANCH   1  12
ATOM     12  C   UNL     1       8.696  -3.303  23.443  0.00  0.00    +0.206 C 
BRANCH  12  13
ATOM     13  O   UNL     1       7.991  -2.749  22.315  0.00  0.00    -0.284 OA
BRANCH  13  14
ATOM     14  P   UNL     1       6.348  -3.288  22.308  0.00  0.00    +0.472 P 
ATOM     15  O   UNL     1       4.877  -3.772  22.303  0.00  0.00    -0.228 OA
BRANCH  14  16
ATOM     16  O   UNL     1       6.028  -1.742  22.730  0.00  0.00    -0.303 OA
ATOM     17  H   UNL     1       5.392  -1.404  22.073  0.00  0.00    +0.222 HD
ENDBRANCH  14  16
BRANCH  14  18
ATOM     18  O   UNL     1       6.665  -3.766  23.844  0.00  0.00    -0.303 OA
ATOM     19  H   UNL     1       6.272  -4.638  24.026  0.00  0.00    +0.222 HD
ENDBRANCH  14  18
ENDBRANCH  13  14
ENDBRANCH  12  13
ENDBRANCH   1  12
TORSDOF 11
ENDMDL
MODEL 8
REMARK VINA RESULT:      -4.5      1.844      2.745
REMARK  Name = 
REMARK  11 active torsions:
REMARK  status: ('A' for Active; 'I' for Inactive)
REMARK    1  A    between atoms: O_1  and  C_2
REMARK    2  A    between atoms: C_2  and  C_3
REMARK    3  A    between atoms: C_3  and  C_5
REMARK    4  A    between atoms: C_5  and  O_7
REMARK    5  A    between atoms: C_5  and  C_8
REMARK    6  A    between atoms: C_8  and  O_10
REMARK    7  A    between atoms: C_8  and  C_11
REMARK    8  A    between atoms: C_11  and  O_12
REMARK    9  A    between atoms: O_12  and  P_13
REMARK   10  A    between atoms: P_13  and  O_14
REMARK   11  A    between atoms: P_13  and  O_15
REMARK                            x       y       z     vdW  Elec       q    Type
REMARK                         _______ _______ _______ _____ _____    ______ ____
ROOT
ATOM      1  C   UNL     1       9.133  -1.951  23.639  0.00  0.00    +0.176 C 
ENDROOT
BRANCH   1   2
ATOM      2  O   UNL     1      10.234  -2.870  23.720  0.00  0.00    -0.386 OA
ATOM      3  H   UNL     1      10.268  -3.160  24.652  0.00  0.00    +0.210 HD
ENDBRANCH   1   2
BRANCH   1   4
ATOM      4  C   UNL     1       9.339  -0.960  22.481  0.00  0.00    +0.213 C 
BRANCH   4   5
ATOM      5  C   UNL     1      10.129   0.266  22.959  0.00  0.00    +0.189 C 
ATOM      6  O   UNL     1      10.809   0.236  23.985  0.00  0.00    -0.292 OA
BRANCH   5   7
ATOM      7  C   UNL     1       9.997   1.533  22.121  0.00  0.00    +0.232 C 
BRANCH   7   8
ATOM      8  O   UNL     1       9.082   1.365  21.053  0.00  0.00    -0.387 OA
ATOM      9  H   UNL     1       9.303   2.033  20.379  0.00  0.00    +0.210 HD
ENDBRANCH   7   8
ENDBRANCH   5   7
ENDBRANCH   4   5
BRANCH   4  10
ATOM     10  O   UNL     1       9.979  -1.633  21.399  0.00  0.00    -0.382 OA
ATOM     11  H   UNL     1       9.395  -1.550  20.624  0.00  0.00    +0.210 HD
ENDBRANCH   4  10
ENDBRANCH   1   4
BRANCH   1  12
ATOM     12  C   UNL     1       7.823  -2.742  23.548  0.00  0.00    +0.206 C 
BRANCH  12  13
ATOM     13  O   UNL     1       7.756  -3.389  22.262  0.00  0.00    -0.284 OA
BRANCH  13  14
ATOM     14  P   UNL     1       6.976  -4.926  22.402  0.00  0.00    +0.472 P 
ATOM     15  O   UNL     1       6.277  -6.303  22.527  0.00  0.00    -0.228 OA
BRANCH  14  16
ATOM     16  O   UNL     1       6.134  -4.188  23.593  0.00  0.00    -0.303 OA
ATOM     17  H   UNL     1       6.010  -4.852  24.294  0.00  0.00    +0.222 HD
ENDBRANCH  14  16
BRANCH  14  18
ATOM     18  O   UNL     1       8.244  -5.304  23.370  0.00  0.00    -0.303 OA
ATOM     19  H   UNL     1       8.583  -4.513  23.824  0.00  0.00    +0.222 HD
ENDBRANCH  14  18
ENDBRANCH  13  14
ENDBRANCH  12  13
ENDBRANCH   1  12
TORSDOF 11
ENDMDL
MODEL 9
REMARK VINA RESULT:      -4.4      3.842      6.530
REMARK  Name = 
REMARK  11 active torsions:
REMARK  status: ('A' for Active; 'I' for Inactive)
REMARK    1  A    between atoms: O_1  and  C_2
REMARK    2  A    between atoms: C_2  and  C_3
REMARK    3  A    between atoms: C_3  and  C_5
REMARK    4  A    between atoms: C_5  and  O_7
REMARK    5  A    between atoms: C_5  and  C_8
REMARK    6  A    between atoms: C_8  and  O_10
REMARK    7  A    between atoms: C_8  and  C_11
REMARK    8  A    between atoms: C_11  and  O_12
REMARK    9  A    between atoms: O_12  and  P_13
REMARK   10  A    between atoms: P_13  and  O_14
REMARK   11  A    between atoms: P_13  and  O_15
REMARK                            x       y       z     vdW  Elec       q    Type
REMARK                         _______ _______ _______ _____ _____    ______ ____
ROOT
ATOM      1  C   UNL     1      10.302   2.139  23.826  0.00  0.00    +0.176 C 
ENDROOT
BRANCH   1   2
ATOM      2  O   UNL     1       9.834   1.387  24.956  0.00  0.00    -0.386 OA
ATOM      3  H   UNL     1      10.182   1.849  25.743  0.00  0.00    +0.210 HD
ENDBRANCH   1   2
BRANCH   1   4
ATOM      4  C   UNL     1      10.116   1.337  22.527  0.00  0.00    +0.213 C 
BRANCH   4   5
ATOM      5  C   UNL     1       9.165   0.155  22.759  0.00  0.00    +0.189 C 
ATOM      6  O   UNL     1       7.967   0.326  22.989  0.00  0.00    -0.292 OA
BRANCH   5   7
ATOM      7  C   UNL     1       9.784  -1.238  22.728  0.00  0.00    +0.232 C 
BRANCH   7   8
ATOM      8  O   UNL     1      10.260  -1.573  21.436  0.00  0.00    -0.387 OA
ATOM      9  H   UNL     1      10.313  -2.544  21.393  0.00  0.00    +0.210 HD
ENDBRANCH   7   8
ENDBRANCH   5   7
ENDBRANCH   4   5
BRANCH   4  10
ATOM     10  O   UNL     1       9.658   2.212  21.498  0.00  0.00    -0.382 OA
ATOM     11  H   UNL     1      10.375   2.288  20.845  0.00  0.00    +0.210 HD
ENDBRANCH   4  10
ENDBRANCH   1   4
BRANCH   1  12
ATOM     12  C   UNL     1       9.610   3.507  23.810  0.00  0.00    +0.206 C 
BRANCH  12  13
ATOM     13  O   UNL     1       8.224   3.334  24.169  0.00  0.00    -0.284 OA
BRANCH  13  14
ATOM     14  P   UNL     1       7.228   4.412  23.254  0.00  0.00    +0.472 P 
ATOM     15  O   UNL     1       6.336   5.378  22.435  0.00  0.00    -0.228 OA
BRANCH  14  16
ATOM     16  O   UNL     1       7.069   3.128  22.254  0.00  0.00    -0.303 OA
ATOM     17  H   UNL     1       6.325   2.602  22.599  0.00  0.00    +0.222 HD
ENDBRANCH  14  16
BRANCH  14  18
ATOM     18  O   UNL     1       8.644   4.904  22.590  0.00  0.00    -0.303 OA
ATOM     19  H   UNL     1       8.877   4.356  21.820  0.00  0.00    +0.222 HD
ENDBRANCH  14  18
ENDBRANCH  13  14
ENDBRANCH  12  13
ENDBRANCH   1  12
TORSDOF 11
ENDMDL
