MODEL 1
REMARK VINA RESULT:      -8.5      0.000      0.000
REMARK  Name = 
REMARK  7 active torsions:
REMARK  status: ('A' for Active; 'I' for Inactive)
REMARK    1  A    between atoms: C_1  and  N_2
REMARK    2  A    between atoms: N_5  and  C_6
REMARK    3  A    between atoms: C_6  and  C_7
REMARK    4  A    between atoms: C_10  and  C_13
REMARK    5  A    between atoms: N_15  and  C_16
REMARK    6  A    between atoms: C_20  and  N_21
REMARK    7  A    between atoms: C_26  and  C_28
REMARK                            x       y       z     vdW  Elec       q    Type
REMARK                         _______ _______ _______ _____ _____    ______ ____
ROOT
ATOM      1  C   UNL     1       6.959  -3.591  22.501  0.00  0.00    +0.035 A 
ATOM      2  C   UNL     1       5.639  -3.573  22.942  0.00  0.00    +0.046 A 
ATOM      3  C   UNL     1       4.838  -4.716  22.921  0.00  0.00    +0.035 A 
ATOM      4  C   UNL     1       5.404  -5.896  22.418  0.00  0.00    +0.023 A 
ATOM      5  C   UNL     1       6.716  -5.917  21.931  0.00  0.00    +0.004 A 
ATOM      6  C   UNL     1       7.498  -4.765  21.981  0.00  0.00    +0.023 A 
ENDROOT
BRANCH   3   7
ATOM      7  N   UNL     1       3.524  -4.725  23.407  0.00  0.00    -0.284 N 
ATOM      8  H   UNL     1       2.805  -4.373  22.793  0.00  0.00    +0.155 HD
ATOM      9  C   UNL     1       3.025  -4.823  24.705  0.00  0.00    +0.220 A 
ATOM     10  N   UNL     1       3.806  -5.219  25.726  0.00  0.00    -0.214 NA
ATOM     11  C   UNL     1       3.299  -5.242  26.974  0.00  0.00    +0.077 A 
ATOM     12  C   UNL     1       1.990  -4.879  27.212  0.00  0.00    +0.048 A 
ATOM     13  C   UNL     1       1.256  -4.501  26.114  0.00  0.00    +0.116 A 
ATOM     14  N   UNL     1       1.745  -4.470  24.863  0.00  0.00    -0.223 NA
BRANCH  11  15
ATOM     15  C   UNL     1       4.238  -5.648  28.035  0.00  0.00    +0.019 A 
ATOM     16  C   UNL     1       4.442  -4.897  29.204  0.00  0.00    +0.013 A 
ATOM     17  C   UNL     1       5.334  -5.331  30.186  0.00  0.00    +0.020 A 
ATOM     18  C   UNL     1       6.023  -6.512  29.975  0.00  0.00    +0.111 A 
ATOM     19  N   UNL     1       5.884  -7.263  28.866  0.00  0.00    -0.263 NA
ATOM     20  C   UNL     1       5.001  -6.816  27.933  0.00  0.00    +0.120 A 
ENDBRANCH  11  15
ENDBRANCH   3   7
BRANCH   1  22
ATOM     21  C   UNL     1       8.787  -2.263  23.423  0.00  0.00    +0.248 C 
ATOM     22  N   UNL     1       7.682  -2.391  22.607  0.00  0.00    -0.281 N 
ATOM     23  H   UNL     1       7.191  -1.540  22.367  0.00  0.00    +0.155 HD
ATOM     24  O   UNL     1       9.190  -3.127  24.193  0.00  0.00    -0.270 OA
BRANCH  21  28
ATOM     25  C   UNL     1      10.265   1.723  23.246  0.00  0.00    -0.033 A 
ATOM     26  C   UNL     1      10.393   1.009  24.448  0.00  0.00    +0.005 A 
ATOM     27  C   UNL     1      10.008  -0.330  24.510  0.00  0.00    +0.013 A 
ATOM     28  C   UNL     1       9.507  -0.961  23.365  0.00  0.00    +0.037 A 
ATOM     29  C   UNL     1       9.512  -0.287  22.138  0.00  0.00    +0.013 A 
ATOM     30  C   UNL     1       9.895   1.048  22.076  0.00  0.00    +0.005 A 
BRANCH  25  31
ATOM     31  C   UNL     1      10.317   3.236  23.245  0.00  0.00    +0.119 C 
BRANCH  31  36
ATOM     32  C   UNL     1       6.944   6.694  23.623  0.00  0.00    +0.105 C 
ATOM     33  N   UNL     1       7.950   6.080  22.756  0.00  0.00    -0.303 NA
ATOM     34  C   UNL     1       7.639   4.658  22.504  0.00  0.00    +0.099 C 
ATOM     35  C   UNL     1       7.961   3.692  23.671  0.00  0.00    +0.100 C 
ATOM     36  N   UNL     1       9.336   3.810  24.192  0.00  0.00    -0.296 NA
ATOM     37  C   UNL     1       9.592   5.235  24.508  0.00  0.00    +0.100 C 
ATOM     38  C   UNL     1       9.300   6.208  23.342  0.00  0.00    +0.099 C 
ENDBRANCH  31  36
ENDBRANCH  25  31
ENDBRANCH  21  28
ENDBRANCH   1  22
TORSDOF 6
ENDMDL
MODEL 2
REMARK VINA RESULT:      -8.1      1.427      2.802
REMARK  Name = 
REMARK  7 active torsions:
REMARK  status: ('A' for Active; 'I' for Inactive)
REMARK    1  A    between atoms: C_1  and  N_2
REMARK    2  A    between atoms: N_5  and  C_6
REMARK    3  A    between atoms: C_6  and  C_7
REMARK    4  A    between atoms: C_10  and  C_13
REMARK    5  A    between atoms: N_15  and  C_16
REMARK    6  A    between atoms: C_20  and  N_21
REMARK    7  A    between atoms: C_26  and  C_28
REMARK                            x       y       z     vdW  Elec       q    Type
REMARK                         _______ _______ _______ _____ _____    ______ ____
ROOT
ATOM      1  C   UNL     1       7.453  -3.456  23.107  0.00  0.00    +0.035 A 
ATOM      2  C   UNL     1       7.215  -4.071  24.332  0.00  0.00    +0.046 A 
ATOM      3  C   UNL     1       6.611  -5.326  24.423  0.00  0.00    +0.035 A 
ATOM      4  C   UNL     1       6.228  -5.950  23.227  0.00  0.00    +0.023 A 
ATOM      5  C   UNL     1       6.422  -5.323  21.991  0.00  0.00    +0.004 A 
ATOM      6  C   UNL     1       7.044  -4.077  21.930  0.00  0.00    +0.023 A 
ENDROOT
BRANCH   3   7
ATOM      7  N   UNL     1       6.411  -5.980  25.645  0.00  0.00    -0.284 N 
ATOM      8  H   UNL     1       6.903  -6.849  25.787  0.00  0.00    +0.155 HD
ATOM      9  C   UNL     1       5.408  -5.847  26.605  0.00  0.00    +0.220 A 
ATOM     10  N   UNL     1       4.571  -4.795  26.600  0.00  0.00    -0.214 NA
ATOM     11  C   UNL     1       3.580  -4.737  27.510  0.00  0.00    +0.077 A 
ATOM     12  C   UNL     1       3.422  -5.734  28.450  0.00  0.00    +0.048 A 
ATOM     13  C   UNL     1       4.327  -6.767  28.395  0.00  0.00    +0.116 A 
ATOM     14  N   UNL     1       5.321  -6.842  27.494  0.00  0.00    -0.223 NA
BRANCH  11  15
ATOM     15  C   UNL     1       2.686  -3.569  27.404  0.00  0.00    +0.019 A 
ATOM     16  C   UNL     1       2.256  -2.831  28.518  0.00  0.00    +0.013 A 
ATOM     17  C   UNL     1       1.419  -1.726  28.364  0.00  0.00    +0.020 A 
ATOM     18  C   UNL     1       1.011  -1.381  27.088  0.00  0.00    +0.111 A 
ATOM     19  N   UNL     1       1.374  -2.062  25.985  0.00  0.00    -0.263 NA
ATOM     20  C   UNL     1       2.196  -3.130  26.170  0.00  0.00    +0.120 A 
ENDBRANCH  11  15
ENDBRANCH   3   7
BRANCH   1  22
ATOM     21  C   UNL     1       9.452  -2.086  23.404  0.00  0.00    +0.248 C 
ATOM     22  N   UNL     1       8.105  -2.211  23.136  0.00  0.00    -0.281 N 
ATOM     23  H   UNL     1       7.527  -1.398  23.310  0.00  0.00    +0.155 HD
ATOM     24  O   UNL     1      10.186  -3.012  23.730  0.00  0.00    -0.270 OA
BRANCH  21  28
ATOM     25  C   UNL     1      10.483   2.036  23.189  0.00  0.00    -0.033 A 
ATOM     26  C   UNL     1      10.804   1.320  24.353  0.00  0.00    +0.005 A 
ATOM     27  C   UNL     1      10.568  -0.053  24.418  0.00  0.00    +0.013 A 
ATOM     28  C   UNL     1      10.023  -0.715  23.311  0.00  0.00    +0.037 A 
ATOM     29  C   UNL     1       9.835  -0.025  22.107  0.00  0.00    +0.013 A 
ATOM     30  C   UNL     1      10.069   1.344  22.044  0.00  0.00    +0.005 A 
BRANCH  25  31
ATOM     31  C   UNL     1      10.377   3.545  23.223  0.00  0.00    +0.119 C 
BRANCH  31  36
ATOM     32  C   UNL     1       6.649   6.615  23.626  0.00  0.00    +0.105 C 
ATOM     33  N   UNL     1       7.724   6.130  22.760  0.00  0.00    -0.303 NA
ATOM     34  C   UNL     1       7.570   4.688  22.476  0.00  0.00    +0.099 C 
ATOM     35  C   UNL     1       7.981   3.738  23.629  0.00  0.00    +0.100 C 
ATOM     36  N   UNL     1       9.330   3.992  24.169  0.00  0.00    -0.296 NA
ATOM     37  C   UNL     1       9.428   5.429  24.516  0.00  0.00    +0.100 C 
ATOM     38  C   UNL     1       9.046   6.389  23.366  0.00  0.00    +0.099 C 
ENDBRANCH  31  36
ENDBRANCH  25  31
ENDBRANCH  21  28
ENDBRANCH   1  22
TORSDOF 6
ENDMDL
MODEL 3
REMARK VINA RESULT:      -7.9      2.277     10.709
REMARK  Name = 
REMARK  7 active torsions:
REMARK  status: ('A' for Active; 'I' for Inactive)
REMARK    1  A    between atoms: C_1  and  N_2
REMARK    2  A    between atoms: N_5  and  C_6
REMARK    3  A    between atoms: C_6  and  C_7
REMARK    4  A    between atoms: C_10  and  C_13
REMARK    5  A    between atoms: N_15  and  C_16
REMARK    6  A    between atoms: C_20  and  N_21
REMARK    7  A    between atoms: C_26  and  C_28
REMARK                            x       y       z     vdW  Elec       q    Type
REMARK                         _______ _______ _______ _____ _____    ______ ____
ROOT
ATOM      1  C   UNL     1       8.269  -0.677  23.046  0.00  0.00    +0.035 A 
ATOM      2  C   UNL     1       7.472   0.463  23.085  0.00  0.00    +0.046 A 
ATOM      3  C   UNL     1       7.795   1.615  22.364  0.00  0.00    +0.035 A 
ATOM      4  C   UNL     1       8.973   1.596  21.604  0.00  0.00    +0.023 A 
ATOM      5  C   UNL     1       9.806   0.471  21.591  0.00  0.00    +0.004 A 
ATOM      6  C   UNL     1       9.449  -0.671  22.306  0.00  0.00    +0.023 A 
ENDROOT
BRANCH   3   7
ATOM      7  N   UNL     1       6.977   2.752  22.354  0.00  0.00    -0.284 N 
ATOM      8  H   UNL     1       6.100   2.682  21.859  0.00  0.00    +0.155 HD
ATOM      9  C   UNL     1       7.262   4.091  22.617  0.00  0.00    +0.220 A 
ATOM     10  N   UNL     1       8.406   4.457  23.223  0.00  0.00    -0.214 NA
ATOM     11  C   UNL     1       8.666   5.765  23.404  0.00  0.00    +0.077 A 
ATOM     12  C   UNL     1       7.772   6.729  22.990  0.00  0.00    +0.048 A 
ATOM     13  C   UNL     1       6.622   6.272  22.392  0.00  0.00    +0.116 A 
ATOM     14  N   UNL     1       6.345   4.972  22.202  0.00  0.00    -0.223 NA
BRANCH  11  15
ATOM     15  C   UNL     1       9.962   6.075  24.038  0.00  0.00    +0.019 A 
ATOM     16  C   UNL     1      11.193   5.679  23.493  0.00  0.00    +0.013 A 
ATOM     17  C   UNL     1      12.393   6.007  24.125  0.00  0.00    +0.020 A 
ATOM     18  C   UNL     1      12.341   6.720  25.309  0.00  0.00    +0.111 A 
ATOM     19  N   UNL     1      11.190   7.108  25.889  0.00  0.00    -0.263 NA
ATOM     20  C   UNL     1      10.039   6.779  25.243  0.00  0.00    +0.120 A 
ENDBRANCH  11  15
ENDBRANCH   3   7
BRANCH   1  22
ATOM     21  C   UNL     1       8.208  -2.021  25.082  0.00  0.00    +0.248 C 
ATOM     22  N   UNL     1       7.823  -1.790  23.778  0.00  0.00    -0.281 N 
ATOM     23  H   UNL     1       7.515  -2.593  23.244  0.00  0.00    +0.155 HD
ATOM     24  O   UNL     1       9.031  -1.350  25.695  0.00  0.00    -0.270 OA
BRANCH  21  28
ATOM     25  C   UNL     1       5.922  -5.245  26.656  0.00  0.00    -0.033 A 
ATOM     26  C   UNL     1       7.008  -5.536  25.815  0.00  0.00    +0.005 A 
ATOM     27  C   UNL     1       7.836  -4.509  25.361  0.00  0.00    +0.013 A 
ATOM     28  C   UNL     1       7.586  -3.190  25.761  0.00  0.00    +0.037 A 
ATOM     29  C   UNL     1       6.590  -2.924  26.708  0.00  0.00    +0.013 A 
ATOM     30  C   UNL     1       5.764  -3.948  27.159  0.00  0.00    +0.005 A 
BRANCH  25  31
ATOM     31  C   UNL     1       4.814  -6.257  26.852  0.00  0.00    +0.119 C 
BRANCH  31  36
ATOM     32  C   UNL     1       1.622  -7.560  23.446  0.00  0.00    +0.105 C 
ATOM     33  N   UNL     1       2.867  -7.911  24.130  0.00  0.00    -0.303 NA
ATOM     34  C   UNL     1       2.643  -8.104  25.578  0.00  0.00    +0.099 C 
ATOM     35  C   UNL     1       2.481  -6.802  26.402  0.00  0.00    +0.100 C 
ATOM     36  N   UNL     1       3.560  -5.819  26.198  0.00  0.00    -0.296 NA
ATOM     37  C   UNL     1       3.710  -5.588  24.742  0.00  0.00    +0.100 C 
ATOM     38  C   UNL     1       3.899  -6.877  23.909  0.00  0.00    +0.099 C 
ENDBRANCH  31  36
ENDBRANCH  25  31
ENDBRANCH  21  28
ENDBRANCH   1  22
TORSDOF 6
ENDMDL
MODEL 4
REMARK VINA RESULT:      -7.9      2.074     10.723
REMARK  Name = 
REMARK  7 active torsions:
REMARK  status: ('A' for Active; 'I' for Inactive)
REMARK    1  A    between atoms: C_1  and  N_2
REMARK    2  A    between atoms: N_5  and  C_6
REMARK    3  A    between atoms: C_6  and  C_7
REMARK    4  A    between atoms: C_10  and  C_13
REMARK    5  A    between atoms: N_15  and  C_16
REMARK    6  A    between atoms: C_20  and  N_21
REMARK    7  A    between atoms: C_26  and  C_28
REMARK                            x       y       z     vdW  Elec       q    Type
REMARK                         _______ _______ _______ _____ _____    ______ ____
ROOT
ATOM      1  C   UNL     1       8.369  -0.883  23.297  0.00  0.00    +0.035 A 
ATOM      2  C   UNL     1       7.542   0.233  23.244  0.00  0.00    +0.046 A 
ATOM      3  C   UNL     1       7.928   1.408  22.596  0.00  0.00    +0.035 A 
ATOM      4  C   UNL     1       9.201   1.438  22.009  0.00  0.00    +0.023 A 
ATOM      5  C   UNL     1      10.060   0.336  22.093  0.00  0.00    +0.004 A 
ATOM      6  C   UNL     1       9.641  -0.830  22.731  0.00  0.00    +0.023 A 
ENDROOT
BRANCH   3   7
ATOM      7  N   UNL     1       7.086   2.523  22.491  0.00  0.00    -0.284 N 
ATOM      8  H   UNL     1       6.226   2.402  21.978  0.00  0.00    +0.155 HD
ATOM      9  C   UNL     1       7.333   3.883  22.677  0.00  0.00    +0.220 A 
ATOM     10  N   UNL     1       8.451   4.313  23.289  0.00  0.00    -0.214 NA
ATOM     11  C   UNL     1       8.678   5.636  23.394  0.00  0.00    +0.077 A 
ATOM     12  C   UNL     1       7.775   6.550  22.894  0.00  0.00    +0.048 A 
ATOM     13  C   UNL     1       6.653   6.029  22.296  0.00  0.00    +0.116 A 
ATOM     14  N   UNL     1       6.411   4.713  22.181  0.00  0.00    -0.223 NA
BRANCH  11  15
ATOM     15  C   UNL     1       9.947   6.015  24.042  0.00  0.00    +0.019 A 
ATOM     16  C   UNL     1      10.006   6.786  25.214  0.00  0.00    +0.013 A 
ATOM     17  C   UNL     1      11.233   7.108  25.796  0.00  0.00    +0.020 A 
ATOM     18  C   UNL     1      12.391   6.660  25.185  0.00  0.00    +0.111 A 
ATOM     19  N   UNL     1      12.396   5.936  24.050  0.00  0.00    -0.263 NA
ATOM     20  C   UNL     1      11.183   5.633  23.513  0.00  0.00    +0.120 A 
ENDBRANCH  11  15
ENDBRANCH   3   7
BRANCH   1  22
ATOM     21  C   UNL     1       7.350  -3.101  23.244  0.00  0.00    +0.248 C 
ATOM     22  N   UNL     1       7.859  -2.024  23.940  0.00  0.00    -0.281 N 
ATOM     23  H   UNL     1       7.543  -1.907  24.894  0.00  0.00    +0.155 HD
ATOM     24  O   UNL     1       7.205  -3.139  22.028  0.00  0.00    -0.270 OA
BRANCH  21  28
ATOM     25  C   UNL     1       5.801  -6.044  25.897  0.00  0.00    -0.033 A 
ATOM     26  C   UNL     1       5.341  -6.022  24.571  0.00  0.00    +0.005 A 
ATOM     27  C   UNL     1       5.899  -5.134  23.651  0.00  0.00    +0.013 A 
ATOM     28  C   UNL     1       6.929  -4.275  24.055  0.00  0.00    +0.037 A 
ATOM     29  C   UNL     1       7.478  -4.398  25.337  0.00  0.00    +0.013 A 
ATOM     30  C   UNL     1       6.921  -5.282  26.253  0.00  0.00    +0.005 A 
BRANCH  25  31
ATOM     31  C   UNL     1       4.981  -6.709  26.982  0.00  0.00    +0.119 C 
BRANCH  31  36
ATOM     32  C   UNL     1       1.290  -5.454  29.860  0.00  0.00    +0.105 C 
ATOM     33  N   UNL     1       1.740  -6.356  28.800  0.00  0.00    -0.303 NA
ATOM     34  C   UNL     1       2.885  -7.175  29.248  0.00  0.00    +0.099 C 
ATOM     35  C   UNL     1       4.248  -6.441  29.291  0.00  0.00    +0.100 C 
ATOM     36  N   UNL     1       4.601  -5.746  28.039  0.00  0.00    -0.296 NA
ATOM     37  C   UNL     1       3.465  -4.874  27.656  0.00  0.00    +0.100 C 
ATOM     38  C   UNL     1       2.102  -5.600  27.583  0.00  0.00    +0.099 C 
ENDBRANCH  31  36
ENDBRANCH  25  31
ENDBRANCH  21  28
ENDBRANCH   1  22
TORSDOF 6
ENDMDL
MODEL 5
REMARK VINA RESULT:      -7.7      1.839      2.463
REMARK  Name = 
REMARK  7 active torsions:
REMARK  status: ('A' for Active; 'I' for Inactive)
REMARK    1  A    between atoms: C_1  and  N_2
REMARK    2  A    between atoms: N_5  and  C_6
REMARK    3  A    between atoms: C_6  and  C_7
REMARK    4  A    between atoms: C_10  and  C_13
REMARK    5  A    between atoms: N_15  and  C_16
REMARK    6  A    between atoms: C_20  and  N_21
REMARK    7  A    between atoms: C_26  and  C_28
REMARK                            x       y       z     vdW  Elec       q    Type
REMARK                         _______ _______ _______ _____ _____    ______ ____
ROOT
ATOM      1  C   UNL     1       8.955  -3.089  24.241  0.00  0.00    +0.035 A 
ATOM      2  C   UNL     1       7.834  -3.568  23.571  0.00  0.00    +0.046 A 
ATOM      3  C   UNL     1       7.445  -4.907  23.646  0.00  0.00    +0.035 A 
ATOM      4  C   UNL     1       8.240  -5.773  24.412  0.00  0.00    +0.023 A 
ATOM      5  C   UNL     1       9.395  -5.312  25.055  0.00  0.00    +0.004 A 
ATOM      6  C   UNL     1       9.748  -3.966  24.977  0.00  0.00    +0.023 A 
ENDROOT
BRANCH   3   7
ATOM      7  N   UNL     1       6.291  -5.394  23.018  0.00  0.00    -0.284 N 
ATOM      8  H   UNL     1       6.193  -5.208  22.031  0.00  0.00    +0.155 HD
ATOM      9  C   UNL     1       5.069  -5.816  23.539  0.00  0.00    +0.220 A 
ATOM     10  N   UNL     1       4.921  -6.078  24.849  0.00  0.00    -0.214 NA
ATOM     11  C   UNL     1       3.708  -6.425  25.319  0.00  0.00    +0.077 A 
ATOM     12  C   UNL     1       2.624  -6.528  24.473  0.00  0.00    +0.048 A 
ATOM     13  C   UNL     1       2.863  -6.257  23.147  0.00  0.00    +0.116 A 
ATOM     14  N   UNL     1       4.065  -5.908  22.661  0.00  0.00    -0.223 NA
BRANCH  11  15
ATOM     15  C   UNL     1       3.630  -6.653  26.774  0.00  0.00    +0.019 A 
ATOM     16  C   UNL     1       2.419  -6.655  27.484  0.00  0.00    +0.013 A 
ATOM     17  C   UNL     1       2.397  -6.887  28.860  0.00  0.00    +0.020 A 
ATOM     18  C   UNL     1       3.599  -7.102  29.511  0.00  0.00    +0.111 A 
ATOM     19  N   UNL     1       4.791  -7.091  28.887  0.00  0.00    -0.263 NA
ATOM     20  C   UNL     1       4.776  -6.870  27.545  0.00  0.00    +0.120 A 
ENDBRANCH  11  15
ENDBRANCH   3   7
BRANCH   1  22
ATOM     21  C   UNL     1       9.980  -1.193  23.096  0.00  0.00    +0.248 C 
ATOM     22  N   UNL     1       9.226  -1.715  24.127  0.00  0.00    -0.281 N 
ATOM     23  H   UNL     1       9.173  -1.168  24.976  0.00  0.00    +0.155 HD
ATOM     24  O   UNL     1      10.556  -1.861  22.246  0.00  0.00    -0.270 OA
BRANCH  21  28
ATOM     25  C   UNL     1       9.772   3.054  23.250  0.00  0.00    -0.033 A 
ATOM     26  C   UNL     1      10.658   2.390  24.114  0.00  0.00    +0.005 A 
ATOM     27  C   UNL     1      10.821   1.008  24.021  0.00  0.00    +0.013 A 
ATOM     28  C   UNL     1      10.108   0.289  23.054  0.00  0.00    +0.037 A 
ATOM     29  C   UNL     1       9.335   0.971  22.107  0.00  0.00    +0.013 A 
ATOM     30  C   UNL     1       9.172   2.349  22.200  0.00  0.00    +0.005 A 
BRANCH  25  31
ATOM     31  C   UNL     1       9.302   4.457  23.566  0.00  0.00    +0.119 C 
BRANCH  31  36
ATOM     32  C   UNL     1       6.131   6.874  26.321  0.00  0.00    +0.105 C 
ATOM     33  N   UNL     1       6.693   6.722  24.978  0.00  0.00    -0.303 NA
ATOM     34  C   UNL     1       6.449   5.364  24.450  0.00  0.00    +0.099 C 
ATOM     35  C   UNL     1       7.362   4.254  25.028  0.00  0.00    +0.100 C 
ATOM     36  N   UNL     1       8.803   4.559  24.956  0.00  0.00    -0.296 NA
ATOM     37  C   UNL     1       9.027   5.892  25.562  0.00  0.00    +0.100 C 
ATOM     38  C   UNL     1       8.140   7.015  24.976  0.00  0.00    +0.099 C 
ENDBRANCH  31  36
ENDBRANCH  25  31
ENDBRANCH  21  28
ENDBRANCH   1  22
TORSDOF 6
ENDMDL
MODEL 6
REMARK VINA RESULT:      -7.6      2.221      3.857
REMARK  Name = 
REMARK  7 active torsions:
REMARK  status: ('A' for Active; 'I' for Inactive)
REMARK    1  A    between atoms: C_1  and  N_2
REMARK    2  A    between atoms: N_5  and  C_6
REMARK    3  A    between atoms: C_6  and  C_7
REMARK    4  A    between atoms: C_10  and  C_13
REMARK    5  A    between atoms: N_15  and  C_16
REMARK    6  A    between atoms: C_20  and  N_21
REMARK    7  A    between atoms: C_26  and  C_28
REMARK                            x       y       z     vdW  Elec       q    Type
REMARK                         _______ _______ _______ _____ _____    ______ ____
ROOT
ATOM      1  C   UNL     1       8.423  -3.049  25.050  0.00  0.00    +0.035 A 
ATOM      2  C   UNL     1       7.468  -3.343  26.017  0.00  0.00    +0.046 A 
ATOM      3  C   UNL     1       7.499  -4.533  26.747  0.00  0.00    +0.035 A 
ATOM      4  C   UNL     1       8.525  -5.445  26.460  0.00  0.00    +0.023 A 
ATOM      5  C   UNL     1       9.467  -5.179  25.459  0.00  0.00    +0.004 A 
ATOM      6  C   UNL     1       9.422  -3.975  24.758  0.00  0.00    +0.023 A 
ENDROOT
BRANCH   3   7
ATOM      7  N   UNL     1       6.573  -4.822  27.758  0.00  0.00    -0.284 N 
ATOM      8  H   UNL     1       6.916  -4.823  28.707  0.00  0.00    +0.155 HD
ATOM      9  C   UNL     1       5.321  -5.434  27.711  0.00  0.00    +0.220 A 
ATOM     10  N   UNL     1       4.671  -5.606  26.547  0.00  0.00    -0.214 NA
ATOM     11  C   UNL     1       3.491  -6.255  26.541  0.00  0.00    +0.077 A 
ATOM     12  C   UNL     1       2.939  -6.730  27.711  0.00  0.00    +0.048 A 
ATOM     13  C   UNL     1       3.660  -6.501  28.858  0.00  0.00    +0.116 A 
ATOM     14  N   UNL     1       4.838  -5.858  28.884  0.00  0.00    -0.223 NA
BRANCH  11  15
ATOM     15  C   UNL     1       2.870  -6.435  25.215  0.00  0.00    +0.019 A 
ATOM     16  C   UNL     1       2.560  -5.362  24.365  0.00  0.00    +0.013 A 
ATOM     17  C   UNL     1       1.984  -5.585  23.114  0.00  0.00    +0.020 A 
ATOM     18  C   UNL     1       1.714  -6.888  22.735  0.00  0.00    +0.111 A 
ATOM     19  N   UNL     1       1.971  -7.954  23.516  0.00  0.00    -0.263 NA
ATOM     20  C   UNL     1       2.539  -7.702  24.726  0.00  0.00    +0.120 A 
ENDBRANCH  11  15
ENDBRANCH   3   7
BRANCH   1  22
ATOM     21  C   UNL     1       8.075  -1.687  23.054  0.00  0.00    +0.248 C 
ATOM     22  N   UNL     1       8.316  -1.803  24.407  0.00  0.00    -0.281 N 
ATOM     23  H   UNL     1       8.763  -1.017  24.861  0.00  0.00    +0.155 HD
ATOM     24  O   UNL     1       8.023  -2.628  22.272  0.00  0.00    -0.270 OA
BRANCH  21  28
ATOM     25  C   UNL     1       7.683   2.452  22.149  0.00  0.00    -0.033 A 
ATOM     26  C   UNL     1       8.811   1.762  21.677  0.00  0.00    +0.005 A 
ATOM     27  C   UNL     1       8.921   0.385  21.873  0.00  0.00    +0.013 A 
ATOM     28  C   UNL     1       7.896  -0.306  22.529  0.00  0.00    +0.037 A 
ATOM     29  C   UNL     1       6.714   0.361  22.873  0.00  0.00    +0.013 A 
ATOM     30  C   UNL     1       6.604   1.733  22.679  0.00  0.00    +0.005 A 
BRANCH  25  31
ATOM     31  C   UNL     1       7.709   3.959  22.284  0.00  0.00    +0.119 C 
BRANCH  31  36
ATOM     32  C   UNL     1       9.998   6.948  25.335  0.00  0.00    +0.105 C 
ATOM     33  N   UNL     1       9.908   6.469  23.955  0.00  0.00    -0.303 NA
ATOM     34  C   UNL     1       8.577   6.750  23.379  0.00  0.00    +0.099 C 
ATOM     35  C   UNL     1       7.440   5.809  23.848  0.00  0.00    +0.100 C 
ATOM     36  N   UNL     1       7.745   4.374  23.704  0.00  0.00    -0.296 NA
ATOM     37  C   UNL     1       9.048   4.108  24.358  0.00  0.00    +0.100 C 
ATOM     38  C   UNL     1      10.199   5.023  23.879  0.00  0.00    +0.099 C 
ENDBRANCH  31  36
ENDBRANCH  25  31
ENDBRANCH  21  28
ENDBRANCH   1  22
TORSDOF 6
ENDMDL
MODEL 7
REMARK VINA RESULT:      -7.2      2.135     10.214
REMARK  Name = 
REMARK  7 active torsions:
REMARK  status: ('A' for Active; 'I' for Inactive)
REMARK    1  A    between atoms: C_1  and  N_2
REMARK    2  A    between atoms: N_5  and  C_6
REMARK    3  A    between atoms: C_6  and  C_7
REMARK    4  A    between atoms: C_10  and  C_13
REMARK    5  A    between atoms: N_15  and  C_16
REMARK    6  A    between atoms: C_20  and  N_21
REMARK    7  A    between atoms: C_26  and  C_28
REMARK                            x       y       z     vdW  Elec       q    Type
REMARK                         _______ _______ _______ _____ _____    ______ ____
ROOT
ATOM      1  C   UNL     1       8.935   0.098  23.565  0.00  0.00    +0.035 A 
ATOM      2  C   UNL     1       8.292   1.175  22.963  0.00  0.00    +0.046 A 
ATOM      3  C   UNL     1       8.884   2.437  22.881  0.00  0.00    +0.035 A 
ATOM      4  C   UNL     1      10.156   2.595  23.450  0.00  0.00    +0.023 A 
ATOM      5  C   UNL     1      10.795   1.531  24.097  0.00  0.00    +0.004 A 
ATOM      6  C   UNL     1      10.188   0.277  24.147  0.00  0.00    +0.023 A 
ENDROOT
BRANCH   3   7
ATOM      7  N   UNL     1       8.270   3.517  22.235  0.00  0.00    -0.284 N 
ATOM      8  H   UNL     1       8.443   3.619  21.246  0.00  0.00    +0.155 HD
ATOM      9  C   UNL     1       7.714   4.693  22.736  0.00  0.00    +0.220 A 
ATOM     10  N   UNL     1       7.438   4.833  24.045  0.00  0.00    -0.214 NA
ATOM     11  C   UNL     1       6.956   6.007  24.495  0.00  0.00    +0.077 A 
ATOM     12  C   UNL     1       6.731   7.058  23.631  0.00  0.00    +0.048 A 
ATOM     13  C   UNL     1       7.026   6.829  22.309  0.00  0.00    +0.116 A 
ATOM     14  N   UNL     1       7.509   5.665  21.842  0.00  0.00    -0.223 NA
BRANCH  11  15
ATOM     15  C   UNL     1       6.722   6.084  25.949  0.00  0.00    +0.019 A 
ATOM     16  C   UNL     1       5.576   6.670  26.509  0.00  0.00    +0.013 A 
ATOM     17  C   UNL     1       5.395   6.707  27.892  0.00  0.00    +0.020 A 
ATOM     18  C   UNL     1       6.379   6.164  28.700  0.00  0.00    +0.111 A 
ATOM     19  N   UNL     1       7.507   5.608  28.221  0.00  0.00    -0.263 NA
ATOM     20  C   UNL     1       7.648   5.581  26.868  0.00  0.00    +0.120 A 
ENDBRANCH  11  15
ENDBRANCH   3   7
BRANCH   1  22
ATOM     21  C   UNL     1       8.442  -2.067  22.551  0.00  0.00    +0.248 C 
ATOM     22  N   UNL     1       8.261  -1.135  23.552  0.00  0.00    -0.281 N 
ATOM     23  H   UNL     1       7.394  -1.186  24.071  0.00  0.00    +0.155 HD
ATOM     24  O   UNL     1       9.118  -1.888  21.545  0.00  0.00    -0.270 OA
BRANCH  21  28
ATOM     25  C   UNL     1       6.083  -5.482  23.486  0.00  0.00    -0.033 A 
ATOM     26  C   UNL     1       5.837  -4.801  22.284  0.00  0.00    +0.005 A 
ATOM     27  C   UNL     1       6.655  -3.738  21.901  0.00  0.00    +0.013 A 
ATOM     28  C   UNL     1       7.731  -3.364  22.716  0.00  0.00    +0.037 A 
ATOM     29  C   UNL     1       8.055  -4.132  23.841  0.00  0.00    +0.013 A 
ATOM     30  C   UNL     1       7.239  -5.192  24.222  0.00  0.00    +0.005 A 
BRANCH  25  31
ATOM     31  C   UNL     1       5.018  -6.367  24.097  0.00  0.00    +0.119 C 
BRANCH  31  36
ATOM     32  C   UNL     1       0.977  -5.798  26.710  0.00  0.00    +0.105 C 
ATOM     33  N   UNL     1       1.544  -6.303  25.459  0.00  0.00    -0.303 NA
ATOM     34  C   UNL     1       2.542  -7.362  25.716  0.00  0.00    +0.099 C 
ATOM     35  C   UNL     1       3.921  -6.865  26.215  0.00  0.00    +0.100 C 
ATOM     36  N   UNL     1       4.525  -5.813  25.377  0.00  0.00    -0.296 NA
ATOM     37  C   UNL     1       3.528  -4.731  25.201  0.00  0.00    +0.100 C 
ATOM     38  C   UNL     1       2.154  -5.209  24.677  0.00  0.00    +0.099 C 
ENDBRANCH  31  36
ENDBRANCH  25  31
ENDBRANCH  21  28
ENDBRANCH   1  22
TORSDOF 6
ENDMDL
MODEL 8
REMARK VINA RESULT:      -7.2      2.613      9.655
REMARK  Name = 
REMARK  7 active torsions:
REMARK  status: ('A' for Active; 'I' for Inactive)
REMARK    1  A    between atoms: C_1  and  N_2
REMARK    2  A    between atoms: N_5  and  C_6
REMARK    3  A    between atoms: C_6  and  C_7
REMARK    4  A    between atoms: C_10  and  C_13
REMARK    5  A    between atoms: N_15  and  C_16
REMARK    6  A    between atoms: C_20  and  N_21
REMARK    7  A    between atoms: C_26  and  C_28
REMARK                            x       y       z     vdW  Elec       q    Type
REMARK                         _______ _______ _______ _____ _____    ______ ____
ROOT
ATOM      1  C   UNL     1       9.046   0.095  23.618  0.00  0.00    +0.035 A 
ATOM      2  C   UNL     1       8.475   1.214  23.020  0.00  0.00    +0.046 A 
ATOM      3  C   UNL     1       9.129   2.447  22.983  0.00  0.00    +0.035 A 
ATOM      4  C   UNL     1      10.390   2.531  23.591  0.00  0.00    +0.023 A 
ATOM      5  C   UNL     1      10.957   1.425  24.234  0.00  0.00    +0.004 A 
ATOM      6  C   UNL     1      10.288   0.202  24.240  0.00  0.00    +0.023 A 
ENDROOT
BRANCH   3   7
ATOM      7  N   UNL     1       8.588   3.568  22.342  0.00  0.00    -0.284 N 
ATOM      8  H   UNL     1       9.205   4.098  21.744  0.00  0.00    +0.155 HD
ATOM      9  C   UNL     1       7.438   4.313  22.605  0.00  0.00    +0.220 A 
ATOM     10  N   UNL     1       6.478   3.849  23.424  0.00  0.00    -0.214 NA
ATOM     11  C   UNL     1       5.412   4.626  23.697  0.00  0.00    +0.077 A 
ATOM     12  C   UNL     1       5.290   5.880  23.138  0.00  0.00    +0.048 A 
ATOM     13  C   UNL     1       6.307   6.274  22.302  0.00  0.00    +0.116 A 
ATOM     14  N   UNL     1       7.378   5.513  22.020  0.00  0.00    -0.223 NA
BRANCH  11  15
ATOM     15  C   UNL     1       4.431   4.053  24.637  0.00  0.00    +0.019 A 
ATOM     16  C   UNL     1       4.448   4.318  26.015  0.00  0.00    +0.013 A 
ATOM     17  C   UNL     1       3.489   3.762  26.862  0.00  0.00    +0.020 A 
ATOM     18  C   UNL     1       2.528   2.931  26.313  0.00  0.00    +0.111 A 
ATOM     19  N   UNL     1       2.474   2.624  25.004  0.00  0.00    -0.263 NA
ATOM     20  C   UNL     1       3.419   3.190  24.205  0.00  0.00    +0.120 A 
ENDBRANCH  11  15
ENDBRANCH   3   7
BRANCH   1  22
ATOM     21  C   UNL     1       8.550  -2.068  22.601  0.00  0.00    +0.248 C 
ATOM     22  N   UNL     1       8.314  -1.103  23.558  0.00  0.00    -0.281 N 
ATOM     23  H   UNL     1       7.397  -1.098  23.985  0.00  0.00    +0.155 HD
ATOM     24  O   UNL     1       9.336  -1.947  21.669  0.00  0.00    -0.270 OA
BRANCH  21  28
ATOM     25  C   UNL     1       5.980  -5.362  23.403  0.00  0.00    -0.033 A 
ATOM     26  C   UNL     1       5.783  -4.625  22.225  0.00  0.00    +0.005 A 
ATOM     27  C   UNL     1       6.668  -3.601  21.885  0.00  0.00    +0.013 A 
ATOM     28  C   UNL     1       7.759  -3.323  22.717  0.00  0.00    +0.037 A 
ATOM     29  C   UNL     1       8.029  -4.150  23.814  0.00  0.00    +0.013 A 
ATOM     30  C   UNL     1       7.147  -5.170  24.153  0.00  0.00    +0.005 A 
BRANCH  25  31
ATOM     31  C   UNL     1       4.859  -6.201  23.978  0.00  0.00    +0.119 C 
BRANCH  31  36
ATOM     32  C   UNL     1       1.225  -5.915  27.170  0.00  0.00    +0.105 C 
ATOM     33  N   UNL     1       1.601  -6.253  25.797  0.00  0.00    -0.303 NA
ATOM     34  C   UNL     1       2.580  -7.358  25.770  0.00  0.00    +0.099 C 
ATOM     35  C   UNL     1       4.032  -6.966  26.139  0.00  0.00    +0.100 C 
ATOM     36  N   UNL     1       4.562  -5.820  25.376  0.00  0.00    -0.296 NA
ATOM     37  C   UNL     1       3.595  -4.703  25.486  0.00  0.00    +0.100 C 
ATOM     38  C   UNL     1       2.146  -5.074  25.094  0.00  0.00    +0.099 C 
ENDBRANCH  31  36
ENDBRANCH  25  31
ENDBRANCH  21  28
ENDBRANCH   1  22
TORSDOF 6
ENDMDL
MODEL 9
REMARK VINA RESULT:      -7.2      2.198      5.333
REMARK  Name = 
REMARK  7 active torsions:
REMARK  status: ('A' for Active; 'I' for Inactive)
REMARK    1  A    between atoms: C_1  and  N_2
REMARK    2  A    between atoms: N_5  and  C_6
REMARK    3  A    between atoms: C_6  and  C_7
REMARK    4  A    between atoms: C_10  and  C_13
REMARK    5  A    between atoms: N_15  and  C_16
REMARK    6  A    between atoms: C_20  and  N_21
REMARK    7  A    between atoms: C_26  and  C_28
REMARK                            x       y       z     vdW  Elec       q    Type
REMARK                         _______ _______ _______ _____ _____    ______ ____
ROOT
ATOM      1  C   UNL     1       5.652  -5.228  28.434  0.00  0.00    +0.035 A 
ATOM      2  C   UNL     1       4.716  -5.798  27.577  0.00  0.00    +0.046 A 
ATOM      3  C   UNL     1       3.698  -6.631  28.045  0.00  0.00    +0.035 A 
ATOM      4  C   UNL     1       3.657  -6.897  29.421  0.00  0.00    +0.023 A 
ATOM      5  C   UNL     1       4.619  -6.365  30.288  0.00  0.00    +0.004 A 
ATOM      6  C   UNL     1       5.614  -5.522  29.795  0.00  0.00    +0.023 A 
ENDROOT
BRANCH   3   7
ATOM      7  N   UNL     1       2.719  -7.172  27.201  0.00  0.00    -0.284 N 
ATOM      8  H   UNL     1       2.075  -7.833  27.610  0.00  0.00    +0.155 HD
ATOM      9  C   UNL     1       2.637  -7.237  25.811  0.00  0.00    +0.220 A 
ATOM     10  N   UNL     1       3.436  -6.490  25.028  0.00  0.00    -0.214 NA
ATOM     11  C   UNL     1       3.363  -6.628  23.691  0.00  0.00    +0.077 A 
ATOM     12  C   UNL     1       2.475  -7.513  23.117  0.00  0.00    +0.048 A 
ATOM     13  C   UNL     1       1.686  -8.227  23.986  0.00  0.00    +0.116 A 
ATOM     14  N   UNL     1       1.745  -8.104  25.322  0.00  0.00    -0.223 NA
BRANCH  11  15
ATOM     15  C   UNL     1       4.305  -5.800  22.914  0.00  0.00    +0.019 A 
ATOM     16  C   UNL     1       5.280  -6.345  22.064  0.00  0.00    +0.013 A 
ATOM     17  C   UNL     1       6.140  -5.518  21.340  0.00  0.00    +0.020 A 
ATOM     18  C   UNL     1       6.018  -4.148  21.489  0.00  0.00    +0.111 A 
ATOM     19  N   UNL     1       5.116  -3.570  22.304  0.00  0.00    -0.263 NA
ATOM     20  C   UNL     1       4.288  -4.404  22.989  0.00  0.00    +0.120 A 
ENDBRANCH  11  15
ENDBRANCH   3   7
BRANCH   1  22
ATOM     21  C   UNL     1       7.382  -4.749  26.780  0.00  0.00    +0.248 C 
ATOM     22  N   UNL     1       6.607  -4.373  27.856  0.00  0.00    -0.281 N 
ATOM     23  H   UNL     1       6.968  -3.632  28.443  0.00  0.00    +0.155 HD
ATOM     24  O   UNL     1       7.390  -5.870  26.284  0.00  0.00    -0.270 OA
BRANCH  21  28
ATOM     25  C   UNL     1       9.514  -1.691  24.730  0.00  0.00    -0.033 A 
ATOM     26  C   UNL     1       8.952  -1.398  25.982  0.00  0.00    +0.005 A 
ATOM     27  C   UNL     1       8.331  -2.404  26.723  0.00  0.00    +0.013 A 
ATOM     28  C   UNL     1       8.285  -3.709  26.217  0.00  0.00    +0.037 A 
ATOM     29  C   UNL     1       8.967  -4.024  25.036  0.00  0.00    +0.013 A 
ATOM     30  C   UNL     1       9.584  -3.021  24.297  0.00  0.00    +0.005 A 
BRANCH  25  31
ATOM     31  C   UNL     1       9.848  -0.577  23.761  0.00  0.00    +0.119 C 
BRANCH  31  36
ATOM     32  C   UNL     1       7.118   2.909  21.792  0.00  0.00    +0.105 C 
ATOM     33  N   UNL     1       8.183   2.606  22.749  0.00  0.00    -0.303 NA
ATOM     34  C   UNL     1       9.350   2.002  22.074  0.00  0.00    +0.099 C 
ATOM     35  C   UNL     1       9.190   0.512  21.682  0.00  0.00    +0.100 C 
ATOM     36  N   UNL     1       8.754  -0.361  22.788  0.00  0.00    -0.296 NA
ATOM     37  C   UNL     1       7.539   0.230  23.395  0.00  0.00    +0.100 C 
ATOM     38  C   UNL     1       7.693   1.710  23.816  0.00  0.00    +0.099 C 
ENDBRANCH  31  36
ENDBRANCH  25  31
ENDBRANCH  21  28
ENDBRANCH   1  22
TORSDOF 6
ENDMDL
