MODEL 1
REMARK VINA RESULT:      -6.4      0.000      0.000
REMARK  Name = 
REMARK  3 active torsions:
REMARK  status: ('A' for Active; 'I' for Inactive)
REMARK    1  A    between atoms: O_1  and  C_2
REMARK    2  A    between atoms: C_8  and  O_9
REMARK    3  A    between atoms: O_9  and  C_10
REMARK                            x       y       z     vdW  Elec       q    Type
REMARK                         _______ _______ _______ _____ _____    ______ ____
ROOT
ATOM      1  C   UNL     1      10.063  -0.937  22.631  0.00  0.00    +0.160 A 
ATOM      2  C   UNL     1       9.849  -1.647  23.821  0.00  0.00    +0.170 A 
ATOM      3  C   UNL     1       9.636  -0.945  25.013  0.00  0.00    +0.051 A 
ATOM      4  C   UNL     1       9.538   0.446  24.994  0.00  0.00    +0.024 A 
ATOM      5  C   UNL     1       9.705   1.138  23.795  0.00  0.00    +0.045 A 
ATOM      6 CL   UNL     1       9.557   2.852  23.776  0.00  0.00    -0.083 Cl
ATOM      7  C   UNL     1       9.991   0.455  22.613  0.00  0.00    +0.069 A 
ENDROOT
BRANCH   1   8
ATOM      8  O   UNL     1      10.341  -1.621  21.479  0.00  0.00    -0.503 OA
ATOM      9  H   UNL     1      10.395  -0.998  20.736  0.00  0.00    +0.292 HD
ENDBRANCH   1   8
BRANCH   2  10
ATOM     10  O   UNL     1       9.930  -3.022  23.776  0.00  0.00    -0.451 OA
BRANCH  10  11
ATOM     11  C   UNL     1       8.993  -3.792  24.438  0.00  0.00    +0.147 A 
ATOM     12  C   UNL     1       9.193  -4.300  25.730  0.00  0.00    +0.049 A 
ATOM     13  C   UNL     1       8.190  -5.043  26.358  0.00  0.00    +0.023 A 
ATOM     14  C   UNL     1       6.970  -5.245  25.716  0.00  0.00    +0.043 A 
ATOM     15 CL   UNL     1       5.724  -6.124  26.512  0.00  0.00    -0.083 Cl
ATOM     16  C   UNL     1       6.747  -4.729  24.442  0.00  0.00    +0.043 A 
ATOM     17  C   UNL     1       7.759  -4.004  23.804  0.00  0.00    +0.085 A 
ATOM     18 CL   UNL     1       7.442  -3.391  22.220  0.00  0.00    -0.080 Cl
ENDBRANCH  10  11
ENDBRANCH   2  10
TORSDOF 3
ENDMDL
MODEL 2
REMARK VINA RESULT:      -6.3      1.372      1.931
REMARK  Name = 
REMARK  3 active torsions:
REMARK  status: ('A' for Active; 'I' for Inactive)
REMARK    1  A    between atoms: O_1  and  C_2
REMARK    2  A    between atoms: C_8  and  O_9
REMARK    3  A    between atoms: O_9  and  C_10
REMARK                            x       y       z     vdW  Elec       q    Type
REMARK                         _______ _______ _______ _____ _____    ______ ____
ROOT
ATOM      1  C   UNL     1      10.076  -0.981  22.675  0.00  0.00    +0.160 A 
ATOM      2  C   UNL     1       9.757  -1.673  23.851  0.00  0.00    +0.170 A 
ATOM      3  C   UNL     1       9.579  -0.959  25.043  0.00  0.00    +0.051 A 
ATOM      4  C   UNL     1       9.620   0.434  25.032  0.00  0.00    +0.024 A 
ATOM      5  C   UNL     1       9.889   1.113  23.845  0.00  0.00    +0.045 A 
ATOM      6 CL   UNL     1       9.912   2.833  23.835  0.00  0.00    -0.083 Cl
ATOM      7  C   UNL     1      10.141   0.411  22.666  0.00  0.00    +0.069 A 
ENDROOT
BRANCH   1   8
ATOM      8  O   UNL     1      10.319  -1.683  21.526  0.00  0.00    -0.503 OA
ATOM      9  H   UNL     1       9.689  -2.419  21.455  0.00  0.00    +0.292 HD
ENDBRANCH   1   8
BRANCH   2  10
ATOM     10  O   UNL     1       9.704  -3.049  23.798  0.00  0.00    -0.451 OA
BRANCH  10  11
ATOM     11  C   UNL     1       8.483  -3.696  23.836  0.00  0.00    +0.147 A 
ATOM     12  C   UNL     1       7.581  -3.691  22.763  0.00  0.00    +0.049 A 
ATOM     13  C   UNL     1       6.377  -4.396  22.851  0.00  0.00    +0.023 A 
ATOM     14  C   UNL     1       6.091  -5.140  23.993  0.00  0.00    +0.043 A 
ATOM     15 CL   UNL     1       4.627  -6.040  24.079  0.00  0.00    -0.083 Cl
ATOM     16  C   UNL     1       6.986  -5.174  25.060  0.00  0.00    +0.043 A 
ATOM     17  C   UNL     1       8.181  -4.450  24.979  0.00  0.00    +0.085 A 
ATOM     18 CL   UNL     1       9.258  -4.512  26.329  0.00  0.00    -0.080 Cl
ENDBRANCH  10  11
ENDBRANCH   2  10
TORSDOF 3
ENDMDL
MODEL 3
REMARK VINA RESULT:      -6.1      1.639      6.061
REMARK  Name = 
REMARK  3 active torsions:
REMARK  status: ('A' for Active; 'I' for Inactive)
REMARK    1  A    between atoms: O_1  and  C_2
REMARK    2  A    between atoms: C_8  and  O_9
REMARK    3  A    between atoms: O_9  and  C_10
REMARK                            x       y       z     vdW  Elec       q    Type
REMARK                         _______ _______ _______ _____ _____    ______ ____
ROOT
ATOM      1  C   UNL     1       8.697  -4.775  25.892  0.00  0.00    +0.160 A 
ATOM      2  C   UNL     1       8.736  -4.043  24.698  0.00  0.00    +0.170 A 
ATOM      3  C   UNL     1       7.648  -4.100  23.819  0.00  0.00    +0.051 A 
ATOM      4  C   UNL     1       6.497  -4.801  24.180  0.00  0.00    +0.024 A 
ATOM      5  C   UNL     1       6.453  -5.486  25.394  0.00  0.00    +0.045 A 
ATOM      6 CL   UNL     1       5.021  -6.325  25.844  0.00  0.00    -0.083 Cl
ATOM      7  C   UNL     1       7.558  -5.496  26.245  0.00  0.00    +0.069 A 
ENDROOT
BRANCH   1   8
ATOM      8  O   UNL     1       9.788  -4.775  26.718  0.00  0.00    -0.503 OA
ATOM      9  H   UNL     1      10.489  -4.227  26.330  0.00  0.00    +0.292 HD
ENDBRANCH   1   8
BRANCH   2  10
ATOM     10  O   UNL     1       9.888  -3.346  24.404  0.00  0.00    -0.451 OA
BRANCH  10  11
ATOM     11  C   UNL     1       9.811  -2.093  23.827  0.00  0.00    +0.147 A 
ATOM     12  C   UNL     1      10.077  -1.857  22.470  0.00  0.00    +0.049 A 
ATOM     13  C   UNL     1       9.947  -0.571  21.940  0.00  0.00    +0.023 A 
ATOM     14  C   UNL     1       9.509   0.473  22.751  0.00  0.00    +0.043 A 
ATOM     15 CL   UNL     1       9.309   2.046  22.081  0.00  0.00    -0.083 Cl
ATOM     16  C   UNL     1       9.219   0.252  24.095  0.00  0.00    +0.043 A 
ATOM     17  C   UNL     1       9.372  -1.031  24.631  0.00  0.00    +0.085 A 
ATOM     18 CL   UNL     1       9.010  -1.258  26.305  0.00  0.00    -0.080 Cl
ENDBRANCH  10  11
ENDBRANCH   2  10
TORSDOF 3
ENDMDL
MODEL 4
REMARK VINA RESULT:      -5.9      1.784      6.094
REMARK  Name = 
REMARK  3 active torsions:
REMARK  status: ('A' for Active; 'I' for Inactive)
REMARK    1  A    between atoms: O_1  and  C_2
REMARK    2  A    between atoms: C_8  and  O_9
REMARK    3  A    between atoms: O_9  and  C_10
REMARK                            x       y       z     vdW  Elec       q    Type
REMARK                         _______ _______ _______ _____ _____    ______ ____
ROOT
ATOM      1  C   UNL     1       8.661  -3.714  23.895  0.00  0.00    +0.160 A 
ATOM      2  C   UNL     1       8.717  -2.500  23.197  0.00  0.00    +0.170 A 
ATOM      3  C   UNL     1       7.617  -2.093  22.432  0.00  0.00    +0.051 A 
ATOM      4  C   UNL     1       6.442  -2.843  22.449  0.00  0.00    +0.024 A 
ATOM      5  C   UNL     1       6.382  -4.025  23.187  0.00  0.00    +0.045 A 
ATOM      6 CL   UNL     1       4.921  -4.930  23.224  0.00  0.00    -0.083 Cl
ATOM      7  C   UNL     1       7.496  -4.479  23.894  0.00  0.00    +0.069 A 
ENDROOT
BRANCH   1   8
ATOM      8  O   UNL     1       9.761  -4.146  24.585  0.00  0.00    -0.503 OA
ATOM      9  H   UNL     1       9.852  -3.633  25.404  0.00  0.00    +0.292 HD
ENDBRANCH   1   8
BRANCH   2  10
ATOM     10  O   UNL     1       9.895  -1.786  23.236  0.00  0.00    -0.451 OA
BRANCH  10  11
ATOM     11  C   UNL     1       9.866  -0.405  23.271  0.00  0.00    +0.147 A 
ATOM     12  C   UNL     1      10.046   0.394  22.132  0.00  0.00    +0.049 A 
ATOM     13  C   UNL     1       9.970   1.786  22.228  0.00  0.00    +0.023 A 
ATOM     14  C   UNL     1       9.672   2.382  23.451  0.00  0.00    +0.043 A 
ATOM     15 CL   UNL     1       9.537   4.094  23.554  0.00  0.00    -0.083 Cl
ATOM     16  C   UNL     1       9.469   1.603  24.588  0.00  0.00    +0.043 A 
ATOM     17  C   UNL     1       9.568   0.211  24.495  0.00  0.00    +0.085 A 
ATOM     18 CL   UNL     1       9.318  -0.716  25.932  0.00  0.00    -0.080 Cl
ENDBRANCH  10  11
ENDBRANCH   2  10
TORSDOF 3
ENDMDL
MODEL 5
REMARK VINA RESULT:      -5.8      1.790      2.775
REMARK  Name = 
REMARK  3 active torsions:
REMARK  status: ('A' for Active; 'I' for Inactive)
REMARK    1  A    between atoms: O_1  and  C_2
REMARK    2  A    between atoms: C_8  and  O_9
REMARK    3  A    between atoms: O_9  and  C_10
REMARK                            x       y       z     vdW  Elec       q    Type
REMARK                         _______ _______ _______ _____ _____    ______ ____
ROOT
ATOM      1  C   UNL     1       9.499  -0.237  24.644  0.00  0.00    +0.160 A 
ATOM      2  C   UNL     1       9.801  -0.930  23.464  0.00  0.00    +0.170 A 
ATOM      3  C   UNL     1      10.016  -0.215  22.280  0.00  0.00    +0.051 A 
ATOM      4  C   UNL     1      10.029   1.179  22.301  0.00  0.00    +0.024 A 
ATOM      5  C   UNL     1       9.775   1.858  23.492  0.00  0.00    +0.045 A 
ATOM      6 CL   UNL     1       9.818   3.577  23.515  0.00  0.00    -0.083 Cl
ATOM      7  C   UNL     1       9.486   1.157  24.663  0.00  0.00    +0.069 A 
ENDROOT
BRANCH   1   8
ATOM      8  O   UNL     1       9.219  -0.938  25.785  0.00  0.00    -0.503 OA
ATOM      9  H   UNL     1       8.257  -1.021  25.887  0.00  0.00    +0.292 HD
ENDBRANCH   1   8
BRANCH   2  10
ATOM     10  O   UNL     1       9.801  -2.308  23.507  0.00  0.00    -0.451 OA
BRANCH  10  11
ATOM     11  C   UNL     1       8.625  -3.007  23.313  0.00  0.00    +0.147 A 
ATOM     12  C   UNL     1       7.658  -2.631  22.369  0.00  0.00    +0.049 A 
ATOM     13  C   UNL     1       6.505  -3.402  22.197  0.00  0.00    +0.023 A 
ATOM     14  C   UNL     1       6.335  -4.571  22.935  0.00  0.00    +0.043 A 
ATOM     15 CL   UNL     1       4.933  -5.538  22.687  0.00  0.00    -0.083 Cl
ATOM     16  C   UNL     1       7.295  -4.970  23.860  0.00  0.00    +0.043 A 
ATOM     17  C   UNL     1       8.439  -4.186  24.048  0.00  0.00    +0.085 A 
ATOM     18 CL   UNL     1       9.600  -4.714  25.214  0.00  0.00    -0.080 Cl
ENDBRANCH  10  11
ENDBRANCH   2  10
TORSDOF 3
ENDMDL
MODEL 6
REMARK VINA RESULT:      -5.8      1.929      2.623
REMARK  Name = 
REMARK  3 active torsions:
REMARK  status: ('A' for Active; 'I' for Inactive)
REMARK    1  A    between atoms: O_1  and  C_2
REMARK    2  A    between atoms: C_8  and  O_9
REMARK    3  A    between atoms: O_9  and  C_10
REMARK                            x       y       z     vdW  Elec       q    Type
REMARK                         _______ _______ _______ _____ _____    ______ ____
ROOT
ATOM      1  C   UNL     1       7.588   0.676  22.820  0.00  0.00    +0.160 A 
ATOM      2  C   UNL     1       8.630  -0.035  22.209  0.00  0.00    +0.170 A 
ATOM      3  C   UNL     1       9.837   0.616  21.929  0.00  0.00    +0.051 A 
ATOM      4  C   UNL     1      10.032   1.932  22.349  0.00  0.00    +0.024 A 
ATOM      5  C   UNL     1       9.004   2.613  23.000  0.00  0.00    +0.045 A 
ATOM      6 CL   UNL     1       9.262   4.227  23.537  0.00  0.00    -0.083 Cl
ATOM      7  C   UNL     1       7.771   1.999  23.218  0.00  0.00    +0.069 A 
ENDROOT
BRANCH   1   8
ATOM      8  O   UNL     1       6.384   0.061  23.029  0.00  0.00    -0.503 OA
ATOM      9  H   UNL     1       6.329  -0.240  23.950  0.00  0.00    +0.292 HD
ENDBRANCH   1   8
BRANCH   2  10
ATOM     10  O   UNL     1       8.391  -1.341  21.839  0.00  0.00    -0.451 OA
BRANCH  10  11
ATOM     11  C   UNL     1       8.483  -2.353  22.776  0.00  0.00    +0.147 A 
ATOM     12  C   UNL     1       9.545  -2.460  23.686  0.00  0.00    +0.049 A 
ATOM     13  C   UNL     1       9.560  -3.488  24.632  0.00  0.00    +0.023 A 
ATOM     14  C   UNL     1       8.496  -4.384  24.701  0.00  0.00    +0.043 A 
ATOM     15 CL   UNL     1       8.501  -5.622  25.897  0.00  0.00    -0.083 Cl
ATOM     16  C   UNL     1       7.423  -4.279  23.820  0.00  0.00    +0.043 A 
ATOM     17  C   UNL     1       7.419  -3.263  22.858  0.00  0.00    +0.085 A 
ATOM     18 CL   UNL     1       6.072  -3.175  21.779  0.00  0.00    -0.080 Cl
ENDBRANCH  10  11
ENDBRANCH   2  10
TORSDOF 3
ENDMDL
MODEL 7
REMARK VINA RESULT:      -5.8      1.883      2.496
REMARK  Name = 
REMARK  3 active torsions:
REMARK  status: ('A' for Active; 'I' for Inactive)
REMARK    1  A    between atoms: O_1  and  C_2
REMARK    2  A    between atoms: C_8  and  O_9
REMARK    3  A    between atoms: O_9  and  C_10
REMARK                            x       y       z     vdW  Elec       q    Type
REMARK                         _______ _______ _______ _____ _____    ______ ____
ROOT
ATOM      1  C   UNL     1       9.342  -2.516  23.830  0.00  0.00    +0.160 A 
ATOM      2  C   UNL     1       8.150  -2.798  23.148  0.00  0.00    +0.170 A 
ATOM      3  C   UNL     1       7.231  -1.768  22.913  0.00  0.00    +0.051 A 
ATOM      4  C   UNL     1       7.550  -0.457  23.267  0.00  0.00    +0.024 A 
ATOM      5  C   UNL     1       8.760  -0.183  23.902  0.00  0.00    +0.045 A 
ATOM      6 CL   UNL     1       9.156   1.440  24.312  0.00  0.00    -0.083 Cl
ATOM      7  C   UNL     1       9.652  -1.211  24.208  0.00  0.00    +0.069 A 
ENDROOT
BRANCH   1   8
ATOM      8  O   UNL     1      10.207  -3.535  24.123  0.00  0.00    -0.503 OA
ATOM      9  H   UNL     1       9.704  -4.340  24.327  0.00  0.00    +0.292 HD
ENDBRANCH   1   8
BRANCH   2  10
ATOM     10  O   UNL     1       7.900  -4.107  22.798  0.00  0.00    -0.451 OA
BRANCH  10  11
ATOM     11  C   UNL     1       6.988  -4.854  23.519  0.00  0.00    +0.147 A 
ATOM     12  C   UNL     1       6.903  -4.815  24.918  0.00  0.00    +0.049 A 
ATOM     13  C   UNL     1       5.934  -5.569  25.587  0.00  0.00    +0.023 A 
ATOM     14  C   UNL     1       5.021  -6.328  24.858  0.00  0.00    +0.043 A 
ATOM     15 CL   UNL     1       3.804  -7.220  25.685  0.00  0.00    -0.083 Cl
ATOM     16  C   UNL     1       5.078  -6.361  23.467  0.00  0.00    +0.043 A 
ATOM     17  C   UNL     1       6.062  -5.624  22.800  0.00  0.00    +0.085 A 
ATOM     18 CL   UNL     1       6.102  -5.701  21.074  0.00  0.00    -0.080 Cl
ENDBRANCH  10  11
ENDBRANCH   2  10
TORSDOF 3
ENDMDL
MODEL 8
REMARK VINA RESULT:      -5.7      2.303      6.109
REMARK  Name = 
REMARK  3 active torsions:
REMARK  status: ('A' for Active; 'I' for Inactive)
REMARK    1  A    between atoms: O_1  and  C_2
REMARK    2  A    between atoms: C_8  and  O_9
REMARK    3  A    between atoms: O_9  and  C_10
REMARK                            x       y       z     vdW  Elec       q    Type
REMARK                         _______ _______ _______ _____ _____    ______ ____
ROOT
ATOM      1  C   UNL     1       8.171  -3.548  24.915  0.00  0.00    +0.160 A 
ATOM      2  C   UNL     1       7.784  -2.283  24.452  0.00  0.00    +0.170 A 
ATOM      3  C   UNL     1       7.311  -2.144  23.141  0.00  0.00    +0.051 A 
ATOM      4  C   UNL     1       7.134  -3.273  22.342  0.00  0.00    +0.024 A 
ATOM      5  C   UNL     1       7.477  -4.532  22.832  0.00  0.00    +0.045 A 
ATOM      6 CL   UNL     1       7.231  -5.922  21.850  0.00  0.00    -0.083 Cl
ATOM      7  C   UNL     1       8.018  -4.675  24.110  0.00  0.00    +0.069 A 
ENDROOT
BRANCH   1   8
ATOM      8  O   UNL     1       8.698  -3.672  26.171  0.00  0.00    -0.503 OA
ATOM      9  H   UNL     1       8.670  -2.813  26.623  0.00  0.00    +0.292 HD
ENDBRANCH   1   8
BRANCH   2  10
ATOM     10  O   UNL     1       7.956  -1.206  25.294  0.00  0.00    -0.451 OA
BRANCH  10  11
ATOM     11  C   UNL     1       8.745  -0.140  24.903  0.00  0.00    +0.147 A 
ATOM     12  C   UNL     1      10.136  -0.233  24.751  0.00  0.00    +0.049 A 
ATOM     13  C   UNL     1      10.872   0.873  24.318  0.00  0.00    +0.023 A 
ATOM     14  C   UNL     1      10.217   2.059  23.994  0.00  0.00    +0.043 A 
ATOM     15 CL   UNL     1      11.125   3.404  23.420  0.00  0.00    -0.083 Cl
ATOM     16  C   UNL     1       8.834   2.162  24.119  0.00  0.00    +0.043 A 
ATOM     17  C   UNL     1       8.100   1.061  24.574  0.00  0.00    +0.085 A 
ATOM     18 CL   UNL     1       6.387   1.235  24.722  0.00  0.00    -0.080 Cl
ENDBRANCH  10  11
ENDBRANCH   2  10
TORSDOF 3
ENDMDL
MODEL 9
REMARK VINA RESULT:      -5.7      1.478      5.754
REMARK  Name = 
REMARK  3 active torsions:
REMARK  status: ('A' for Active; 'I' for Inactive)
REMARK    1  A    between atoms: O_1  and  C_2
REMARK    2  A    between atoms: C_8  and  O_9
REMARK    3  A    between atoms: O_9  and  C_10
REMARK                            x       y       z     vdW  Elec       q    Type
REMARK                         _______ _______ _______ _____ _____    ______ ____
ROOT
ATOM      1  C   UNL     1       9.173  -4.618  25.516  0.00  0.00    +0.160 A 
ATOM      2  C   UNL     1       8.901  -3.268  25.259  0.00  0.00    +0.170 A 
ATOM      3  C   UNL     1       7.765  -2.674  25.823  0.00  0.00    +0.051 A 
ATOM      4  C   UNL     1       6.972  -3.397  26.713  0.00  0.00    +0.024 A 
ATOM      5  C   UNL     1       7.281  -4.726  26.998  0.00  0.00    +0.045 A 
ATOM      6 CL   UNL     1       6.312  -5.603  28.117  0.00  0.00    -0.083 Cl
ATOM      7  C   UNL     1       8.367  -5.351  26.386  0.00  0.00    +0.069 A 
ENDROOT
BRANCH   1   8
ATOM      8  O   UNL     1      10.243  -5.217  24.908  0.00  0.00    -0.503 OA
ATOM      9  H   UNL     1       9.973  -6.080  24.553  0.00  0.00    +0.292 HD
ENDBRANCH   1   8
BRANCH   2  10
ATOM     10  O   UNL     1       9.734  -2.594  24.393  0.00  0.00    -0.451 OA
BRANCH  10  11
ATOM     11  C   UNL     1       9.522  -1.254  24.129  0.00  0.00    +0.147 A 
ATOM     12  C   UNL     1      10.111  -0.224  24.876  0.00  0.00    +0.049 A 
ATOM     13  C   UNL     1       9.883   1.113  24.536  0.00  0.00    +0.023 A 
ATOM     14  C   UNL     1       9.103   1.422  23.424  0.00  0.00    +0.043 A 
ATOM     15 CL   UNL     1       8.862   3.069  22.985  0.00  0.00    -0.083 Cl
ATOM     16  C   UNL     1       8.528   0.411  22.659  0.00  0.00    +0.043 A 
ATOM     17  C   UNL     1       8.738  -0.926  23.013  0.00  0.00    +0.085 A 
ATOM     18 CL   UNL     1       7.998  -2.148  22.041  0.00  0.00    -0.080 Cl
ENDBRANCH  10  11
ENDBRANCH   2  10
TORSDOF 3
ENDMDL
