MODEL 1
REMARK VINA RESULT:      -5.8      0.000      0.000
REMARK  Name = 
REMARK  9 active torsions:
REMARK  status: ('A' for Active; 'I' for Inactive)
REMARK    1  A    between atoms: C_1  and  C_2
REMARK    2  A    between atoms: C_2  and  O_3
REMARK    3  A    between atoms: O_3  and  C_4
REMARK    4  A    between atoms: C_7  and  C_8
REMARK    5  A    between atoms: C_8  and  C_9
REMARK    6  A    between atoms: C_9  and  N_10
REMARK    7  A    between atoms: N_10  and  C_11
REMARK    8  A    between atoms: C_11  and  N_13
REMARK    9  A    between atoms: C_17  and  C_20
REMARK                            x       y       z     vdW  Elec       q    Type
REMARK                         _______ _______ _______ _____ _____    ______ ____
ROOT
ATOM      1  N   UNL     1       7.528  -2.663  24.268  0.00  0.00    -0.326 N 
ATOM      2  H   UNL     1       7.367  -2.826  25.262  0.00  0.00    +0.148 HD
ENDROOT
BRANCH   1   3
ATOM      3  C   UNL     1       6.407  -2.287  23.574  0.00  0.00    +0.136 C 
ATOM      4  S   UNL     1       5.181  -3.312  23.068  0.00  0.00    -0.019 S 
BRANCH   3   5
ATOM      5  N   UNL     1       6.296  -0.982  23.198  0.00  0.00    -0.282 N 
ATOM      6  H   UNL     1       5.758  -0.859  22.349  0.00  0.00    +0.155 HD
ATOM      7  C   UNL     1       6.701   0.177  23.862  0.00  0.00    +0.124 A 
ATOM      8  C   UNL     1       6.521   1.393  23.201  0.00  0.00    +0.045 A 
ATOM      9  C   UNL     1       6.846   2.578  23.859  0.00  0.00    +0.024 A 
ATOM     10  C   UNL     1       7.320   2.519  25.167  0.00  0.00    +0.070 A 
ATOM     11  C   UNL     1       7.463   1.271  25.751  0.00  0.00    +0.131 A 
ATOM     12  N   UNL     1       7.184   0.102  25.121  0.00  0.00    -0.239 NA
BRANCH  10  13
ATOM     13  C   UNL     1       7.640   3.704  25.896  0.00  0.00    +0.101 C 
ATOM     14  N   UNL     1       7.899   4.668  26.489  0.00  0.00    -0.191 NA
ENDBRANCH  10  13
ENDBRANCH   3   5
ENDBRANCH   1   3
BRANCH   1  15
ATOM     15  C   UNL     1       8.715  -3.242  23.641  0.00  0.00    +0.109 C 
BRANCH  15  16
ATOM     16  C   UNL     1      10.040  -2.536  23.928  0.00  0.00    +0.077 C 
BRANCH  16  21
ATOM     17  C   UNL     1      10.302   1.193  23.196  0.00  0.00    +0.159 A 
ATOM     18  C   UNL     1       9.760   1.212  21.914  0.00  0.00    +0.068 A 
ATOM     19  C   UNL     1       9.402   0.003  21.336  0.00  0.00    +0.115 A 
ATOM     20  N   UNL     1       9.530  -1.199  21.943  0.00  0.00    -0.257 NA
ATOM     21  C   UNL     1      10.047  -1.210  23.199  0.00  0.00    +0.081 A 
ATOM     22  C   UNL     1      10.447  -0.040  23.842  0.00  0.00    +0.186 A 
ATOM     23  F   UNL     1      10.940  -0.093  25.089  0.00  0.00    -0.200 F 
BRANCH  17  24
ATOM     24  O   UNL     1      10.704   2.297  23.904  0.00  0.00    -0.489 OA
BRANCH  24  26
ATOM     25  C   UNL     1      11.764   4.375  23.392  0.00  0.00    +0.048 C 
ATOM     26  C   UNL     1      10.472   3.580  23.321  0.00  0.00    +0.226 C 
ENDBRANCH  24  26
ENDBRANCH  17  24
ENDBRANCH  16  21
ENDBRANCH  15  16
ENDBRANCH   1  15
TORSDOF 8
ENDMDL
MODEL 2
REMARK VINA RESULT:      -5.6      3.167      6.297
REMARK  Name = 
REMARK  9 active torsions:
REMARK  status: ('A' for Active; 'I' for Inactive)
REMARK    1  A    between atoms: C_1  and  C_2
REMARK    2  A    between atoms: C_2  and  O_3
REMARK    3  A    between atoms: O_3  and  C_4
REMARK    4  A    between atoms: C_7  and  C_8
REMARK    5  A    between atoms: C_8  and  C_9
REMARK    6  A    between atoms: C_9  and  N_10
REMARK    7  A    between atoms: N_10  and  C_11
REMARK    8  A    between atoms: C_11  and  N_13
REMARK    9  A    between atoms: C_17  and  C_20
REMARK                            x       y       z     vdW  Elec       q    Type
REMARK                         _______ _______ _______ _____ _____    ______ ____
ROOT
ATOM      1  N   UNL     1       9.793   4.546  24.259  0.00  0.00    -0.326 N 
ATOM      2  H   UNL     1      10.014   4.460  25.251  0.00  0.00    +0.148 HD
ENDROOT
BRANCH   1   3
ATOM      3  C   UNL     1      10.794   4.122  23.425  0.00  0.00    +0.136 C 
ATOM      4  S   UNL     1      12.287   4.861  23.235  0.00  0.00    -0.019 S 
BRANCH   3   5
ATOM      5  N   UNL     1      10.547   3.047  22.625  0.00  0.00    -0.282 N 
ATOM      6  H   UNL     1      10.640   3.256  21.639  0.00  0.00    +0.155 HD
ATOM      7  C   UNL     1      10.314   1.713  22.967  0.00  0.00    +0.124 A 
ATOM      8  C   UNL     1      10.018   0.827  21.931  0.00  0.00    +0.045 A 
ATOM      9  C   UNL     1       9.848  -0.526  22.223  0.00  0.00    +0.024 A 
ATOM     10  C   UNL     1      10.004  -0.961  23.537  0.00  0.00    +0.070 A 
ATOM     11  C   UNL     1      10.305  -0.014  24.503  0.00  0.00    +0.131 A 
ATOM     12  N   UNL     1      10.442   1.312  24.250  0.00  0.00    -0.239 NA
BRANCH  10  13
ATOM     13  C   UNL     1       9.870  -2.338  23.885  0.00  0.00    +0.101 C 
ATOM     14  N   UNL     1       9.762  -3.460  24.167  0.00  0.00    -0.191 NA
ENDBRANCH  10  13
ENDBRANCH   3   5
ENDBRANCH   1   3
BRANCH   1  15
ATOM     15  C   UNL     1       8.727   5.458  23.850  0.00  0.00    +0.109 C 
BRANCH  15  16
ATOM     16  C   UNL     1       7.385   4.813  23.503  0.00  0.00    +0.077 C 
BRANCH  16  21
ATOM     17  C   UNL     1       6.798   1.109  24.165  0.00  0.00    +0.159 A 
ATOM     18  C   UNL     1       6.877   1.111  25.555  0.00  0.00    +0.068 A 
ATOM     19  C   UNL     1       7.182   2.304  26.192  0.00  0.00    +0.115 A 
ATOM     20  N   UNL     1       7.394   3.477  25.552  0.00  0.00    -0.257 NA
ATOM     21  C   UNL     1       7.302   3.472  24.198  0.00  0.00    +0.081 A 
ATOM     22  C   UNL     1       7.017   2.310  23.483  0.00  0.00    +0.186 A 
ATOM     23  F   UNL     1       6.921   2.351  22.144  0.00  0.00    -0.200 F 
BRANCH  17  24
ATOM     24  O   UNL     1       6.506   0.017  23.389  0.00  0.00    -0.489 OA
BRANCH  24  26
ATOM     25  C   UNL     1       6.199  -2.319  22.996  0.00  0.00    +0.048 C 
ATOM     26  C   UNL     1       6.290  -1.230  24.051  0.00  0.00    +0.226 C 
ENDBRANCH  24  26
ENDBRANCH  17  24
ENDBRANCH  16  21
ENDBRANCH  15  16
ENDBRANCH   1  15
TORSDOF 8
ENDMDL
MODEL 3
REMARK VINA RESULT:      -5.4      3.984      7.153
REMARK  Name = 
REMARK  9 active torsions:
REMARK  status: ('A' for Active; 'I' for Inactive)
REMARK    1  A    between atoms: C_1  and  C_2
REMARK    2  A    between atoms: C_2  and  O_3
REMARK    3  A    between atoms: O_3  and  C_4
REMARK    4  A    between atoms: C_7  and  C_8
REMARK    5  A    between atoms: C_8  and  C_9
REMARK    6  A    between atoms: C_9  and  N_10
REMARK    7  A    between atoms: N_10  and  C_11
REMARK    8  A    between atoms: C_11  and  N_13
REMARK    9  A    between atoms: C_17  and  C_20
REMARK                            x       y       z     vdW  Elec       q    Type
REMARK                         _______ _______ _______ _____ _____    ______ ____
ROOT
ATOM      1  N   UNL     1       8.099  -0.656  23.961  0.00  0.00    -0.326 N 
ATOM      2  H   UNL     1       7.083  -0.591  24.015  0.00  0.00    +0.148 HD
ENDROOT
BRANCH   1   3
ATOM      3  C   UNL     1       8.567  -1.143  22.769  0.00  0.00    +0.136 C 
ATOM      4  S   UNL     1       9.318  -0.241  21.572  0.00  0.00    -0.019 S 
BRANCH   3   5
ATOM      5  N   UNL     1       8.355  -2.459  22.489  0.00  0.00    -0.282 N 
ATOM      6  H   UNL     1       9.207  -2.960  22.267  0.00  0.00    +0.155 HD
ATOM      7  C   UNL     1       7.185  -3.216  22.581  0.00  0.00    +0.124 A 
ATOM      8  C   UNL     1       7.244  -4.544  22.156  0.00  0.00    +0.045 A 
ATOM      9  C   UNL     1       6.117  -5.352  22.298  0.00  0.00    +0.024 A 
ATOM     10  C   UNL     1       4.970  -4.820  22.881  0.00  0.00    +0.070 A 
ATOM     11  C   UNL     1       5.000  -3.493  23.281  0.00  0.00    +0.131 A 
ATOM     12  N   UNL     1       6.073  -2.677  23.124  0.00  0.00    -0.239 NA
BRANCH  10  13
ATOM     13  C   UNL     1       3.799  -5.612  23.077  0.00  0.00    +0.101 C 
ATOM     14  N   UNL     1       2.846  -6.256  23.238  0.00  0.00    -0.191 NA
ENDBRANCH  10  13
ENDBRANCH   3   5
ENDBRANCH   1   3
BRANCH   1  15
ATOM     15  C   UNL     1       8.872  -0.668  25.203  0.00  0.00    +0.109 C 
BRANCH  15  16
ATOM     16  C   UNL     1       8.255  -1.435  26.373  0.00  0.00    +0.077 C 
BRANCH  16  21
ATOM     17  C   UNL     1       7.523  -5.172  26.417  0.00  0.00    +0.159 A 
ATOM     18  C   UNL     1       8.616  -5.627  25.685  0.00  0.00    +0.068 A 
ATOM     19  C   UNL     1       9.492  -4.687  25.163  0.00  0.00    +0.115 A 
ATOM     20  N   UNL     1       9.364  -3.350  25.331  0.00  0.00    -0.257 NA
ATOM     21  C   UNL     1       8.304  -2.914  26.058  0.00  0.00    +0.081 A 
ATOM     22  C   UNL     1       7.369  -3.794  26.600  0.00  0.00    +0.186 A 
ATOM     23  F   UNL     1       6.342  -3.321  27.325  0.00  0.00    -0.200 F 
BRANCH  17  24
ATOM     24  O   UNL     1       6.570  -5.970  26.997  0.00  0.00    -0.489 OA
BRANCH  24  26
ATOM     25  C   UNL     1       4.215  -6.351  27.101  0.00  0.00    +0.048 C 
ATOM     26  C   UNL     1       5.441  -6.338  26.205  0.00  0.00    +0.226 C 
ENDBRANCH  24  26
ENDBRANCH  17  24
ENDBRANCH  16  21
ENDBRANCH  15  16
ENDBRANCH   1  15
TORSDOF 8
ENDMDL
MODEL 4
REMARK VINA RESULT:      -5.4      4.018      6.616
REMARK  Name = 
REMARK  9 active torsions:
REMARK  status: ('A' for Active; 'I' for Inactive)
REMARK    1  A    between atoms: C_1  and  C_2
REMARK    2  A    between atoms: C_2  and  O_3
REMARK    3  A    between atoms: O_3  and  C_4
REMARK    4  A    between atoms: C_7  and  C_8
REMARK    5  A    between atoms: C_8  and  C_9
REMARK    6  A    between atoms: C_9  and  N_10
REMARK    7  A    between atoms: N_10  and  C_11
REMARK    8  A    between atoms: C_11  and  N_13
REMARK    9  A    between atoms: C_17  and  C_20
REMARK                            x       y       z     vdW  Elec       q    Type
REMARK                         _______ _______ _______ _____ _____    ______ ____
ROOT
ATOM      1  N   UNL     1       7.932  -5.720  26.803  0.00  0.00    -0.326 N 
ATOM      2  H   UNL     1       8.078  -6.618  26.343  0.00  0.00    +0.148 HD
ENDROOT
BRANCH   1   3
ATOM      3  C   UNL     1       6.640  -5.497  27.200  0.00  0.00    +0.136 C 
ATOM      4  S   UNL     1       5.959  -6.006  28.644  0.00  0.00    -0.019 S 
BRANCH   3   5
ATOM      5  N   UNL     1       5.804  -4.864  26.329  0.00  0.00    -0.282 N 
ATOM      6  H   UNL     1       6.020  -3.882  26.215  0.00  0.00    +0.155 HD
ATOM      7  C   UNL     1       4.804  -5.390  25.508  0.00  0.00    +0.124 A 
ATOM      8  C   UNL     1       4.047  -4.488  24.760  0.00  0.00    +0.045 A 
ATOM      9  C   UNL     1       3.087  -4.977  23.876  0.00  0.00    +0.024 A 
ATOM     10  C   UNL     1       2.926  -6.354  23.743  0.00  0.00    +0.070 A 
ATOM     11  C   UNL     1       3.725  -7.179  24.520  0.00  0.00    +0.131 A 
ATOM     12  N   UNL     1       4.642  -6.727  25.411  0.00  0.00    -0.239 NA
BRANCH  10  13
ATOM     13  C   UNL     1       1.979  -6.908  22.831  0.00  0.00    +0.101 C 
ATOM     14  N   UNL     1       1.207  -7.361  22.090  0.00  0.00    -0.191 NA
ENDBRANCH  10  13
ENDBRANCH   3   5
ENDBRANCH   1   3
BRANCH   1  15
ATOM     15  C   UNL     1       8.914  -4.655  26.600  0.00  0.00    +0.109 C 
BRANCH  15  16
ATOM     16  C   UNL     1       9.714  -4.716  25.299  0.00  0.00    +0.077 C 
BRANCH  16  21
ATOM     17  C   UNL     1       8.108  -2.259  22.872  0.00  0.00    +0.159 A 
ATOM     18  C   UNL     1       7.100  -3.071  22.360  0.00  0.00    +0.068 A 
ATOM     19  C   UNL     1       7.041  -4.390  22.785  0.00  0.00    +0.115 A 
ATOM     20  N   UNL     1       7.894  -4.940  23.680  0.00  0.00    -0.257 NA
ATOM     21  C   UNL     1       8.867  -4.140  24.186  0.00  0.00    +0.081 A 
ATOM     22  C   UNL     1       9.003  -2.808  23.796  0.00  0.00    +0.186 A 
ATOM     23  F   UNL     1       9.970  -2.047  24.331  0.00  0.00    -0.200 F 
BRANCH  17  24
ATOM     24  O   UNL     1       8.301  -0.939  22.555  0.00  0.00    -0.489 OA
BRANCH  24  26
ATOM     25  C   UNL     1       9.839   0.742  21.841  0.00  0.00    +0.048 C 
ATOM     26  C   UNL     1       9.264  -0.632  21.546  0.00  0.00    +0.226 C 
ENDBRANCH  24  26
ENDBRANCH  17  24
ENDBRANCH  16  21
ENDBRANCH  15  16
ENDBRANCH   1  15
TORSDOF 8
ENDMDL
MODEL 5
REMARK VINA RESULT:      -5.3      2.826      5.875
REMARK  Name = 
REMARK  9 active torsions:
REMARK  status: ('A' for Active; 'I' for Inactive)
REMARK    1  A    between atoms: C_1  and  C_2
REMARK    2  A    between atoms: C_2  and  O_3
REMARK    3  A    between atoms: O_3  and  C_4
REMARK    4  A    between atoms: C_7  and  C_8
REMARK    5  A    between atoms: C_8  and  C_9
REMARK    6  A    between atoms: C_9  and  N_10
REMARK    7  A    between atoms: N_10  and  C_11
REMARK    8  A    between atoms: C_11  and  N_13
REMARK    9  A    between atoms: C_17  and  C_20
REMARK                            x       y       z     vdW  Elec       q    Type
REMARK                         _______ _______ _______ _____ _____    ______ ____
ROOT
ATOM      1  N   UNL     1       7.995   1.084  22.689  0.00  0.00    -0.326 N 
ATOM      2  H   UNL     1       7.990   0.866  21.693  0.00  0.00    +0.148 HD
ENDROOT
BRANCH   1   3
ATOM      3  C   UNL     1       6.747   1.224  23.238  0.00  0.00    +0.136 C 
ATOM      4  S   UNL     1       5.861   2.646  23.301  0.00  0.00    -0.019 S 
BRANCH   3   5
ATOM      5  N   UNL     1       6.191   0.140  23.847  0.00  0.00    -0.282 N 
ATOM      6  H   UNL     1       5.536   0.388  24.577  0.00  0.00    +0.155 HD
ATOM      7  C   UNL     1       6.301  -1.217  23.533  0.00  0.00    +0.124 A 
ATOM      8  C   UNL     1       5.671  -2.126  24.382  0.00  0.00    +0.045 A 
ATOM      9  C   UNL     1       5.698  -3.483  24.064  0.00  0.00    +0.024 A 
ATOM     10  C   UNL     1       6.333  -3.893  22.894  0.00  0.00    +0.070 A 
ATOM     11  C   UNL     1       6.928  -2.922  22.105  0.00  0.00    +0.131 A 
ATOM     12  N   UNL     1       6.944  -1.600  22.409  0.00  0.00    -0.239 NA
BRANCH  10  13
ATOM     13  C   UNL     1       6.364  -5.266  22.507  0.00  0.00    +0.101 C 
ATOM     14  N   UNL     1       6.391  -6.383  22.190  0.00  0.00    -0.191 NA
ENDBRANCH  10  13
ENDBRANCH   3   5
ENDBRANCH   1   3
BRANCH   1  15
ATOM     15  C   UNL     1       9.210   1.638  23.284  0.00  0.00    +0.109 C 
BRANCH  15  16
ATOM     16  C   UNL     1      10.356   0.653  23.517  0.00  0.00    +0.077 C 
BRANCH  16  21
ATOM     17  C   UNL     1       9.366  -2.756  24.898  0.00  0.00    +0.159 A 
ATOM     18  C   UNL     1       8.711  -2.350  26.057  0.00  0.00    +0.068 A 
ATOM     19  C   UNL     1       8.686  -0.996  26.356  0.00  0.00    +0.115 A 
ATOM     20  N   UNL     1       9.246  -0.035  25.585  0.00  0.00    -0.257 NA
ATOM     21  C   UNL     1       9.871  -0.436  24.449  0.00  0.00    +0.081 A 
ATOM     22  C   UNL     1       9.955  -1.779  24.088  0.00  0.00    +0.186 A 
ATOM     23  F   UNL     1      10.571  -2.132  22.948  0.00  0.00    -0.200 F 
BRANCH  17  24
ATOM     24  O   UNL     1       9.478  -4.051  24.463  0.00  0.00    -0.489 OA
BRANCH  24  26
ATOM     25  C   UNL     1       8.255  -5.651  25.746  0.00  0.00    +0.048 C 
ATOM     26  C   UNL     1       9.627  -5.072  25.450  0.00  0.00    +0.226 C 
ENDBRANCH  24  26
ENDBRANCH  17  24
ENDBRANCH  16  21
ENDBRANCH  15  16
ENDBRANCH   1  15
TORSDOF 8
ENDMDL
MODEL 6
REMARK VINA RESULT:      -5.3      3.786      5.855
REMARK  Name = 
REMARK  9 active torsions:
REMARK  status: ('A' for Active; 'I' for Inactive)
REMARK    1  A    between atoms: C_1  and  C_2
REMARK    2  A    between atoms: C_2  and  O_3
REMARK    3  A    between atoms: O_3  and  C_4
REMARK    4  A    between atoms: C_7  and  C_8
REMARK    5  A    between atoms: C_8  and  C_9
REMARK    6  A    between atoms: C_9  and  N_10
REMARK    7  A    between atoms: N_10  and  C_11
REMARK    8  A    between atoms: C_11  and  N_13
REMARK    9  A    between atoms: C_17  and  C_20
REMARK                            x       y       z     vdW  Elec       q    Type
REMARK                         _______ _______ _______ _____ _____    ______ ____
ROOT
ATOM      1  N   UNL     1       4.881  -6.388  24.808  0.00  0.00    -0.326 N 
ATOM      2  H   UNL     1       5.827  -6.470  24.436  0.00  0.00    +0.148 HD
ENDROOT
BRANCH   1   3
ATOM      3  C   UNL     1       4.065  -5.558  24.085  0.00  0.00    +0.136 C 
ATOM      4  S   UNL     1       2.675  -6.021  23.269  0.00  0.00    -0.019 S 
BRANCH   3   5
ATOM      5  N   UNL     1       4.435  -4.253  23.953  0.00  0.00    -0.282 N 
ATOM      6  H   UNL     1       3.748  -3.607  24.321  0.00  0.00    +0.155 HD
ATOM      7  C   UNL     1       5.641  -3.706  23.510  0.00  0.00    +0.124 A 
ATOM      8  C   UNL     1       5.718  -2.317  23.410  0.00  0.00    +0.045 A 
ATOM      9  C   UNL     1       6.927  -1.729  23.040  0.00  0.00    +0.024 A 
ATOM     10  C   UNL     1       8.032  -2.542  22.802  0.00  0.00    +0.070 A 
ATOM     11  C   UNL     1       7.869  -3.912  22.929  0.00  0.00    +0.131 A 
ATOM     12  N   UNL     1       6.696  -4.511  23.257  0.00  0.00    -0.239 NA
BRANCH  10  13
ATOM     13  C   UNL     1       9.299  -1.990  22.448  0.00  0.00    +0.101 C 
ATOM     14  N   UNL     1      10.331  -1.540  22.162  0.00  0.00    -0.191 NA
ENDBRANCH  10  13
ENDBRANCH   3   5
ENDBRANCH   1   3
BRANCH   1  15
ATOM     15  C   UNL     1       4.637  -6.754  26.202  0.00  0.00    +0.109 C 
BRANCH  15  16
ATOM     16  C   UNL     1       4.776  -5.629  27.228  0.00  0.00    +0.077 C 
BRANCH  16  21
ATOM     17  C   UNL     1       7.485  -3.015  26.646  0.00  0.00    +0.159 A 
ATOM     18  C   UNL     1       8.569  -3.858  26.419  0.00  0.00    +0.068 A 
ATOM     19  C   UNL     1       8.371  -5.226  26.533  0.00  0.00    +0.115 A 
ATOM     20  N   UNL     1       7.185  -5.801  26.837  0.00  0.00    -0.257 NA
ATOM     21  C   UNL     1       6.128  -4.975  27.044  0.00  0.00    +0.081 A 
ATOM     22  C   UNL     1       6.249  -3.588  26.966  0.00  0.00    +0.186 A 
ATOM     23  F   UNL     1       5.175  -2.807  27.164  0.00  0.00    -0.200 F 
BRANCH  17  24
ATOM     24  O   UNL     1       7.515  -1.646  26.573  0.00  0.00    -0.489 OA
BRANCH  24  26
ATOM     25  C   UNL     1       9.029  -0.088  25.581  0.00  0.00    +0.048 C 
ATOM     26  C   UNL     1       8.773  -0.999  26.769  0.00  0.00    +0.226 C 
ENDBRANCH  24  26
ENDBRANCH  17  24
ENDBRANCH  16  21
ENDBRANCH  15  16
ENDBRANCH   1  15
TORSDOF 8
ENDMDL
MODEL 7
REMARK VINA RESULT:      -5.3      2.709      3.849
REMARK  Name = 
REMARK  9 active torsions:
REMARK  status: ('A' for Active; 'I' for Inactive)
REMARK    1  A    between atoms: C_1  and  C_2
REMARK    2  A    between atoms: C_2  and  O_3
REMARK    3  A    between atoms: O_3  and  C_4
REMARK    4  A    between atoms: C_7  and  C_8
REMARK    5  A    between atoms: C_8  and  C_9
REMARK    6  A    between atoms: C_9  and  N_10
REMARK    7  A    between atoms: N_10  and  C_11
REMARK    8  A    between atoms: C_11  and  N_13
REMARK    9  A    between atoms: C_17  and  C_20
REMARK                            x       y       z     vdW  Elec       q    Type
REMARK                         _______ _______ _______ _____ _____    ______ ____
ROOT
ATOM      1  N   UNL     1       5.433  -4.306  25.032  0.00  0.00    -0.326 N 
ATOM      2  H   UNL     1       5.169  -3.514  24.447  0.00  0.00    +0.148 HD
ENDROOT
BRANCH   1   3
ATOM      3  C   UNL     1       5.657  -3.984  26.345  0.00  0.00    +0.136 C 
ATOM      4  S   UNL     1       4.629  -4.325  27.625  0.00  0.00    -0.019 S 
BRANCH   3   5
ATOM      5  N   UNL     1       6.776  -3.267  26.645  0.00  0.00    -0.282 N 
ATOM      6  H   UNL     1       7.479  -3.812  27.127  0.00  0.00    +0.155 HD
ATOM      7  C   UNL     1       7.127  -1.964  26.285  0.00  0.00    +0.124 A 
ATOM      8  C   UNL     1       8.319  -1.454  26.799  0.00  0.00    +0.045 A 
ATOM      9  C   UNL     1       8.739  -0.184  26.407  0.00  0.00    +0.024 A 
ATOM     10  C   UNL     1       7.970   0.533  25.494  0.00  0.00    +0.070 A 
ATOM     11  C   UNL     1       6.803  -0.051  25.029  0.00  0.00    +0.131 A 
ATOM     12  N   UNL     1       6.356  -1.271  25.419  0.00  0.00    -0.239 NA
BRANCH  10  13
ATOM     13  C   UNL     1       8.369   1.824  25.037  0.00  0.00    +0.101 C 
ATOM     14  N   UNL     1       8.693   2.877  24.666  0.00  0.00    -0.191 NA
ENDBRANCH  10  13
ENDBRANCH   3   5
ENDBRANCH   1   3
BRANCH   1  15
ATOM     15  C   UNL     1       5.956  -5.512  24.392  0.00  0.00    +0.109 C 
BRANCH  15  16
ATOM     16  C   UNL     1       6.749  -5.300  23.102  0.00  0.00    +0.077 C 
BRANCH  16  21
ATOM     17  C   UNL     1       8.870  -2.160  22.710  0.00  0.00    +0.159 A 
ATOM     18  C   UNL     1       9.866  -2.442  23.641  0.00  0.00    +0.068 A 
ATOM     19  C   UNL     1       9.755  -3.604  24.389  0.00  0.00    +0.115 A 
ATOM     20  N   UNL     1       8.746  -4.497  24.264  0.00  0.00    -0.257 NA
ATOM     21  C   UNL     1       7.785  -4.224  23.345  0.00  0.00    +0.081 A 
ATOM     22  C   UNL     1       7.815  -3.069  22.567  0.00  0.00    +0.186 A 
ATOM     23  F   UNL     1       6.851  -2.844  21.660  0.00  0.00    -0.200 F 
BRANCH  17  24
ATOM     24  O   UNL     1       8.833  -1.058  21.896  0.00  0.00    -0.489 OA
BRANCH  24  26
ATOM     25  C   UNL     1       9.292   1.251  21.495  0.00  0.00    +0.048 C 
ATOM     26  C   UNL     1       9.804  -0.036  22.119  0.00  0.00    +0.226 C 
ENDBRANCH  24  26
ENDBRANCH  17  24
ENDBRANCH  16  21
ENDBRANCH  15  16
ENDBRANCH   1  15
TORSDOF 8
ENDMDL
MODEL 8
REMARK VINA RESULT:      -5.2      2.404      4.844
REMARK  Name = 
REMARK  9 active torsions:
REMARK  status: ('A' for Active; 'I' for Inactive)
REMARK    1  A    between atoms: C_1  and  C_2
REMARK    2  A    between atoms: C_2  and  O_3
REMARK    3  A    between atoms: O_3  and  C_4
REMARK    4  A    between atoms: C_7  and  C_8
REMARK    5  A    between atoms: C_8  and  C_9
REMARK    6  A    between atoms: C_9  and  N_10
REMARK    7  A    between atoms: N_10  and  C_11
REMARK    8  A    between atoms: C_11  and  N_13
REMARK    9  A    between atoms: C_17  and  C_20
REMARK                            x       y       z     vdW  Elec       q    Type
REMARK                         _______ _______ _______ _____ _____    ______ ____
ROOT
ATOM      1  N   UNL     1       7.831   2.498  24.066  0.00  0.00    -0.326 N 
ATOM      2  H   UNL     1       7.860   2.125  25.015  0.00  0.00    +0.148 HD
ENDROOT
BRANCH   1   3
ATOM      3  C   UNL     1       6.715   2.139  23.357  0.00  0.00    +0.136 C 
ATOM      4  S   UNL     1       5.567   3.194  22.741  0.00  0.00    -0.019 S 
BRANCH   3   5
ATOM      5  N   UNL     1       6.468   0.810  23.183  0.00  0.00    -0.282 N 
ATOM      6  H   UNL     1       6.387   0.546  22.209  0.00  0.00    +0.155 HD
ATOM      7  C   UNL     1       6.433  -0.223  24.122  0.00  0.00    +0.124 A 
ATOM      8  C   UNL     1       6.080  -1.494  23.666  0.00  0.00    +0.045 A 
ATOM      9  C   UNL     1       6.103  -2.565  24.557  0.00  0.00    +0.024 A 
ATOM     10  C   UNL     1       6.500  -2.344  25.873  0.00  0.00    +0.070 A 
ATOM     11  C   UNL     1       6.840  -1.052  26.241  0.00  0.00    +0.131 A 
ATOM     12  N   UNL     1       6.795   0.013  25.401  0.00  0.00    -0.239 NA
BRANCH  10  13
ATOM     13  C   UNL     1       6.569  -3.411  26.819  0.00  0.00    +0.101 C 
ATOM     14  N   UNL     1       6.626  -4.277  27.590  0.00  0.00    -0.191 NA
ENDBRANCH  10  13
ENDBRANCH   3   5
ENDBRANCH   1   3
BRANCH   1  15
ATOM     15  C   UNL     1       9.077   2.947  23.447  0.00  0.00    +0.109 C 
BRANCH  15  16
ATOM     16  C   UNL     1      10.292   2.039  23.643  0.00  0.00    +0.077 C 
BRANCH  16  21
ATOM     17  C   UNL     1       9.818  -1.740  23.665  0.00  0.00    +0.159 A 
ATOM     18  C   UNL     1       9.495  -1.936  22.325  0.00  0.00    +0.068 A 
ATOM     19  C   UNL     1       9.385  -0.822  21.507  0.00  0.00    +0.115 A 
ATOM     20  N   UNL     1       9.587   0.451  21.921  0.00  0.00    -0.257 NA
ATOM     21  C   UNL     1       9.915   0.634  23.226  0.00  0.00    +0.081 A 
ATOM     22  C   UNL     1      10.028  -0.432  24.116  0.00  0.00    +0.186 A 
ATOM     23  F   UNL     1      10.368  -0.207  25.395  0.00  0.00    -0.200 F 
BRANCH  17  24
ATOM     24  O   UNL     1       9.964  -2.732  24.599  0.00  0.00    -0.489 OA
BRANCH  24  26
ATOM     25  C   UNL     1       9.715  -4.951  25.446  0.00  0.00    +0.048 C 
ATOM     26  C   UNL     1       9.314  -3.979  24.350  0.00  0.00    +0.226 C 
ENDBRANCH  24  26
ENDBRANCH  17  24
ENDBRANCH  16  21
ENDBRANCH  15  16
ENDBRANCH   1  15
TORSDOF 8
ENDMDL
MODEL 9
REMARK VINA RESULT:      -5.2      3.047      5.437
REMARK  Name = 
REMARK  9 active torsions:
REMARK  status: ('A' for Active; 'I' for Inactive)
REMARK    1  A    between atoms: C_1  and  C_2
REMARK    2  A    between atoms: C_2  and  O_3
REMARK    3  A    between atoms: O_3  and  C_4
REMARK    4  A    between atoms: C_7  and  C_8
REMARK    5  A    between atoms: C_8  and  C_9
REMARK    6  A    between atoms: C_9  and  N_10
REMARK    7  A    between atoms: N_10  and  C_11
REMARK    8  A    between atoms: C_11  and  N_13
REMARK    9  A    between atoms: C_17  and  C_20
REMARK                            x       y       z     vdW  Elec       q    Type
REMARK                         _______ _______ _______ _____ _____    ______ ____
ROOT
ATOM      1  N   UNL     1       9.317  -2.915  24.526  0.00  0.00    -0.326 N 
ATOM      2  H   UNL     1       9.623  -3.883  24.625  0.00  0.00    +0.148 HD
ENDROOT
BRANCH   1   3
ATOM      3  C   UNL     1       8.657  -2.422  25.621  0.00  0.00    +0.136 C 
ATOM      4  S   UNL     1       8.663  -0.824  26.129  0.00  0.00    -0.019 S 
BRANCH   3   5
ATOM      5  N   UNL     1       7.984  -3.303  26.413  0.00  0.00    -0.282 N 
ATOM      6  H   UNL     1       8.109  -3.124  27.401  0.00  0.00    +0.155 HD
ATOM      7  C   UNL     1       7.079  -4.308  26.064  0.00  0.00    +0.124 A 
ATOM      8  C   UNL     1       6.590  -5.117  27.090  0.00  0.00    +0.045 A 
ATOM      9  C   UNL     1       5.631  -6.084  26.793  0.00  0.00    +0.024 A 
ATOM     10  C   UNL     1       5.169  -6.202  25.485  0.00  0.00    +0.070 A 
ATOM     11  C   UNL     1       5.704  -5.354  24.528  0.00  0.00    +0.131 A 
ATOM     12  N   UNL     1       6.661  -4.427  24.785  0.00  0.00    -0.239 NA
BRANCH  10  13
ATOM     13  C   UNL     1       4.167  -7.156  25.132  0.00  0.00    +0.101 C 
ATOM     14  N   UNL     1       3.353  -7.932  24.843  0.00  0.00    -0.191 NA
ENDBRANCH  10  13
ENDBRANCH   3   5
ENDBRANCH   1   3
BRANCH   1  15
ATOM     15  C   UNL     1       9.206  -2.343  23.185  0.00  0.00    +0.109 C 
BRANCH  15  16
ATOM     16  C   UNL     1      10.417  -1.556  22.685  0.00  0.00    +0.077 C 
BRANCH  16  21
ATOM     17  C   UNL     1       9.917   2.201  23.066  0.00  0.00    +0.159 A 
ATOM     18  C   UNL     1       8.949   2.401  22.086  0.00  0.00    +0.068 A 
ATOM     19  C   UNL     1       8.562   1.316  21.314  0.00  0.00    +0.115 A 
ATOM     20  N   UNL     1       9.054   0.064  21.459  0.00  0.00    -0.257 NA
ATOM     21  C   UNL     1       9.989  -0.128  22.425  0.00  0.00    +0.081 A 
ATOM     22  C   UNL     1      10.443   0.915  23.231  0.00  0.00    +0.186 A 
ATOM     23  F   UNL     1      11.358   0.678  24.184  0.00  0.00    -0.200 F 
BRANCH  17  24
ATOM     24  O   UNL     1      10.405   3.166  23.908  0.00  0.00    -0.489 OA
BRANCH  24  26
ATOM     25  C   UNL     1      11.091   5.443  23.700  0.00  0.00    +0.048 C 
ATOM     26  C   UNL     1      11.461   3.996  23.426  0.00  0.00    +0.226 C 
ENDBRANCH  24  26
ENDBRANCH  17  24
ENDBRANCH  16  21
ENDBRANCH  15  16
ENDBRANCH   1  15
TORSDOF 8
ENDMDL
