MODEL 1
REMARK VINA RESULT:      -5.5      0.000      0.000
REMARK  Name = 
REMARK  8 active torsions:
REMARK  status: ('A' for Active; 'I' for Inactive)
REMARK    1  A    between atoms: C_1  and  C_2
REMARK    2  A    between atoms: C_2  and  N_3
REMARK    3  A    between atoms: N_3  and  C_4
REMARK    4  A    between atoms: N_3  and  C_6
REMARK    5  A    between atoms: C_4  and  C_5
REMARK    6  A    between atoms: C_6  and  C_7
REMARK    7  A    between atoms: C_6  and  C_8
REMARK    8  A    between atoms: C_8  and  C_10
REMARK                            x       y       z     vdW  Elec       q    Type
REMARK                         _______ _______ _______ _____ _____    ______ ____
ROOT
ATOM      1  C   UNL     1       9.603  -1.982  23.218  0.00  0.00    +0.180 C 
ATOM      2  O   UNL     1      10.573  -2.736  23.298  0.00  0.00    -0.290 OA
ENDROOT
BRANCH   1   3
ATOM      3  C   UNL     1       9.867  -0.500  23.154  0.00  0.00    +0.019 A 
ATOM      4  C   UNL     1       9.532   0.179  21.974  0.00  0.00    +0.011 A 
ATOM      5  C   UNL     1       9.780   1.548  21.844  0.00  0.00    +0.001 A 
ATOM      6  C   UNL     1      10.364   2.253  22.893  0.00  0.00    +0.000 A 
ATOM      7  C   UNL     1      10.702   1.591  24.071  0.00  0.00    +0.001 A 
ATOM      8  C   UNL     1      10.456   0.221  24.203  0.00  0.00    +0.011 A 
ENDBRANCH   1   3
BRANCH   1   9
ATOM      9  C   UNL     1       8.138  -2.479  23.245  0.00  0.00    +0.125 C 
ATOM     10  C   UNL     1       7.525  -1.883  24.525  0.00  0.00    +0.032 C 
BRANCH   9  11
ATOM     11  N   UNL     1       8.043  -3.974  23.197  0.00  0.00    -0.293 NA
BRANCH  11  13
ATOM     12  C   UNL     1       9.018  -5.304  25.123  0.00  0.00    +0.020 C 
ATOM     13  C   UNL     1       7.825  -4.554  24.536  0.00  0.00    +0.082 C 
ENDBRANCH  11  13
BRANCH  11  14
ATOM     14  C   UNL     1       7.077  -4.461  22.192  0.00  0.00    +0.082 C 
ATOM     15  C   UNL     1       7.124  -5.954  21.873  0.00  0.00    +0.020 C 
ENDBRANCH  11  14
ENDBRANCH   9  11
ENDBRANCH   1   9
TORSDOF 5
ENDMDL
MODEL 2
REMARK VINA RESULT:      -5.2      1.004      2.017
REMARK  Name = 
REMARK  8 active torsions:
REMARK  status: ('A' for Active; 'I' for Inactive)
REMARK    1  A    between atoms: C_1  and  C_2
REMARK    2  A    between atoms: C_2  and  N_3
REMARK    3  A    between atoms: N_3  and  C_4
REMARK    4  A    between atoms: N_3  and  C_6
REMARK    5  A    between atoms: C_4  and  C_5
REMARK    6  A    between atoms: C_6  and  C_7
REMARK    7  A    between atoms: C_6  and  C_8
REMARK    8  A    between atoms: C_8  and  C_10
REMARK                            x       y       z     vdW  Elec       q    Type
REMARK                         _______ _______ _______ _____ _____    ______ ____
ROOT
ATOM      1  C   UNL     1       9.513  -2.282  23.647  0.00  0.00    +0.180 C 
ATOM      2  O   UNL     1      10.486  -3.030  23.740  0.00  0.00    -0.290 OA
ENDROOT
BRANCH   1   3
ATOM      3  C   UNL     1       9.767  -0.837  23.305  0.00  0.00    +0.019 A 
ATOM      4  C   UNL     1      10.226   0.012  24.323  0.00  0.00    +0.011 A 
ATOM      5  C   UNL     1      10.451   1.368  24.073  0.00  0.00    +0.001 A 
ATOM      6  C   UNL     1      10.221   1.891  22.803  0.00  0.00    +0.000 A 
ATOM      7  C   UNL     1       9.764   1.059  21.783  0.00  0.00    +0.001 A 
ATOM      8  C   UNL     1       9.537  -0.298  22.031  0.00  0.00    +0.011 A 
ENDBRANCH   1   3
BRANCH   1   9
ATOM      9  C   UNL     1       8.061  -2.739  23.926  0.00  0.00    +0.125 C 
ATOM     10  C   UNL     1       8.121  -3.509  25.256  0.00  0.00    +0.032 C 
BRANCH   9  11
ATOM     11  N   UNL     1       7.498  -3.558  22.804  0.00  0.00    -0.293 NA
BRANCH  11  13
ATOM     12  C   UNL     1       7.227  -5.923  21.929  0.00  0.00    +0.020 C 
ATOM     13  C   UNL     1       7.530  -5.002  23.109  0.00  0.00    +0.082 C 
ENDBRANCH  11  13
BRANCH  11  14
ATOM     14  C   UNL     1       6.169  -3.092  22.357  0.00  0.00    +0.082 C 
ATOM     15  C   UNL     1       4.991  -3.422  23.272  0.00  0.00    +0.020 C 
ENDBRANCH  11  14
ENDBRANCH   9  11
ENDBRANCH   1   9
TORSDOF 5
ENDMDL
MODEL 3
REMARK VINA RESULT:      -5.2      1.332      1.978
REMARK  Name = 
REMARK  8 active torsions:
REMARK  status: ('A' for Active; 'I' for Inactive)
REMARK    1  A    between atoms: C_1  and  C_2
REMARK    2  A    between atoms: C_2  and  N_3
REMARK    3  A    between atoms: N_3  and  C_4
REMARK    4  A    between atoms: N_3  and  C_6
REMARK    5  A    between atoms: C_4  and  C_5
REMARK    6  A    between atoms: C_6  and  C_7
REMARK    7  A    between atoms: C_6  and  C_8
REMARK    8  A    between atoms: C_8  and  C_10
REMARK                            x       y       z     vdW  Elec       q    Type
REMARK                         _______ _______ _______ _____ _____    ______ ____
ROOT
ATOM      1  C   UNL     1       9.303  -2.775  24.076  0.00  0.00    +0.180 C 
ATOM      2  O   UNL     1      10.234  -3.576  24.153  0.00  0.00    -0.290 OA
ENDROOT
BRANCH   1   3
ATOM      3  C   UNL     1       9.549  -1.479  23.348  0.00  0.00    +0.019 A 
ATOM      4  C   UNL     1      10.116  -0.415  24.066  0.00  0.00    +0.011 A 
ATOM      5  C   UNL     1      10.341   0.819  23.453  0.00  0.00    +0.001 A 
ATOM      6  C   UNL     1      10.003   1.005  22.114  0.00  0.00    +0.000 A 
ATOM      7  C   UNL     1       9.438  -0.042  21.390  0.00  0.00    +0.001 A 
ATOM      8  C   UNL     1       9.212  -1.278  22.002  0.00  0.00    +0.011 A 
ENDBRANCH   1   3
BRANCH   1   9
ATOM      9  C   UNL     1       7.925  -3.007  24.739  0.00  0.00    +0.125 C 
ATOM     10  C   UNL     1       8.191  -2.997  26.254  0.00  0.00    +0.032 C 
BRANCH   9  11
ATOM     11  N   UNL     1       7.275  -4.275  24.272  0.00  0.00    -0.293 NA
BRANCH  11  13
ATOM     12  C   UNL     1       5.870  -5.802  25.729  0.00  0.00    +0.020 C 
ATOM     13  C   UNL     1       5.976  -4.502  24.934  0.00  0.00    +0.082 C 
ENDBRANCH  11  13
BRANCH  11  14
ATOM     14  C   UNL     1       7.200  -4.378  22.800  0.00  0.00    +0.082 C 
ATOM     15  C   UNL     1       7.246  -5.789  22.216  0.00  0.00    +0.020 C 
ENDBRANCH  11  14
ENDBRANCH   9  11
ENDBRANCH   1   9
TORSDOF 5
ENDMDL
MODEL 4
REMARK VINA RESULT:      -5.0      1.794      2.995
REMARK  Name = 
REMARK  8 active torsions:
REMARK  status: ('A' for Active; 'I' for Inactive)
REMARK    1  A    between atoms: C_1  and  C_2
REMARK    2  A    between atoms: C_2  and  N_3
REMARK    3  A    between atoms: N_3  and  C_4
REMARK    4  A    between atoms: N_3  and  C_6
REMARK    5  A    between atoms: C_4  and  C_5
REMARK    6  A    between atoms: C_6  and  C_7
REMARK    7  A    between atoms: C_6  and  C_8
REMARK    8  A    between atoms: C_8  and  C_10
REMARK                            x       y       z     vdW  Elec       q    Type
REMARK                         _______ _______ _______ _____ _____    ______ ____
ROOT
ATOM      1  C   UNL     1       7.515  -3.269  22.744  0.00  0.00    +0.180 C 
ATOM      2  O   UNL     1       6.556  -3.052  22.003  0.00  0.00    -0.290 OA
ENDROOT
BRANCH   1   3
ATOM      3  C   UNL     1       8.504  -2.153  22.957  0.00  0.00    +0.019 A 
ATOM      4  C   UNL     1       9.015  -1.498  21.827  0.00  0.00    +0.011 A 
ATOM      5  C   UNL     1       9.957  -0.475  21.960  0.00  0.00    +0.001 A 
ATOM      6  C   UNL     1      10.400  -0.095  23.224  0.00  0.00    +0.000 A 
ATOM      7  C   UNL     1       9.902  -0.737  24.355  0.00  0.00    +0.001 A 
ATOM      8  C   UNL     1       8.959  -1.762  24.225  0.00  0.00    +0.011 A 
ENDBRANCH   1   3
BRANCH   1   9
ATOM      9  C   UNL     1       7.782  -4.640  23.408  0.00  0.00    +0.125 C 
ATOM     10  C   UNL     1       7.263  -5.689  22.410  0.00  0.00    +0.032 C 
BRANCH   9  11
ATOM     11  N   UNL     1       7.139  -4.753  24.757  0.00  0.00    -0.293 NA
BRANCH  11  13
ATOM     12  C   UNL     1       5.463  -6.166  26.032  0.00  0.00    +0.020 C 
ATOM     13  C   UNL     1       5.892  -5.541  24.707  0.00  0.00    +0.082 C 
ENDBRANCH  11  13
BRANCH  11  14
ATOM     14  C   UNL     1       8.071  -5.214  25.807  0.00  0.00    +0.082 C 
ATOM     15  C   UNL     1       9.557  -5.193  25.451  0.00  0.00    +0.020 C 
ENDBRANCH  11  14
ENDBRANCH   9  11
ENDBRANCH   1   9
TORSDOF 5
ENDMDL
MODEL 5
REMARK VINA RESULT:      -5.0      1.803      5.595
REMARK  Name = 
REMARK  8 active torsions:
REMARK  status: ('A' for Active; 'I' for Inactive)
REMARK    1  A    between atoms: C_1  and  C_2
REMARK    2  A    between atoms: C_2  and  N_3
REMARK    3  A    between atoms: N_3  and  C_4
REMARK    4  A    between atoms: N_3  and  C_6
REMARK    5  A    between atoms: C_4  and  C_5
REMARK    6  A    between atoms: C_6  and  C_7
REMARK    7  A    between atoms: C_6  and  C_8
REMARK    8  A    between atoms: C_8  and  C_10
REMARK                            x       y       z     vdW  Elec       q    Type
REMARK                         _______ _______ _______ _____ _____    ______ ____
ROOT
ATOM      1  C   UNL     1       9.092  -2.882  23.763  0.00  0.00    +0.180 C 
ATOM      2  O   UNL     1       9.925  -3.605  24.309  0.00  0.00    -0.290 OA
ENDROOT
BRANCH   1   3
ATOM      3  C   UNL     1       7.800  -3.514  23.314  0.00  0.00    +0.019 A 
ATOM      4  C   UNL     1       7.685  -4.910  23.392  0.00  0.00    +0.011 A 
ATOM      5  C   UNL     1       6.522  -5.554  22.963  0.00  0.00    +0.001 A 
ATOM      6  C   UNL     1       5.460  -4.811  22.453  0.00  0.00    +0.000 A 
ATOM      7  C   UNL     1       5.562  -3.425  22.369  0.00  0.00    +0.001 A 
ATOM      8  C   UNL     1       6.724  -2.777  22.797  0.00  0.00    +0.011 A 
ENDBRANCH   1   3
BRANCH   1   9
ATOM      9  C   UNL     1       9.334  -1.384  23.463  0.00  0.00    +0.125 C 
ATOM     10  C   UNL     1      10.315  -1.356  22.278  0.00  0.00    +0.032 C 
BRANCH   9  11
ATOM     11  N   UNL     1       9.846  -0.640  24.659  0.00  0.00    -0.293 NA
BRANCH  11  13
ATOM     12  C   UNL     1      10.122   1.842  24.220  0.00  0.00    +0.020 C 
ATOM     13  C   UNL     1      10.758   0.455  24.275  0.00  0.00    +0.082 C 
ENDBRANCH  11  13
BRANCH  11  14
ATOM     14  C   UNL     1       8.771  -0.203  25.574  0.00  0.00    +0.082 C 
ATOM     15  C   UNL     1       8.720  -0.891  26.936  0.00  0.00    +0.020 C 
ENDBRANCH  11  14
ENDBRANCH   9  11
ENDBRANCH   1   9
TORSDOF 5
ENDMDL
MODEL 6
REMARK VINA RESULT:      -4.9      2.043      5.645
REMARK  Name = 
REMARK  8 active torsions:
REMARK  status: ('A' for Active; 'I' for Inactive)
REMARK    1  A    between atoms: C_1  and  C_2
REMARK    2  A    between atoms: C_2  and  N_3
REMARK    3  A    between atoms: N_3  and  C_4
REMARK    4  A    between atoms: N_3  and  C_6
REMARK    5  A    between atoms: C_4  and  C_5
REMARK    6  A    between atoms: C_6  and  C_7
REMARK    7  A    between atoms: C_6  and  C_8
REMARK    8  A    between atoms: C_8  and  C_10
REMARK                            x       y       z     vdW  Elec       q    Type
REMARK                         _______ _______ _______ _____ _____    ______ ____
ROOT
ATOM      1  C   UNL     1       8.750  -4.778  24.489  0.00  0.00    +0.180 C 
ATOM      2  O   UNL     1       9.476  -5.720  24.809  0.00  0.00    -0.290 OA
ENDROOT
BRANCH   1   3
ATOM      3  C   UNL     1       7.458  -5.096  23.783  0.00  0.00    +0.019 A 
ATOM      4  C   UNL     1       6.284  -5.152  24.549  0.00  0.00    +0.011 A 
ATOM      5  C   UNL     1       5.060  -5.470  23.956  0.00  0.00    +0.001 A 
ATOM      6  C   UNL     1       4.995  -5.735  22.590  0.00  0.00    +0.000 A 
ATOM      7  C   UNL     1       6.153  -5.685  21.819  0.00  0.00    +0.001 A 
ATOM      8  C   UNL     1       7.379  -5.367  22.410  0.00  0.00    +0.011 A 
ENDBRANCH   1   3
BRANCH   1   9
ATOM      9  C   UNL     1       9.130  -3.296  24.718  0.00  0.00    +0.125 C 
ATOM     10  C   UNL     1       8.466  -2.903  26.049  0.00  0.00    +0.032 C 
BRANCH   9  11
ATOM     11  N   UNL     1       8.711  -2.419  23.578  0.00  0.00    -0.293 NA
BRANCH  11  13
ATOM     12  C   UNL     1       6.308  -1.659  23.299  0.00  0.00    +0.020 C 
ATOM     13  C   UNL     1       7.661  -1.462  23.978  0.00  0.00    +0.082 C 
ENDBRANCH  11  13
BRANCH  11  14
ATOM     14  C   UNL     1       9.850  -1.773  22.894  0.00  0.00    +0.082 C 
ATOM     15  C   UNL     1       9.517  -0.949  21.652  0.00  0.00    +0.020 C 
ENDBRANCH  11  14
ENDBRANCH   9  11
ENDBRANCH   1   9
TORSDOF 5
ENDMDL
MODEL 7
REMARK VINA RESULT:      -4.8      2.755      4.465
REMARK  Name = 
REMARK  8 active torsions:
REMARK  status: ('A' for Active; 'I' for Inactive)
REMARK    1  A    between atoms: C_1  and  C_2
REMARK    2  A    between atoms: C_2  and  N_3
REMARK    3  A    between atoms: N_3  and  C_4
REMARK    4  A    between atoms: N_3  and  C_6
REMARK    5  A    between atoms: C_4  and  C_5
REMARK    6  A    between atoms: C_6  and  C_7
REMARK    7  A    between atoms: C_6  and  C_8
REMARK    8  A    between atoms: C_8  and  C_10
REMARK                            x       y       z     vdW  Elec       q    Type
REMARK                         _______ _______ _______ _____ _____    ______ ____
ROOT
ATOM      1  C   UNL     1      10.088   2.050  23.060  0.00  0.00    +0.180 C 
ATOM      2  O   UNL     1      10.179   1.746  21.871  0.00  0.00    -0.290 OA
ENDROOT
BRANCH   1   3
ATOM      3  C   UNL     1      10.422   3.466  23.452  0.00  0.00    +0.019 A 
ATOM      4  C   UNL     1       9.405   4.254  24.010  0.00  0.00    +0.011 A 
ATOM      5  C   UNL     1       9.646   5.583  24.366  0.00  0.00    +0.001 A 
ATOM      6  C   UNL     1      10.907   6.140  24.169  0.00  0.00    +0.000 A 
ATOM      7  C   UNL     1      11.926   5.369  23.614  0.00  0.00    +0.001 A 
ATOM      8  C   UNL     1      11.687   4.039  23.257  0.00  0.00    +0.011 A 
ENDBRANCH   1   3
BRANCH   1   9
ATOM      9  C   UNL     1       9.712   1.039  24.169  0.00  0.00    +0.125 C 
ATOM     10  C   UNL     1      11.043   0.636  24.827  0.00  0.00    +0.032 C 
BRANCH   9  11
ATOM     11  N   UNL     1       8.950  -0.135  23.633  0.00  0.00    -0.293 NA
BRANCH  11  13
ATOM     12  C   UNL     1       9.699  -2.557  23.694  0.00  0.00    +0.020 C 
ATOM     13  C   UNL     1       9.159  -1.346  24.451  0.00  0.00    +0.082 C 
ENDBRANCH  11  13
BRANCH  11  14
ATOM     14  C   UNL     1       7.522   0.161  23.393  0.00  0.00    +0.082 C 
ATOM     15  C   UNL     1       6.819   1.007  24.453  0.00  0.00    +0.020 C 
ENDBRANCH  11  14
ENDBRANCH   9  11
ENDBRANCH   1   9
TORSDOF 5
ENDMDL
MODEL 8
REMARK VINA RESULT:      -4.8      1.814      5.172
REMARK  Name = 
REMARK  8 active torsions:
REMARK  status: ('A' for Active; 'I' for Inactive)
REMARK    1  A    between atoms: C_1  and  C_2
REMARK    2  A    between atoms: C_2  and  N_3
REMARK    3  A    between atoms: N_3  and  C_4
REMARK    4  A    between atoms: N_3  and  C_6
REMARK    5  A    between atoms: C_4  and  C_5
REMARK    6  A    between atoms: C_6  and  C_7
REMARK    7  A    between atoms: C_6  and  C_8
REMARK    8  A    between atoms: C_8  and  C_10
REMARK                            x       y       z     vdW  Elec       q    Type
REMARK                         _______ _______ _______ _____ _____    ______ ____
ROOT
ATOM      1  C   UNL     1       9.292  -1.510  22.418  0.00  0.00    +0.180 C 
ATOM      2  O   UNL     1      10.300  -1.628  21.722  0.00  0.00    -0.290 OA
ENDROOT
BRANCH   1   3
ATOM      3  C   UNL     1       8.810  -2.725  23.169  0.00  0.00    +0.019 A 
ATOM      4  C   UNL     1       9.552  -3.151  24.280  0.00  0.00    +0.011 A 
ATOM      5  C   UNL     1       9.171  -4.287  24.998  0.00  0.00    +0.001 A 
ATOM      6  C   UNL     1       8.044  -5.010  24.614  0.00  0.00    +0.000 A 
ATOM      7  C   UNL     1       7.299  -4.598  23.512  0.00  0.00    +0.001 A 
ATOM      8  C   UNL     1       7.678  -3.462  22.791  0.00  0.00    +0.011 A 
ENDBRANCH   1   3
BRANCH   1   9
ATOM      9  C   UNL     1       8.469  -0.203  22.507  0.00  0.00    +0.125 C 
ATOM     10  C   UNL     1       9.134   0.770  21.519  0.00  0.00    +0.032 C 
BRANCH   9  11
ATOM     11  N   UNL     1       8.409   0.337  23.904  0.00  0.00    -0.293 NA
BRANCH  11  13
ATOM     12  C   UNL     1      10.755   0.569  24.839  0.00  0.00    +0.020 C 
ATOM     13  C   UNL     1       9.543   1.237  24.193  0.00  0.00    +0.082 C 
ENDBRANCH  11  13
BRANCH  11  14
ATOM     14  C   UNL     1       7.100   0.933  24.239  0.00  0.00    +0.082 C 
ATOM     15  C   UNL     1       5.997  -0.041  24.650  0.00  0.00    +0.020 C 
ENDBRANCH  11  14
ENDBRANCH   9  11
ENDBRANCH   1   9
TORSDOF 5
ENDMDL
MODEL 9
REMARK VINA RESULT:      -4.8      2.054      5.346
REMARK  Name = 
REMARK  8 active torsions:
REMARK  status: ('A' for Active; 'I' for Inactive)
REMARK    1  A    between atoms: C_1  and  C_2
REMARK    2  A    between atoms: C_2  and  N_3
REMARK    3  A    between atoms: N_3  and  C_4
REMARK    4  A    between atoms: N_3  and  C_6
REMARK    5  A    between atoms: C_4  and  C_5
REMARK    6  A    between atoms: C_6  and  C_7
REMARK    7  A    between atoms: C_6  and  C_8
REMARK    8  A    between atoms: C_8  and  C_10
REMARK                            x       y       z     vdW  Elec       q    Type
REMARK                         _______ _______ _______ _____ _____    ______ ____
ROOT
ATOM      1  C   UNL     1       7.181  -2.619  24.553  0.00  0.00    +0.180 C 
ATOM      2  O   UNL     1       6.153  -2.142  25.034  0.00  0.00    -0.290 OA
ENDROOT
BRANCH   1   3
ATOM      3  C   UNL     1       7.035  -3.654  23.468  0.00  0.00    +0.019 A 
ATOM      4  C   UNL     1       6.202  -3.357  22.379  0.00  0.00    +0.011 A 
ATOM      5  C   UNL     1       6.004  -4.288  21.358  0.00  0.00    +0.001 A 
ATOM      6  C   UNL     1       6.637  -5.528  21.412  0.00  0.00    +0.000 A 
ATOM      7  C   UNL     1       7.465  -5.837  22.488  0.00  0.00    +0.001 A 
ATOM      8  C   UNL     1       7.664  -4.907  23.512  0.00  0.00    +0.011 A 
ENDBRANCH   1   3
BRANCH   1   9
ATOM      9  C   UNL     1       8.600  -2.254  25.050  0.00  0.00    +0.125 C 
ATOM     10  C   UNL     1       8.440  -1.919  26.542  0.00  0.00    +0.032 C 
BRANCH   9  11
ATOM     11  N   UNL     1       9.206  -1.130  24.264  0.00  0.00    -0.293 NA
BRANCH  11  13
ATOM     12  C   UNL     1      10.828   0.813  24.415  0.00  0.00    +0.020 C 
ATOM     13  C   UNL     1       9.901  -0.164  25.135  0.00  0.00    +0.082 C 
ENDBRANCH  11  13
BRANCH  11  14
ATOM     14  C   UNL     1      10.039  -1.595  23.136  0.00  0.00    +0.082 C 
ATOM     15  C   UNL     1       9.447  -1.424  21.739  0.00  0.00    +0.020 C 
ENDBRANCH  11  14
ENDBRANCH   9  11
ENDBRANCH   1   9
TORSDOF 5
ENDMDL
