MODEL 1
REMARK VINA RESULT:      -6.3      0.000      0.000
REMARK  Name = 
REMARK  6 active torsions:
REMARK  status: ('A' for Active; 'I' for Inactive)
REMARK    1  A    between atoms: C_1  and  N_2
REMARK    2  A    between atoms: N_9  and  C_10
REMARK    3  A    between atoms: C_10  and  C_11
REMARK    4  A    between atoms: C_11  and  O_12
REMARK    5  A    between atoms: N_15  and  C_16
REMARK    6  A    between atoms: C_16  and  C_17
REMARK                            x       y       z     vdW  Elec       q    Type
REMARK                         _______ _______ _______ _____ _____    ______ ____
ROOT
ATOM      1  C   UNL     1       3.950  -5.517  23.323  0.00  0.00    +0.152 C 
ATOM      2  N   UNL     1       5.242  -4.988  22.972  0.00  0.00    -0.318 N 
ATOM      3  C   UNL     1       5.904  -3.980  23.614  0.00  0.00    +0.167 A 
ATOM      4  N   UNL     1       5.528  -3.307  24.712  0.00  0.00    -0.195 NA
ATOM      5  C   UNL     1       6.431  -2.377  25.072  0.00  0.00    +0.219 A 
ATOM      6  N   UNL     1       7.574  -2.080  24.417  0.00  0.00    -0.197 NA
ATOM      7  C   UNL     1       7.915  -2.762  23.291  0.00  0.00    +0.152 A 
ATOM      8  N   UNL     1       9.053  -2.439  22.553  0.00  0.00    -0.323 N 
ATOM      9  H   UNL     1       9.285  -3.198  21.915  0.00  0.00    +0.148 HD
ATOM     10  N   UNL     1       6.104  -1.666  26.212  0.00  0.00    -0.311 N 
ATOM     11  H   UNL     1       5.130  -1.819  26.440  0.00  0.00    +0.149 HD
ATOM     12  C   UNL     1       7.051  -3.787  22.870  0.00  0.00    +0.148 A 
ATOM     13  N   UNL     1       7.116  -4.678  21.817  0.00  0.00    -0.231 NA
ATOM     14  C   UNL     1       6.014  -5.389  21.915  0.00  0.00    +0.201 A 
ENDROOT
BRANCH   8  15
ATOM     15  C   UNL     1      10.176  -1.903  23.295  0.00  0.00    +0.138 C 
BRANCH  15  16
ATOM     16  C   UNL     1      10.209  -0.399  23.116  0.00  0.00    -0.030 A 
ATOM     17  C   UNL     1       9.787   0.192  21.915  0.00  0.00    +0.005 A 
ATOM     18  C   UNL     1       9.801   1.580  21.762  0.00  0.00    +0.000 A 
ATOM     19  C   UNL     1      10.235   2.394  22.806  0.00  0.00    +0.000 A 
ATOM     20  C   UNL     1      10.662   1.822  24.003  0.00  0.00    +0.000 A 
ATOM     21  C   UNL     1      10.652   0.434  24.156  0.00  0.00    +0.005 A 
ENDBRANCH  15  16
ENDBRANCH   8  15
BRANCH  10  22
ATOM     22  C   UNL     1       6.590  -0.295  26.319  0.00  0.00    +0.132 C 
BRANCH  22  23
ATOM     23  C   UNL     1       7.617  -0.116  27.444  0.00  0.00    +0.174 C 
BRANCH  23  24
ATOM     24  O   UNL     1       8.906  -0.564  27.023  0.00  0.00    -0.393 OA
ATOM     25  H   UNL     1       9.551  -0.040  27.531  0.00  0.00    +0.209 HD
ENDBRANCH  23  24
ENDBRANCH  22  23
ENDBRANCH  10  22
TORSDOF 5
ENDMDL
MODEL 2
REMARK VINA RESULT:      -6.2      2.557      3.424
REMARK  Name = 
REMARK  6 active torsions:
REMARK  status: ('A' for Active; 'I' for Inactive)
REMARK    1  A    between atoms: C_1  and  N_2
REMARK    2  A    between atoms: N_9  and  C_10
REMARK    3  A    between atoms: C_10  and  C_11
REMARK    4  A    between atoms: C_11  and  O_12
REMARK    5  A    between atoms: N_15  and  C_16
REMARK    6  A    between atoms: C_16  and  C_17
REMARK                            x       y       z     vdW  Elec       q    Type
REMARK                         _______ _______ _______ _____ _____    ______ ____
ROOT
ATOM      1  C   UNL     1       2.658  -7.098  25.648  0.00  0.00    +0.152 C 
ATOM      2  N   UNL     1       3.324  -6.210  24.733  0.00  0.00    -0.318 N 
ATOM      3  C   UNL     1       4.612  -5.765  24.833  0.00  0.00    +0.167 A 
ATOM      4  N   UNL     1       5.532  -6.083  25.755  0.00  0.00    -0.195 NA
ATOM      5  C   UNL     1       6.703  -5.457  25.542  0.00  0.00    +0.219 A 
ATOM      6  N   UNL     1       6.964  -4.566  24.561  0.00  0.00    -0.197 NA
ATOM      7  C   UNL     1       6.002  -4.244  23.656  0.00  0.00    +0.152 A 
ATOM      8  N   UNL     1       6.215  -3.281  22.670  0.00  0.00    -0.323 N 
ATOM      9  H   UNL     1       5.505  -3.358  21.944  0.00  0.00    +0.148 HD
ATOM     10  N   UNL     1       7.696  -5.765  26.454  0.00  0.00    -0.311 N 
ATOM     11  H   UNL     1       7.290  -6.234  27.254  0.00  0.00    +0.149 HD
ATOM     12  C   UNL     1       4.761  -4.890  23.774  0.00  0.00    +0.148 A 
ATOM     13  N   UNL     1       3.608  -4.825  23.018  0.00  0.00    -0.231 NA
ATOM     14  C   UNL     1       2.767  -5.638  23.621  0.00  0.00    +0.201 A 
ENDROOT
BRANCH   8  15
ATOM     15  C   UNL     1       7.572  -3.143  22.181  0.00  0.00    +0.138 C 
BRANCH  15  16
ATOM     16  C   UNL     1       7.989  -1.691  22.292  0.00  0.00    -0.030 A 
ATOM     17  C   UNL     1       9.119  -1.212  21.612  0.00  0.00    +0.005 A 
ATOM     18  C   UNL     1       9.487   0.131  21.702  0.00  0.00    +0.000 A 
ATOM     19  C   UNL     1       8.731   1.014  22.472  0.00  0.00    +0.000 A 
ATOM     20  C   UNL     1       7.609   0.552  23.157  0.00  0.00    +0.000 A 
ATOM     21  C   UNL     1       7.241  -0.792  23.071  0.00  0.00    +0.005 A 
ENDBRANCH  15  16
ENDBRANCH   8  15
BRANCH  10  22
ATOM     22  C   UNL     1       8.698  -4.743  26.738  0.00  0.00    +0.132 C 
BRANCH  22  23
ATOM     23  C   UNL     1      10.043  -5.026  26.058  0.00  0.00    +0.174 C 
BRANCH  23  24
ATOM     24  O   UNL     1       9.844  -5.660  24.794  0.00  0.00    -0.393 OA
ATOM     25  H   UNL     1       8.880  -5.727  24.676  0.00  0.00    +0.209 HD
ENDBRANCH  23  24
ENDBRANCH  22  23
ENDBRANCH  10  22
TORSDOF 5
ENDMDL
MODEL 3
REMARK VINA RESULT:      -6.1      2.193      4.025
REMARK  Name = 
REMARK  6 active torsions:
REMARK  status: ('A' for Active; 'I' for Inactive)
REMARK    1  A    between atoms: C_1  and  N_2
REMARK    2  A    between atoms: N_9  and  C_10
REMARK    3  A    between atoms: C_10  and  C_11
REMARK    4  A    between atoms: C_11  and  O_12
REMARK    5  A    between atoms: N_15  and  C_16
REMARK    6  A    between atoms: C_16  and  C_17
REMARK                            x       y       z     vdW  Elec       q    Type
REMARK                         _______ _______ _______ _____ _____    ______ ____
ROOT
ATOM      1  C   UNL     1       3.548  -2.161  26.631  0.00  0.00    +0.152 C 
ATOM      2  N   UNL     1       4.948  -1.985  26.346  0.00  0.00    -0.318 N 
ATOM      3  C   UNL     1       5.602  -2.401  25.221  0.00  0.00    +0.167 A 
ATOM      4  N   UNL     1       5.091  -3.007  24.140  0.00  0.00    -0.195 NA
ATOM      5  C   UNL     1       6.030  -3.271  23.214  0.00  0.00    +0.219 A 
ATOM      6  N   UNL     1       7.353  -3.021  23.326  0.00  0.00    -0.197 NA
ATOM      7  C   UNL     1       7.844  -2.428  24.446  0.00  0.00    +0.152 A 
ATOM      8  N   UNL     1       9.211  -2.213  24.624  0.00  0.00    -0.323 N 
ATOM      9  H   UNL     1       9.366  -1.543  25.375  0.00  0.00    +0.148 HD
ATOM     10  N   UNL     1       5.555  -3.880  22.066  0.00  0.00    -0.311 N 
ATOM     11  H   UNL     1       4.618  -4.225  22.228  0.00  0.00    +0.149 HD
ATOM     12  C   UNL     1       6.924  -2.072  25.446  0.00  0.00    +0.148 A 
ATOM     13  N   UNL     1       7.078  -1.436  26.661  0.00  0.00    -0.231 NA
ATOM     14  C   UNL     1       5.867  -1.395  27.172  0.00  0.00    +0.201 A 
ENDROOT
BRANCH   8  15
ATOM     15  C   UNL     1       9.991  -1.977  23.426  0.00  0.00    +0.138 C 
BRANCH  15  16
ATOM     16  C   UNL     1      10.110  -0.483  23.204  0.00  0.00    -0.030 A 
ATOM     17  C   UNL     1       9.722   0.096  21.986  0.00  0.00    +0.005 A 
ATOM     18  C   UNL     1       9.815   1.476  21.794  0.00  0.00    +0.000 A 
ATOM     19  C   UNL     1      10.296   2.293  22.814  0.00  0.00    +0.000 A 
ATOM     20  C   UNL     1      10.691   1.732  24.027  0.00  0.00    +0.000 A 
ATOM     21  C   UNL     1      10.601   0.352  24.220  0.00  0.00    +0.005 A 
ENDBRANCH  15  16
ENDBRANCH   8  15
BRANCH  10  22
ATOM     22  C   UNL     1       6.459  -4.768  21.345  0.00  0.00    +0.132 C 
BRANCH  22  23
ATOM     23  C   UNL     1       6.447  -6.200  21.893  0.00  0.00    +0.174 C 
BRANCH  23  24
ATOM     24  O   UNL     1       5.142  -6.550  22.355  0.00  0.00    -0.393 OA
ATOM     25  H   UNL     1       4.537  -5.887  21.980  0.00  0.00    +0.209 HD
ENDBRANCH  23  24
ENDBRANCH  22  23
ENDBRANCH  10  22
TORSDOF 5
ENDMDL
MODEL 4
REMARK VINA RESULT:      -5.9      2.739      3.575
REMARK  Name = 
REMARK  6 active torsions:
REMARK  status: ('A' for Active; 'I' for Inactive)
REMARK    1  A    between atoms: C_1  and  N_2
REMARK    2  A    between atoms: N_9  and  C_10
REMARK    3  A    between atoms: C_10  and  C_11
REMARK    4  A    between atoms: C_11  and  O_12
REMARK    5  A    between atoms: N_15  and  C_16
REMARK    6  A    between atoms: C_16  and  C_17
REMARK                            x       y       z     vdW  Elec       q    Type
REMARK                         _______ _______ _______ _____ _____    ______ ____
ROOT
ATOM      1  C   UNL     1       6.083  -6.207  21.494  0.00  0.00    +0.152 C 
ATOM      2  N   UNL     1       6.136  -4.899  22.093  0.00  0.00    -0.318 N 
ATOM      3  C   UNL     1       6.315  -4.625  23.419  0.00  0.00    +0.167 A 
ATOM      4  N   UNL     1       6.521  -5.488  24.425  0.00  0.00    -0.195 NA
ATOM      5  C   UNL     1       6.660  -4.863  25.609  0.00  0.00    +0.219 A 
ATOM      6  N   UNL     1       6.566  -3.533  25.826  0.00  0.00    -0.197 NA
ATOM      7  C   UNL     1       6.330  -2.687  24.788  0.00  0.00    +0.152 A 
ATOM      8  N   UNL     1       6.163  -1.316  24.983  0.00  0.00    -0.323 N 
ATOM      9  H   UNL     1       6.257  -0.821  24.098  0.00  0.00    +0.148 HD
ATOM     10  N   UNL     1       6.894  -5.705  26.681  0.00  0.00    -0.311 N 
ATOM     11  H   UNL     1       6.691  -6.660  26.415  0.00  0.00    +0.149 HD
ATOM     12  C   UNL     1       6.221  -3.250  23.506  0.00  0.00    +0.148 A 
ATOM     13  N   UNL     1       6.027  -2.686  22.261  0.00  0.00    -0.231 NA
ATOM     14  C   UNL     1       5.989  -3.708  21.434  0.00  0.00    +0.201 A 
ENDROOT
BRANCH   8  15
ATOM     15  C   UNL     1       6.887  -0.725  26.090  0.00  0.00    +0.138 C 
BRANCH  15  16
ATOM     16  C   UNL     1       8.061   0.062  25.545  0.00  0.00    -0.030 A 
ATOM     17  C   UNL     1       9.330  -0.525  25.430  0.00  0.00    +0.005 A 
ATOM     18  C   UNL     1      10.404   0.199  24.909  0.00  0.00    +0.000 A 
ATOM     19  C   UNL     1      10.223   1.517  24.495  0.00  0.00    +0.000 A 
ATOM     20  C   UNL     1       8.970   2.116  24.607  0.00  0.00    +0.000 A 
ATOM     21  C   UNL     1       7.895   1.394  25.132  0.00  0.00    +0.005 A 
ENDBRANCH  15  16
ENDBRANCH   8  15
BRANCH  10  22
ATOM     22  C   UNL     1       6.421  -5.281  27.993  0.00  0.00    +0.132 C 
BRANCH  22  23
ATOM     23  C   UNL     1       6.255  -6.451  28.971  0.00  0.00    +0.174 C 
BRANCH  23  24
ATOM     24  O   UNL     1       5.510  -7.509  28.367  0.00  0.00    -0.393 OA
ATOM     25  H   UNL     1       5.912  -7.656  27.493  0.00  0.00    +0.209 HD
ENDBRANCH  23  24
ENDBRANCH  22  23
ENDBRANCH  10  22
TORSDOF 5
ENDMDL
MODEL 5
REMARK VINA RESULT:      -5.8      2.189      5.682
REMARK  Name = 
REMARK  6 active torsions:
REMARK  status: ('A' for Active; 'I' for Inactive)
REMARK    1  A    between atoms: C_1  and  N_2
REMARK    2  A    between atoms: N_9  and  C_10
REMARK    3  A    between atoms: C_10  and  C_11
REMARK    4  A    between atoms: C_11  and  O_12
REMARK    5  A    between atoms: N_15  and  C_16
REMARK    6  A    between atoms: C_16  and  C_17
REMARK                            x       y       z     vdW  Elec       q    Type
REMARK                         _______ _______ _______ _____ _____    ______ ____
ROOT
ATOM      1  C   UNL     1       9.986   1.902  22.167  0.00  0.00    +0.152 C 
ATOM      2  N   UNL     1       9.833   0.530  22.577  0.00  0.00    -0.318 N 
ATOM      3  C   UNL     1       9.255   0.093  23.735  0.00  0.00    +0.167 A 
ATOM      4  N   UNL     1       8.676   0.822  24.701  0.00  0.00    -0.195 NA
ATOM      5  C   UNL     1       8.205   0.056  25.702  0.00  0.00    +0.219 A 
ATOM      6  N   UNL     1       8.316  -1.287  25.799  0.00  0.00    -0.197 NA
ATOM      7  C   UNL     1       8.933  -1.995  24.816  0.00  0.00    +0.152 A 
ATOM      8  N   UNL     1       9.122  -3.373  24.913  0.00  0.00    -0.323 N 
ATOM      9  H   UNL     1       9.354  -3.761  24.000  0.00  0.00    +0.148 HD
ATOM     10  N   UNL     1       7.579   0.755  26.718  0.00  0.00    -0.311 N 
ATOM     11  H   UNL     1       7.791   1.741  26.633  0.00  0.00    +0.149 HD
ATOM     12  C   UNL     1       9.411  -1.279  23.706  0.00  0.00    +0.148 A 
ATOM     13  N   UNL     1      10.036  -1.683  22.543  0.00  0.00    -0.231 NA
ATOM     14  C   UNL     1      10.268  -0.568  21.885  0.00  0.00    +0.201 A 
ENDROOT
BRANCH   8  15
ATOM     15  C   UNL     1       8.122  -4.115  25.653  0.00  0.00    +0.138 C 
BRANCH  15  16
ATOM     16  C   UNL     1       7.219  -4.834  24.672  0.00  0.00    -0.030 A 
ATOM     17  C   UNL     1       7.639  -5.082  23.356  0.00  0.00    +0.005 A 
ATOM     18  C   UNL     1       6.810  -5.763  22.462  0.00  0.00    +0.000 A 
ATOM     19  C   UNL     1       5.553  -6.205  22.871  0.00  0.00    +0.000 A 
ATOM     20  C   UNL     1       5.120  -5.961  24.173  0.00  0.00    +0.000 A 
ATOM     21  C   UNL     1       5.947  -5.278  25.068  0.00  0.00    +0.005 A 
ENDBRANCH  15  16
ENDBRANCH   8  15
BRANCH  10  22
ATOM     22  C   UNL     1       7.631   0.192  28.062  0.00  0.00    +0.132 C 
BRANCH  22  23
ATOM     23  C   UNL     1       7.515   1.259  29.157  0.00  0.00    +0.174 C 
BRANCH  23  24
ATOM     24  O   UNL     1       8.602   1.156  30.077  0.00  0.00    -0.393 OA
ATOM     25  H   UNL     1       9.394   0.976  29.538  0.00  0.00    +0.209 HD
ENDBRANCH  23  24
ENDBRANCH  22  23
ENDBRANCH  10  22
TORSDOF 5
ENDMDL
MODEL 6
REMARK VINA RESULT:      -5.8      4.476      6.786
REMARK  Name = 
REMARK  6 active torsions:
REMARK  status: ('A' for Active; 'I' for Inactive)
REMARK    1  A    between atoms: C_1  and  N_2
REMARK    2  A    between atoms: N_9  and  C_10
REMARK    3  A    between atoms: C_10  and  C_11
REMARK    4  A    between atoms: C_11  and  O_12
REMARK    5  A    between atoms: N_15  and  C_16
REMARK    6  A    between atoms: C_16  and  C_17
REMARK                            x       y       z     vdW  Elec       q    Type
REMARK                         _______ _______ _______ _____ _____    ______ ____
ROOT
ATOM      1  C   UNL     1       9.963  -1.354  22.269  0.00  0.00    +0.152 C 
ATOM      2  N   UNL     1       9.246  -0.498  23.177  0.00  0.00    -0.318 N 
ATOM      3  C   UNL     1       9.497   0.825  23.407  0.00  0.00    +0.167 A 
ATOM      4  N   UNL     1      10.413   1.611  22.822  0.00  0.00    -0.195 NA
ATOM      5  C   UNL     1      10.378   2.870  23.294  0.00  0.00    +0.219 A 
ATOM      6  N   UNL     1       9.570   3.333  24.274  0.00  0.00    -0.197 NA
ATOM      7  C   UNL     1       8.670   2.504  24.866  0.00  0.00    +0.152 A 
ATOM      8  N   UNL     1       7.866   2.930  25.923  0.00  0.00    -0.323 N 
ATOM      9  H   UNL     1       7.094   2.280  26.061  0.00  0.00    +0.148 HD
ATOM     10  N   UNL     1      11.290   3.731  22.711  0.00  0.00    -0.311 N 
ATOM     11  H   UNL     1      11.976   3.198  22.193  0.00  0.00    +0.149 HD
ATOM     12  C   UNL     1       8.604   1.181  24.399  0.00  0.00    +0.148 A 
ATOM     13  N   UNL     1       7.796   0.117  24.745  0.00  0.00    -0.231 NA
ATOM     14  C   UNL     1       8.207  -0.875  23.984  0.00  0.00    +0.201 A 
ENDROOT
BRANCH   8  15
ATOM     15  C   UNL     1       7.493   4.329  25.931  0.00  0.00    +0.138 C 
BRANCH  15  16
ATOM     16  C   UNL     1       6.371   4.544  24.935  0.00  0.00    -0.030 A 
ATOM     17  C   UNL     1       6.457   5.552  23.963  0.00  0.00    +0.005 A 
ATOM     18  C   UNL     1       5.429   5.733  23.035  0.00  0.00    +0.000 A 
ATOM     19  C   UNL     1       4.305   4.910  23.066  0.00  0.00    +0.000 A 
ATOM     20  C   UNL     1       4.203   3.908  24.030  0.00  0.00    +0.000 A 
ATOM     21  C   UNL     1       5.229   3.728  24.960  0.00  0.00    +0.005 A 
ENDBRANCH  15  16
ENDBRANCH   8  15
BRANCH  10  22
ATOM     22  C   UNL     1      11.796   4.833  23.520  0.00  0.00    +0.132 C 
BRANCH  22  23
ATOM     23  C   UNL     1      12.937   5.597  22.835  0.00  0.00    +0.174 C 
BRANCH  23  24
ATOM     24  O   UNL     1      14.197   5.005  23.148  0.00  0.00    -0.393 OA
ATOM     25  H   UNL     1      14.187   4.119  22.744  0.00  0.00    +0.209 HD
ENDBRANCH  23  24
ENDBRANCH  22  23
ENDBRANCH  10  22
TORSDOF 5
ENDMDL
MODEL 7
REMARK VINA RESULT:      -5.8      2.442      4.456
REMARK  Name = 
REMARK  6 active torsions:
REMARK  status: ('A' for Active; 'I' for Inactive)
REMARK    1  A    between atoms: C_1  and  N_2
REMARK    2  A    between atoms: N_9  and  C_10
REMARK    3  A    between atoms: C_10  and  C_11
REMARK    4  A    between atoms: C_11  and  O_12
REMARK    5  A    between atoms: N_15  and  C_16
REMARK    6  A    between atoms: C_16  and  C_17
REMARK                            x       y       z     vdW  Elec       q    Type
REMARK                         _______ _______ _______ _____ _____    ______ ____
ROOT
ATOM      1  C   UNL     1       4.151  -1.401  28.073  0.00  0.00    +0.152 C 
ATOM      2  N   UNL     1       5.398  -0.792  27.694  0.00  0.00    -0.318 N 
ATOM      3  C   UNL     1       6.322  -1.311  26.832  0.00  0.00    +0.167 A 
ATOM      4  N   UNL     1       6.253  -2.452  26.130  0.00  0.00    -0.195 NA
ATOM      5  C   UNL     1       7.348  -2.649  25.374  0.00  0.00    +0.219 A 
ATOM      6  N   UNL     1       8.438  -1.852  25.323  0.00  0.00    -0.197 NA
ATOM      7  C   UNL     1       8.487  -0.715  26.067  0.00  0.00    +0.152 A 
ATOM      8  N   UNL     1       9.620   0.098  26.089  0.00  0.00    -0.323 N 
ATOM      9  H   UNL     1       9.390   1.011  26.477  0.00  0.00    +0.148 HD
ATOM     10  N   UNL     1       7.323  -3.804  24.612  0.00  0.00    -0.311 N 
ATOM     11  H   UNL     1       6.581  -4.409  24.937  0.00  0.00    +0.149 HD
ATOM     12  C   UNL     1       7.364  -0.404  26.850  0.00  0.00    +0.148 A 
ATOM     13  N   UNL     1       7.076   0.666  27.672  0.00  0.00    -0.231 NA
ATOM     14  C   UNL     1       5.882   0.402  28.157  0.00  0.00    +0.201 A 
ENDROOT
BRANCH   8  15
ATOM     15  C   UNL     1      10.417   0.134  24.879  0.00  0.00    +0.138 C 
BRANCH  15  16
ATOM     16  C   UNL     1       9.690   0.960  23.838  0.00  0.00    -0.030 A 
ATOM     17  C   UNL     1       9.176   2.227  24.154  0.00  0.00    +0.005 A 
ATOM     18  C   UNL     1       8.524   2.992  23.185  0.00  0.00    +0.000 A 
ATOM     19  C   UNL     1       8.378   2.502  21.889  0.00  0.00    +0.000 A 
ATOM     20  C   UNL     1       8.878   1.244  21.560  0.00  0.00    +0.000 A 
ATOM     21  C   UNL     1       9.528   0.476  22.529  0.00  0.00    +0.005 A 
ENDBRANCH  15  16
ENDBRANCH   8  15
BRANCH  10  22
ATOM     22  C   UNL     1       8.598  -4.444  24.308  0.00  0.00    +0.132 C 
BRANCH  22  23
ATOM     23  C   UNL     1       9.064  -5.395  25.417  0.00  0.00    +0.174 C 
BRANCH  23  24
ATOM     24  O   UNL     1      10.487  -5.505  25.420  0.00  0.00    -0.393 OA
ATOM     25  H   UNL     1      10.742  -5.658  26.347  0.00  0.00    +0.209 HD
ENDBRANCH  23  24
ENDBRANCH  22  23
ENDBRANCH  10  22
TORSDOF 5
ENDMDL
MODEL 8
REMARK VINA RESULT:      -5.8      2.892      6.679
REMARK  Name = 
REMARK  6 active torsions:
REMARK  status: ('A' for Active; 'I' for Inactive)
REMARK    1  A    between atoms: C_1  and  N_2
REMARK    2  A    between atoms: N_9  and  C_10
REMARK    3  A    between atoms: C_10  and  C_11
REMARK    4  A    between atoms: C_11  and  O_12
REMARK    5  A    between atoms: N_15  and  C_16
REMARK    6  A    between atoms: C_16  and  C_17
REMARK                            x       y       z     vdW  Elec       q    Type
REMARK                         _______ _______ _______ _____ _____    ______ ____
ROOT
ATOM      1  C   UNL     1       9.862   1.247  21.979  0.00  0.00    +0.152 C 
ATOM      2  N   UNL     1       9.738   0.449  23.171  0.00  0.00    -0.318 N 
ATOM      3  C   UNL     1       9.098  -0.753  23.276  0.00  0.00    +0.167 A 
ATOM      4  N   UNL     1       8.497  -1.461  22.308  0.00  0.00    -0.195 NA
ATOM      5  C   UNL     1       7.969  -2.609  22.772  0.00  0.00    +0.219 A 
ATOM      6  N   UNL     1       7.972  -3.027  24.056  0.00  0.00    -0.197 NA
ATOM      7  C   UNL     1       8.567  -2.273  25.019  0.00  0.00    +0.152 A 
ATOM      8  N   UNL     1       8.534  -2.641  26.364  0.00  0.00    -0.323 N 
ATOM      9  H   UNL     1       9.233  -2.118  26.889  0.00  0.00    +0.148 HD
ATOM     10  N   UNL     1       7.353  -3.390  21.811  0.00  0.00    -0.311 N 
ATOM     11  H   UNL     1       7.211  -2.845  20.970  0.00  0.00    +0.149 HD
ATOM     12  C   UNL     1       9.188  -1.080  24.615  0.00  0.00    +0.148 A 
ATOM     13  N   UNL     1       9.899  -0.124  25.313  0.00  0.00    -0.231 NA
ATOM     14  C   UNL     1      10.220   0.777  24.410  0.00  0.00    +0.201 A 
ENDROOT
BRANCH   8  15
ATOM     15  C   UNL     1       8.499  -4.062  26.647  0.00  0.00    +0.138 C 
BRANCH  15  16
ATOM     16  C   UNL     1       7.054  -4.516  26.700  0.00  0.00    -0.030 A 
ATOM     17  C   UNL     1       6.093  -3.775  27.405  0.00  0.00    +0.005 A 
ATOM     18  C   UNL     1       4.759  -4.187  27.434  0.00  0.00    +0.000 A 
ATOM     19  C   UNL     1       4.369  -5.342  26.759  0.00  0.00    +0.000 A 
ATOM     20  C   UNL     1       5.313  -6.090  26.059  0.00  0.00    +0.000 A 
ATOM     21  C   UNL     1       6.648  -5.681  26.031  0.00  0.00    +0.005 A 
ENDBRANCH  15  16
ENDBRANCH   8  15
BRANCH  10  22
ATOM     22  C   UNL     1       6.243  -4.236  22.234  0.00  0.00    +0.132 C 
BRANCH  22  23
ATOM     23  C   UNL     1       6.564  -5.732  22.130  0.00  0.00    +0.174 C 
BRANCH  23  24
ATOM     24  O   UNL     1       5.558  -6.411  21.379  0.00  0.00    -0.393 OA
ATOM     25  H   UNL     1       4.834  -5.772  21.259  0.00  0.00    +0.209 HD
ENDBRANCH  23  24
ENDBRANCH  22  23
ENDBRANCH  10  22
TORSDOF 5
ENDMDL
MODEL 9
REMARK VINA RESULT:      -5.7      3.015      4.684
REMARK  Name = 
REMARK  6 active torsions:
REMARK  status: ('A' for Active; 'I' for Inactive)
REMARK    1  A    between atoms: C_1  and  N_2
REMARK    2  A    between atoms: N_9  and  C_10
REMARK    3  A    between atoms: C_10  and  C_11
REMARK    4  A    between atoms: C_11  and  O_12
REMARK    5  A    between atoms: N_15  and  C_16
REMARK    6  A    between atoms: C_16  and  C_17
REMARK                            x       y       z     vdW  Elec       q    Type
REMARK                         _______ _______ _______ _____ _____    ______ ____
ROOT
ATOM      1  C   UNL     1       4.071  -6.770  27.863  0.00  0.00    +0.152 C 
ATOM      2  N   UNL     1       5.256  -6.042  27.492  0.00  0.00    -0.318 N 
ATOM      3  C   UNL     1       5.716  -5.842  26.221  0.00  0.00    +0.167 A 
ATOM      4  N   UNL     1       5.157  -6.229  25.065  0.00  0.00    -0.195 NA
ATOM      5  C   UNL     1       5.887  -5.855  23.998  0.00  0.00    +0.219 A 
ATOM      6  N   UNL     1       7.073  -5.209  24.030  0.00  0.00    -0.197 NA
ATOM      7  C   UNL     1       7.627  -4.853  25.220  0.00  0.00    +0.152 A 
ATOM      8  N   UNL     1       8.879  -4.243  25.293  0.00  0.00    -0.323 N 
ATOM      9  H   UNL     1       9.011  -3.823  26.211  0.00  0.00    +0.148 HD
ATOM     10  N   UNL     1       5.346  -6.211  22.776  0.00  0.00    -0.311 N 
ATOM     11  H   UNL     1       4.610  -6.891  22.915  0.00  0.00    +0.149 HD
ATOM     12  C   UNL     1       6.906  -5.160  26.385  0.00  0.00    +0.148 A 
ATOM     13  N   UNL     1       7.157  -4.913  27.720  0.00  0.00    -0.231 NA
ATOM     14  C   UNL     1       6.139  -5.452  28.356  0.00  0.00    +0.201 A 
ENDROOT
BRANCH   8  15
ATOM     15  C   UNL     1       9.255  -3.399  24.177  0.00  0.00    +0.138 C 
BRANCH  15  16
ATOM     16  C   UNL     1       9.193  -1.950  24.615  0.00  0.00    -0.030 A 
ATOM     17  C   UNL     1       9.924  -0.962  23.937  0.00  0.00    +0.005 A 
ATOM     18  C   UNL     1       9.848   0.375  24.333  0.00  0.00    +0.000 A 
ATOM     19  C   UNL     1       9.042   0.741  25.409  0.00  0.00    +0.000 A 
ATOM     20  C   UNL     1       8.315  -0.229  26.096  0.00  0.00    +0.000 A 
ATOM     21  C   UNL     1       8.392  -1.567  25.703  0.00  0.00    +0.005 A 
ENDBRANCH  15  16
ENDBRANCH   8  15
BRANCH  10  22
ATOM     22  C   UNL     1       6.268  -6.466  21.674  0.00  0.00    +0.132 C 
BRANCH  22  23
ATOM     23  C   UNL     1       6.193  -5.395  20.579  0.00  0.00    +0.174 C 
BRANCH  23  24
ATOM     24  O   UNL     1       5.807  -4.137  21.131  0.00  0.00    -0.393 OA
ATOM     25  H   UNL     1       5.649  -3.547  20.372  0.00  0.00    +0.209 HD
ENDBRANCH  23  24
ENDBRANCH  22  23
ENDBRANCH  10  22
TORSDOF 5
ENDMDL
