MODEL 1
REMARK VINA RESULT:      -7.5      0.000      0.000
REMARK  Name = 
REMARK  13 active torsions:
REMARK  status: ('A' for Active; 'I' for Inactive)
REMARK    1  A    between atoms: C_1  and  C_2
REMARK    2  A    between atoms: C_2  and  C_3
REMARK    3  A    between atoms: C_2  and  C_4
REMARK    4  A    between atoms: C_2  and  N_5
REMARK    5  A    between atoms: N_16  and  CA_17
REMARK    6  A    between atoms: CA_17  and  C_19
REMARK    7  A    between atoms: CA_17  and  C_30
REMARK    8  A    between atoms: C_19  and  C_21
REMARK    9  A    between atoms: C_19  and  C_28
REMARK   10  A    between atoms: C_21  and  C_22
REMARK   11  A    between atoms: C_22  and  C_23
REMARK   12  A    between atoms: C_23  and  N_24
REMARK   13  A    between atoms: C_30  and  O_31
REMARK                            x       y       z     vdW  Elec       q    Type
REMARK                         _______ _______ _______ _____ _____    ______ ____
ROOT
ATOM      1  CA  UNL     1       8.217  -4.557  24.083  0.00  0.00    +0.193 C 
ENDROOT
BRANCH   1  10
ATOM      2  N   UNL     1       9.576   3.901  24.195  0.00  0.00    -0.294 N 
ATOM      3  H   UNL     1       9.957   3.511  23.347  0.00  0.00    +0.151 HD
ATOM      4  C   UNL     1       8.681   3.073  24.808  0.00  0.00    +0.303 C 
ATOM      5  N   UNL     1       8.938   1.722  24.650  0.00  0.00    -0.283 N 
ATOM      6  C   UNL     1      10.207   1.103  24.239  0.00  0.00    +0.128 C 
ATOM      7  C   UNL     1       9.953   0.028  23.167  0.00  0.00    +0.128 C 
ATOM      8  N   UNL     1       8.905  -0.925  23.587  0.00  0.00    -0.283 N 
ATOM      9  C   UNL     1       9.210  -2.269  23.671  0.00  0.00    +0.303 C 
ATOM     10  N   UNL     1       8.140  -3.112  23.827  0.00  0.00    -0.285 N 
ATOM     11  H   UNL     1       7.262  -2.698  24.076  0.00  0.00    +0.151 HD
ATOM     12  O   UNL     1      10.349  -2.698  23.523  0.00  0.00    -0.253 OA
ATOM     13  C   UNL     1       7.653  -0.267  23.998  0.00  0.00    +0.128 C 
ATOM     14  C   UNL     1       7.919   0.772  25.094  0.00  0.00    +0.128 C 
ATOM     15  O   UNL     1       7.701   3.471  25.423  0.00  0.00    -0.253 OA
BRANCH   2  17
ATOM     16  C   UNL     1       9.149   5.903  25.602  0.00  0.00    +0.031 C 
ATOM     17  C   UNL     1       9.437   5.370  24.189  0.00  0.00    +0.028 C 
ATOM     18  C   UNL     1      10.775   5.969  23.719  0.00  0.00    +0.031 C 
ATOM     19  C   UNL     1       8.337   5.813  23.210  0.00  0.00    +0.031 C 
ENDBRANCH   2  17
ENDBRANCH   1  10
BRANCH   1  20
ATOM     20  C   UNL     1       9.016  -4.964  25.342  0.00  0.00    +0.326 C 
ATOM     21  OXT UNL     1       8.542  -5.005  26.470  0.00  0.00    -0.249 OA
BRANCH  20  22
ATOM     22  O   UNL     1      10.269  -5.395  25.063  0.00  0.00    -0.479 OA
ATOM     23  H   UNL     1      10.758  -4.763  24.501  0.00  0.00    +0.295 HD
ENDBRANCH  20  22
ENDBRANCH   1  20
BRANCH   1  24
ATOM     24  C   UNL     1       6.870  -5.310  24.018  0.00  0.00    +0.083 C 
BRANCH  24  25
ATOM     25  C   UNL     1       6.689  -5.758  22.572  0.00  0.00    +0.229 C 
ATOM     26  O   UNL     1       7.062  -5.079  21.622  0.00  0.00    -0.301 OA
ENDBRANCH  24  25
BRANCH  24  27
ATOM     27  C   UNL     1       5.650  -4.447  24.408  0.00  0.00    +0.016 C 
BRANCH  27  28
ATOM     28  C   UNL     1       5.032  -4.789  25.777  0.00  0.00    +0.038 C 
BRANCH  28  29
ATOM     29  C   UNL     1       5.045  -6.288  26.070  0.00  0.00    +0.196 C 
BRANCH  29  30
ATOM     30  N   UNL     1       5.926  -6.585  27.181  0.00  0.00    -0.276 N 
ATOM     31  H   UNL     1       6.695  -5.931  27.289  0.00  0.00    +0.258 HD
ATOM     32  C   UNL     1       5.466  -7.002  28.381  0.00  0.00    +0.376 C 
ATOM     33  N   UNL     1       4.278  -7.356  28.702  0.00  0.00    -0.130 NA
ATOM     34  H   UNL     1       3.658  -7.275  27.896  0.00  0.00    +0.306 HD
ATOM     35  N   UNL     1       6.441  -7.035  29.306  0.00  0.00    -0.289 N 
ATOM     36  H   UNL     1       6.089  -7.503  30.137  0.00  0.00    +0.255 HD
ATOM     37  H   UNL     1       7.280  -7.492  28.973  0.00  0.00    +0.255 HD
ENDBRANCH  29  30
ENDBRANCH  28  29
ENDBRANCH  27  28
ENDBRANCH  24  27
ENDBRANCH   1  24
TORSDOF 10
ENDMDL
MODEL 2
REMARK VINA RESULT:      -7.2      1.198      1.588
REMARK  Name = 
REMARK  13 active torsions:
REMARK  status: ('A' for Active; 'I' for Inactive)
REMARK    1  A    between atoms: C_1  and  C_2
REMARK    2  A    between atoms: C_2  and  C_3
REMARK    3  A    between atoms: C_2  and  C_4
REMARK    4  A    between atoms: C_2  and  N_5
REMARK    5  A    between atoms: N_16  and  CA_17
REMARK    6  A    between atoms: CA_17  and  C_19
REMARK    7  A    between atoms: CA_17  and  C_30
REMARK    8  A    between atoms: C_19  and  C_21
REMARK    9  A    between atoms: C_19  and  C_28
REMARK   10  A    between atoms: C_21  and  C_22
REMARK   11  A    between atoms: C_22  and  C_23
REMARK   12  A    between atoms: C_23  and  N_24
REMARK   13  A    between atoms: C_30  and  O_31
REMARK                            x       y       z     vdW  Elec       q    Type
REMARK                         _______ _______ _______ _____ _____    ______ ____
ROOT
ATOM      1  CA  UNL     1       8.220  -4.542  23.998  0.00  0.00    +0.193 C 
ENDROOT
BRANCH   1  10
ATOM      2  N   UNL     1       9.648   3.904  24.159  0.00  0.00    -0.294 N 
ATOM      3  H   UNL     1      10.047   3.512  23.320  0.00  0.00    +0.151 HD
ATOM      4  C   UNL     1       8.730   3.083  24.748  0.00  0.00    +0.303 C 
ATOM      5  N   UNL     1       8.980   1.730  24.594  0.00  0.00    -0.283 N 
ATOM      6  C   UNL     1      10.254   1.101  24.214  0.00  0.00    +0.128 C 
ATOM      7  C   UNL     1      10.018   0.029  23.134  0.00  0.00    +0.128 C 
ATOM      8  N   UNL     1       8.951  -0.915  23.526  0.00  0.00    -0.283 N 
ATOM      9  C   UNL     1       9.242  -2.262  23.615  0.00  0.00    +0.303 C 
ATOM     10  N   UNL     1       8.162  -3.096  23.743  0.00  0.00    -0.285 N 
ATOM     11  H   UNL     1       7.281  -2.675  23.971  0.00  0.00    +0.151 HD
ATOM     12  O   UNL     1      10.381  -2.700  23.496  0.00  0.00    -0.253 OA
ATOM     13  C   UNL     1       7.694  -0.247  23.907  0.00  0.00    +0.128 C 
ATOM     14  C   UNL     1       7.942   0.788  25.011  0.00  0.00    +0.128 C 
ATOM     15  O   UNL     1       7.739   3.488  25.338  0.00  0.00    -0.253 OA
BRANCH   2  17
ATOM     16  C   UNL     1       9.252   5.912  25.567  0.00  0.00    +0.031 C 
ATOM     17  C   UNL     1       9.522   5.374  24.152  0.00  0.00    +0.028 C 
ATOM     18  C   UNL     1      10.861   5.960  23.669  0.00  0.00    +0.031 C 
ATOM     19  C   UNL     1       8.417   5.825  23.182  0.00  0.00    +0.031 C 
ENDBRANCH   2  17
ENDBRANCH   1  10
BRANCH   1  20
ATOM     20  C   UNL     1       8.994  -4.959  25.270  0.00  0.00    +0.326 C 
ATOM     21  OXT UNL     1       8.485  -5.057  26.379  0.00  0.00    -0.249 OA
BRANCH  20  22
ATOM     22  O   UNL     1      10.272  -5.327  25.019  0.00  0.00    -0.479 OA
ATOM     23  H   UNL     1      10.820  -4.576  24.723  0.00  0.00    +0.295 HD
ENDBRANCH  20  22
ENDBRANCH   1  20
BRANCH   1  24
ATOM     24  C   UNL     1       6.867  -5.281  23.910  0.00  0.00    +0.083 C 
BRANCH  24  25
ATOM     25  C   UNL     1       6.664  -5.650  22.445  0.00  0.00    +0.229 C 
ATOM     26  O   UNL     1       6.510  -4.805  21.570  0.00  0.00    -0.301 OA
ENDBRANCH  24  25
BRANCH  24  27
ATOM     27  C   UNL     1       5.657  -4.432  24.361  0.00  0.00    +0.016 C 
BRANCH  27  28
ATOM     28  C   UNL     1       4.877  -5.009  25.557  0.00  0.00    +0.038 C 
BRANCH  28  29
ATOM     29  C   UNL     1       5.251  -6.458  25.859  0.00  0.00    +0.196 C 
BRANCH  29  30
ATOM     30  N   UNL     1       4.076  -7.227  26.215  0.00  0.00    -0.276 N 
ATOM     31  H   UNL     1       3.568  -6.864  27.015  0.00  0.00    +0.258 HD
ATOM     32  C   UNL     1       3.235  -7.736  25.289  0.00  0.00    +0.376 C 
ATOM     33  N   UNL     1       3.382  -7.788  24.018  0.00  0.00    -0.130 NA
ATOM     34  H   UNL     1       4.268  -7.361  23.750  0.00  0.00    +0.306 HD
ATOM     35  N   UNL     1       2.124  -8.247  25.850  0.00  0.00    -0.289 N 
ATOM     36  H   UNL     1       1.604  -8.757  25.142  0.00  0.00    +0.255 HD
ATOM     37  H   UNL     1       2.327  -8.847  26.639  0.00  0.00    +0.255 HD
ENDBRANCH  29  30
ENDBRANCH  28  29
ENDBRANCH  27  28
ENDBRANCH  24  27
ENDBRANCH   1  24
TORSDOF 10
ENDMDL
MODEL 3
REMARK VINA RESULT:      -7.1      2.039      2.415
REMARK  Name = 
REMARK  13 active torsions:
REMARK  status: ('A' for Active; 'I' for Inactive)
REMARK    1  A    between atoms: C_1  and  C_2
REMARK    2  A    between atoms: C_2  and  C_3
REMARK    3  A    between atoms: C_2  and  C_4
REMARK    4  A    between atoms: C_2  and  N_5
REMARK    5  A    between atoms: N_16  and  CA_17
REMARK    6  A    between atoms: CA_17  and  C_19
REMARK    7  A    between atoms: CA_17  and  C_30
REMARK    8  A    between atoms: C_19  and  C_21
REMARK    9  A    between atoms: C_19  and  C_28
REMARK   10  A    between atoms: C_21  and  C_22
REMARK   11  A    between atoms: C_22  and  C_23
REMARK   12  A    between atoms: C_23  and  N_24
REMARK   13  A    between atoms: C_30  and  O_31
REMARK                            x       y       z     vdW  Elec       q    Type
REMARK                         _______ _______ _______ _____ _____    ______ ____
ROOT
ATOM      1  CA  UNL     1       7.886  -4.459  23.244  0.00  0.00    +0.193 C 
ENDROOT
BRANCH   1  10
ATOM      2  N   UNL     1       9.612   3.888  24.116  0.00  0.00    -0.294 N 
ATOM      3  H   UNL     1      10.131   3.518  23.335  0.00  0.00    +0.151 HD
ATOM      4  C   UNL     1       8.575   3.086  24.497  0.00  0.00    +0.303 C 
ATOM      5  N   UNL     1       8.792   1.731  24.311  0.00  0.00    -0.283 N 
ATOM      6  C   UNL     1      10.084   1.058  24.113  0.00  0.00    +0.128 C 
ATOM      7  C   UNL     1       9.991   0.054  22.950  0.00  0.00    +0.128 C 
ATOM      8  N   UNL     1       8.835  -0.854  23.105  0.00  0.00    -0.283 N 
ATOM      9  C   UNL     1       9.051  -2.217  23.165  0.00  0.00    +0.303 C 
ATOM     10  N   UNL     1       7.932  -3.001  23.064  0.00  0.00    -0.285 N 
ATOM     11  H   UNL     1       7.043  -2.548  23.166  0.00  0.00    +0.151 HD
ATOM     12  O   UNL     1      10.175  -2.705  23.213  0.00  0.00    -0.253 OA
ATOM     13  C   UNL     1       7.561  -0.144  23.308  0.00  0.00    +0.128 C 
ATOM     14  C   UNL     1       7.660   0.823  24.495  0.00  0.00    +0.128 C 
ATOM     15  O   UNL     1       7.516   3.511  24.935  0.00  0.00    -0.253 OA
BRANCH   2  17
ATOM     16  C   UNL     1      10.907   5.985  23.805  0.00  0.00    +0.031 C 
ATOM     17  C   UNL     1       9.550   5.361  24.172  0.00  0.00    +0.028 C 
ATOM     18  C   UNL     1       8.515   5.829  23.134  0.00  0.00    +0.031 C 
ATOM     19  C   UNL     1       9.094   5.838  25.561  0.00  0.00    +0.031 C 
ENDBRANCH   2  17
ENDBRANCH   1  10
BRANCH   1  20
ATOM     20  C   UNL     1       8.343  -4.969  24.630  0.00  0.00    +0.326 C 
ATOM     21  OXT UNL     1       7.612  -5.035  25.610  0.00  0.00    -0.249 OA
BRANCH  20  22
ATOM     22  O   UNL     1       9.606  -5.457  24.628  0.00  0.00    -0.479 OA
ATOM     23  H   UNL     1       9.870  -5.793  23.751  0.00  0.00    +0.295 HD
ENDBRANCH  20  22
ENDBRANCH   1  20
BRANCH   1  24
ATOM     24  C   UNL     1       6.565  -5.134  22.817  0.00  0.00    +0.083 C 
BRANCH  24  25
ATOM     25  C   UNL     1       6.803  -5.726  21.432  0.00  0.00    +0.229 C 
ATOM     26  O   UNL     1       6.007  -5.586  20.511  0.00  0.00    -0.301 OA
ENDBRANCH  24  25
BRANCH  24  27
ATOM     27  C   UNL     1       5.366  -4.163  22.721  0.00  0.00    +0.016 C 
BRANCH  27  28
ATOM     28  C   UNL     1       4.120  -4.602  23.513  0.00  0.00    +0.038 C 
BRANCH  28  29
ATOM     29  C   UNL     1       3.815  -3.677  24.689  0.00  0.00    +0.196 C 
BRANCH  29  30
ATOM     30  N   UNL     1       5.011  -3.430  25.469  0.00  0.00    -0.276 N 
ATOM     31  H   UNL     1       5.791  -4.036  25.238  0.00  0.00    +0.258 HD
ATOM     32  C   UNL     1       5.432  -2.183  25.776  0.00  0.00    +0.376 C 
ATOM     33  N   UNL     1       4.824  -1.070  25.605  0.00  0.00    -0.130 NA
ATOM     34  H   UNL     1       3.917  -1.229  25.168  0.00  0.00    +0.306 HD
ATOM     35  N   UNL     1       6.653  -2.193  26.340  0.00  0.00    -0.289 N 
ATOM     36  H   UNL     1       6.856  -1.264  26.698  0.00  0.00    +0.255 HD
ATOM     37  H   UNL     1       6.735  -2.881  27.078  0.00  0.00    +0.255 HD
ENDBRANCH  29  30
ENDBRANCH  28  29
ENDBRANCH  27  28
ENDBRANCH  24  27
ENDBRANCH   1  24
TORSDOF 10
ENDMDL
MODEL 4
REMARK VINA RESULT:      -6.8      2.890     10.108
REMARK  Name = 
REMARK  13 active torsions:
REMARK  status: ('A' for Active; 'I' for Inactive)
REMARK    1  A    between atoms: C_1  and  C_2
REMARK    2  A    between atoms: C_2  and  C_3
REMARK    3  A    between atoms: C_2  and  C_4
REMARK    4  A    between atoms: C_2  and  N_5
REMARK    5  A    between atoms: N_16  and  CA_17
REMARK    6  A    between atoms: CA_17  and  C_19
REMARK    7  A    between atoms: CA_17  and  C_30
REMARK    8  A    between atoms: C_19  and  C_21
REMARK    9  A    between atoms: C_19  and  C_28
REMARK   10  A    between atoms: C_21  and  C_22
REMARK   11  A    between atoms: C_22  and  C_23
REMARK   12  A    between atoms: C_23  and  N_24
REMARK   13  A    between atoms: C_30  and  O_31
REMARK                            x       y       z     vdW  Elec       q    Type
REMARK                         _______ _______ _______ _____ _____    ______ ____
ROOT
ATOM      1  CA  UNL     1       9.488  -1.246  23.797  0.00  0.00    +0.193 C 
ENDROOT
BRANCH   1  10
ATOM      2  N   UNL     1       3.115  -6.973  23.859  0.00  0.00    -0.294 N 
ATOM      3  H   UNL     1       3.729  -7.145  24.640  0.00  0.00    +0.151 HD
ATOM      4  C   UNL     1       3.270  -5.727  23.324  0.00  0.00    +0.303 C 
ATOM      5  N   UNL     1       4.556  -5.219  23.397  0.00  0.00    -0.283 N 
ATOM      6  C   UNL     1       5.795  -5.975  23.631  0.00  0.00    +0.128 C 
ATOM      7  C   UNL     1       6.665  -5.262  24.683  0.00  0.00    +0.128 C 
ATOM      8  N   UNL     1       6.860  -3.835  24.352  0.00  0.00    -0.283 N 
ATOM      9  C   UNL     1       8.142  -3.352  24.180  0.00  0.00    +0.303 C 
ATOM     10  N   UNL     1       8.260  -1.988  24.117  0.00  0.00    -0.285 N 
ATOM     11  H   UNL     1       7.418  -1.460  23.989  0.00  0.00    +0.151 HD
ATOM     12  O   UNL     1       9.127  -4.082  24.175  0.00  0.00    -0.253 OA
ATOM     13  C   UNL     1       5.597  -3.114  24.116  0.00  0.00    +0.128 C 
ATOM     14  C   UNL     1       4.762  -3.817  23.038  0.00  0.00    +0.128 C 
ATOM     15  O   UNL     1       2.351  -5.077  22.845  0.00  0.00    -0.253 OA
BRANCH   2  17
ATOM     16  C   UNL     1       1.344  -8.120  22.549  0.00  0.00    +0.031 C 
ATOM     17  C   UNL     1       1.811  -7.656  23.939  0.00  0.00    +0.028 C 
ATOM     18  C   UNL     1       1.985  -8.905  24.822  0.00  0.00    +0.031 C 
ATOM     19  C   UNL     1       0.754  -6.746  24.588  0.00  0.00    +0.031 C 
ENDBRANCH   2  17
ENDBRANCH   1  10
BRANCH   1  20
ATOM     20  C   UNL     1       9.751  -1.021  22.290  0.00  0.00    +0.326 C 
ATOM     21  OXT UNL     1       9.120  -0.234  21.596  0.00  0.00    -0.249 OA
BRANCH  20  22
ATOM     22  O   UNL     1      10.834  -1.691  21.832  0.00  0.00    -0.479 OA
ATOM     23  H   UNL     1      10.916  -1.638  20.861  0.00  0.00    +0.295 HD
ENDBRANCH  20  22
ENDBRANCH   1  20
BRANCH   1  24
ATOM     24  C   UNL     1       9.695   0.061  24.593  0.00  0.00    +0.083 C 
BRANCH  24  25
ATOM     25  C   UNL     1       8.355   0.787  24.599  0.00  0.00    +0.229 C 
ATOM     26  O   UNL     1       7.475   0.538  25.416  0.00  0.00    -0.301 OA
ENDBRANCH  24  25
BRANCH  24  27
ATOM     27  C   UNL     1      10.750   1.008  23.980  0.00  0.00    +0.016 C 
BRANCH  27  28
ATOM     28  C   UNL     1      10.380   2.503  24.036  0.00  0.00    +0.038 C 
BRANCH  28  29
ATOM     29  C   UNL     1      11.161   3.340  23.025  0.00  0.00    +0.196 C 
BRANCH  29  30
ATOM     30  N   UNL     1      11.346   4.691  23.513  0.00  0.00    -0.276 N 
ATOM     31  H   UNL     1      10.760   4.931  24.306  0.00  0.00    +0.258 HD
ATOM     32  C   UNL     1      12.565   5.266  23.613  0.00  0.00    +0.376 C 
ATOM     33  N   UNL     1      13.688   4.838  23.173  0.00  0.00    -0.130 NA
ATOM     34  H   UNL     1      13.564   3.938  22.710  0.00  0.00    +0.306 HD
ATOM     35  N   UNL     1      12.511   6.442  24.261  0.00  0.00    -0.289 N 
ATOM     36  H   UNL     1      13.409   6.909  24.170  0.00  0.00    +0.255 HD
ATOM     37  H   UNL     1      11.768   7.040  23.922  0.00  0.00    +0.255 HD
ENDBRANCH  29  30
ENDBRANCH  28  29
ENDBRANCH  27  28
ENDBRANCH  24  27
ENDBRANCH   1  24
TORSDOF 10
ENDMDL
MODEL 5
REMARK VINA RESULT:      -6.8      2.996      9.575
REMARK  Name = 
REMARK  13 active torsions:
REMARK  status: ('A' for Active; 'I' for Inactive)
REMARK    1  A    between atoms: C_1  and  C_2
REMARK    2  A    between atoms: C_2  and  C_3
REMARK    3  A    between atoms: C_2  and  C_4
REMARK    4  A    between atoms: C_2  and  N_5
REMARK    5  A    between atoms: N_16  and  CA_17
REMARK    6  A    between atoms: CA_17  and  C_19
REMARK    7  A    between atoms: CA_17  and  C_30
REMARK    8  A    between atoms: C_19  and  C_21
REMARK    9  A    between atoms: C_19  and  C_28
REMARK   10  A    between atoms: C_21  and  C_22
REMARK   11  A    between atoms: C_22  and  C_23
REMARK   12  A    between atoms: C_23  and  N_24
REMARK   13  A    between atoms: C_30  and  O_31
REMARK                            x       y       z     vdW  Elec       q    Type
REMARK                         _______ _______ _______ _____ _____    ______ ____
ROOT
ATOM      1  CA  UNL     1       9.415  -1.790  24.112  0.00  0.00    +0.193 C 
ENDROOT
BRANCH   1  10
ATOM      2  N   UNL     1       2.809  -7.227  23.660  0.00  0.00    -0.294 N 
ATOM      3  H   UNL     1       3.406  -7.487  24.430  0.00  0.00    +0.151 HD
ATOM      4  C   UNL     1       3.022  -5.950  23.228  0.00  0.00    +0.303 C 
ATOM      5  N   UNL     1       4.327  -5.505  23.353  0.00  0.00    -0.283 N 
ATOM      6  C   UNL     1       5.531  -6.329  23.536  0.00  0.00    +0.128 C 
ATOM      7  C   UNL     1       6.417  -5.740  24.649  0.00  0.00    +0.128 C 
ATOM      8  N   UNL     1       6.676  -4.301  24.435  0.00  0.00    -0.283 N 
ATOM      9  C   UNL     1       7.979  -3.860  24.313  0.00  0.00    +0.303 C 
ATOM     10  N   UNL     1       8.154  -2.502  24.362  0.00  0.00    -0.285 N 
ATOM     11  H   UNL     1       7.336  -1.930  24.270  0.00  0.00    +0.151 HD
ATOM     12  O   UNL     1       8.932  -4.629  24.258  0.00  0.00    -0.253 OA
ATOM     13  C   UNL     1       5.446  -3.510  24.249  0.00  0.00    +0.128 C 
ATOM     14  C   UNL     1       4.596  -4.088  23.110  0.00  0.00    +0.128 C 
ATOM     15  O   UNL     1       2.137  -5.225  22.796  0.00  0.00    -0.253 OA
BRANCH   2  17
ATOM     16  C   UNL     1       1.488  -9.155  24.501  0.00  0.00    +0.031 C 
ATOM     17  C   UNL     1       1.476  -7.859  23.674  0.00  0.00    +0.028 C 
ATOM     18  C   UNL     1       0.496  -6.879  24.342  0.00  0.00    +0.031 C 
ATOM     19  C   UNL     1       0.987  -8.136  22.242  0.00  0.00    +0.031 C 
ENDBRANCH   2  17
ENDBRANCH   1  10
BRANCH   1  20
ATOM     20  C   UNL     1       9.782  -1.595  22.623  0.00  0.00    +0.326 C 
ATOM     21  OXT UNL     1      10.898  -1.799  22.162  0.00  0.00    -0.249 OA
BRANCH  20  22
ATOM     22  O   UNL     1       8.715  -1.294  21.846  0.00  0.00    -0.479 OA
ATOM     23  H   UNL     1       8.441  -2.047  21.289  0.00  0.00    +0.295 HD
ENDBRANCH  20  22
ENDBRANCH   1  20
BRANCH   1  24
ATOM     24  C   UNL     1       9.595  -0.474  24.901  0.00  0.00    +0.083 C 
BRANCH  24  25
ATOM     25  C   UNL     1       8.232   0.206  24.936  0.00  0.00    +0.229 C 
ATOM     26  O   UNL     1       7.480   0.223  23.968  0.00  0.00    -0.301 OA
ENDBRANCH  24  25
BRANCH  24  27
ATOM     27  C   UNL     1      10.602   0.508  24.260  0.00  0.00    +0.016 C 
BRANCH  27  28
ATOM     28  C   UNL     1      10.227   1.995  24.400  0.00  0.00    +0.038 C 
BRANCH  28  29
ATOM     29  C   UNL     1      10.121   2.705  23.052  0.00  0.00    +0.196 C 
BRANCH  29  30
ATOM     30  N   UNL     1       8.764   3.155  22.816  0.00  0.00    -0.276 N 
ATOM     31  H   UNL     1       8.644   4.162  22.872  0.00  0.00    +0.258 HD
ATOM     32  C   UNL     1       7.979   2.620  21.855  0.00  0.00    +0.376 C 
ATOM     33  N   UNL     1       8.191   1.582  21.137  0.00  0.00    -0.130 NA
ATOM     34  H   UNL     1       9.093   1.170  21.373  0.00  0.00    +0.306 HD
ATOM     35  N   UNL     1       6.839   3.315  21.697  0.00  0.00    -0.289 N 
ATOM     36  H   UNL     1       6.216   2.791  21.089  0.00  0.00    +0.255 HD
ATOM     37  H   UNL     1       6.382   3.520  22.577  0.00  0.00    +0.255 HD
ENDBRANCH  29  30
ENDBRANCH  28  29
ENDBRANCH  27  28
ENDBRANCH  24  27
ENDBRANCH   1  24
TORSDOF 10
ENDMDL
MODEL 6
REMARK VINA RESULT:      -6.7      2.546      9.372
REMARK  Name = 
REMARK  13 active torsions:
REMARK  status: ('A' for Active; 'I' for Inactive)
REMARK    1  A    between atoms: C_1  and  C_2
REMARK    2  A    between atoms: C_2  and  C_3
REMARK    3  A    between atoms: C_2  and  C_4
REMARK    4  A    between atoms: C_2  and  N_5
REMARK    5  A    between atoms: N_16  and  CA_17
REMARK    6  A    between atoms: CA_17  and  C_19
REMARK    7  A    between atoms: CA_17  and  C_30
REMARK    8  A    between atoms: C_19  and  C_21
REMARK    9  A    between atoms: C_19  and  C_28
REMARK   10  A    between atoms: C_21  and  C_22
REMARK   11  A    between atoms: C_22  and  C_23
REMARK   12  A    between atoms: C_23  and  N_24
REMARK   13  A    between atoms: C_30  and  O_31
REMARK                            x       y       z     vdW  Elec       q    Type
REMARK                         _______ _______ _______ _____ _____    ______ ____
ROOT
ATOM      1  CA  UNL     1       9.958   5.248  23.974  0.00  0.00    +0.193 C 
ENDROOT
BRANCH   1  10
ATOM      2  N   UNL     1       8.301  -3.090  25.037  0.00  0.00    -0.294 N 
ATOM      3  H   UNL     1       7.438  -2.570  25.063  0.00  0.00    +0.151 HD
ATOM      4  C   UNL     1       9.330  -2.388  24.479  0.00  0.00    +0.303 C 
ATOM      5  N   UNL     1       9.281  -1.020  24.690  0.00  0.00    -0.283 N 
ATOM      6  C   UNL     1       8.497  -0.308  25.710  0.00  0.00    +0.128 C 
ATOM      7  C   UNL     1       7.779   0.901  25.083  0.00  0.00    +0.128 C 
ATOM      8  N   UNL     1       8.711   1.749  24.312  0.00  0.00    -0.283 N 
ATOM      9  C   UNL     1       8.862   3.077  24.661  0.00  0.00    +0.303 C 
ATOM     10  N   UNL     1       9.547   3.854  23.763  0.00  0.00    -0.285 N 
ATOM     11  H   UNL     1      10.059   3.380  23.044  0.00  0.00    +0.151 HD
ATOM     12  O   UNL     1       8.341   3.559  25.661  0.00  0.00    -0.253 OA
ATOM     13  C   UNL     1       9.483   0.999  23.306  0.00  0.00    +0.128 C 
ATOM     14  C   UNL     1      10.223  -0.177  23.954  0.00  0.00    +0.128 C 
ATOM     15  O   UNL     1      10.216  -2.901  23.811  0.00  0.00    -0.253 OA
BRANCH   2  17
ATOM     16  C   UNL     1       9.383  -5.302  25.360  0.00  0.00    +0.031 C 
ATOM     17  C   UNL     1       8.138  -4.546  24.868  0.00  0.00    +0.028 C 
ATOM     18  C   UNL     1       6.941  -4.990  25.728  0.00  0.00    +0.031 C 
ATOM     19  C   UNL     1       7.838  -4.897  23.401  0.00  0.00    +0.031 C 
ENDBRANCH   2  17
ENDBRANCH   1  10
BRANCH   1  20
ATOM     20  C   UNL     1      11.442   5.554  23.667  0.00  0.00    +0.326 C 
ATOM     21  OXT UNL     1      12.147   6.283  24.354  0.00  0.00    -0.249 OA
BRANCH  20  22
ATOM     22  O   UNL     1      11.930   4.839  22.627  0.00  0.00    -0.479 OA
ATOM     23  H   UNL     1      12.725   4.327  22.872  0.00  0.00    +0.295 HD
ENDBRANCH  20  22
ENDBRANCH   1  20
BRANCH   1  24
ATOM     24  C   UNL     1       9.034   6.311  23.340  0.00  0.00    +0.083 C 
BRANCH  24  25
ATOM     25  C   UNL     1       8.387   7.071  24.492  0.00  0.00    +0.229 C 
ATOM     26  O   UNL     1       8.771   6.961  25.651  0.00  0.00    -0.301 OA
ENDBRANCH  24  25
BRANCH  24  27
ATOM     27  C   UNL     1       7.906   5.719  22.465  0.00  0.00    +0.016 C 
BRANCH  27  28
ATOM     28  C   UNL     1       6.500   6.271  22.770  0.00  0.00    +0.038 C 
BRANCH  28  29
ATOM     29  C   UNL     1       5.461   5.166  22.947  0.00  0.00    +0.196 C 
BRANCH  29  30
ATOM     30  N   UNL     1       5.893   3.948  22.294  0.00  0.00    -0.276 N 
ATOM     31  H   UNL     1       6.867   3.951  22.008  0.00  0.00    +0.258 HD
ATOM     32  C   UNL     1       5.511   2.723  22.718  0.00  0.00    +0.376 C 
ATOM     33  N   UNL     1       4.630   2.420  23.596  0.00  0.00    -0.130 NA
ATOM     34  H   UNL     1       4.218   3.267  23.985  0.00  0.00    +0.306 HD
ATOM     35  N   UNL     1       6.178   1.744  22.082  0.00  0.00    -0.289 N 
ATOM     36  H   UNL     1       5.749   0.852  22.311  0.00  0.00    +0.255 HD
ATOM     37  H   UNL     1       6.202   1.876  21.079  0.00  0.00    +0.255 HD
ENDBRANCH  29  30
ENDBRANCH  28  29
ENDBRANCH  27  28
ENDBRANCH  24  27
ENDBRANCH   1  24
TORSDOF 10
ENDMDL
MODEL 7
REMARK VINA RESULT:      -6.5      2.948      9.475
REMARK  Name = 
REMARK  13 active torsions:
REMARK  status: ('A' for Active; 'I' for Inactive)
REMARK    1  A    between atoms: C_1  and  C_2
REMARK    2  A    between atoms: C_2  and  C_3
REMARK    3  A    between atoms: C_2  and  C_4
REMARK    4  A    between atoms: C_2  and  N_5
REMARK    5  A    between atoms: N_16  and  CA_17
REMARK    6  A    between atoms: CA_17  and  C_19
REMARK    7  A    between atoms: CA_17  and  C_30
REMARK    8  A    between atoms: C_19  and  C_21
REMARK    9  A    between atoms: C_19  and  C_28
REMARK   10  A    between atoms: C_21  and  C_22
REMARK   11  A    between atoms: C_22  and  C_23
REMARK   12  A    between atoms: C_23  and  N_24
REMARK   13  A    between atoms: C_30  and  O_31
REMARK                            x       y       z     vdW  Elec       q    Type
REMARK                         _______ _______ _______ _____ _____    ______ ____
ROOT
ATOM      1  CA  UNL     1       9.292  -1.002  23.573  0.00  0.00    +0.193 C 
ENDROOT
BRANCH   1  10
ATOM      2  N   UNL     1       3.163  -6.983  23.822  0.00  0.00    -0.294 N 
ATOM      3  H   UNL     1       3.829  -7.154  24.559  0.00  0.00    +0.151 HD
ATOM      4  C   UNL     1       3.236  -5.716  23.320  0.00  0.00    +0.303 C 
ATOM      5  N   UNL     1       4.504  -5.159  23.333  0.00  0.00    -0.283 N 
ATOM      6  C   UNL     1       5.784  -5.870  23.468  0.00  0.00    +0.128 C 
ATOM      7  C   UNL     1       6.687  -5.155  24.490  0.00  0.00    +0.128 C 
ATOM      8  N   UNL     1       6.806  -3.712  24.195  0.00  0.00    -0.283 N 
ATOM      9  C   UNL     1       8.056  -3.171  23.964  0.00  0.00    +0.303 C 
ATOM     10  N   UNL     1       8.116  -1.803  23.940  0.00  0.00    -0.285 N 
ATOM     11  H   UNL     1       7.248  -1.306  23.881  0.00  0.00    +0.151 HD
ATOM     12  O   UNL     1       9.066  -3.861  23.876  0.00  0.00    -0.253 OA
ATOM     13  C   UNL     1       5.504  -3.036  24.060  0.00  0.00    +0.128 C 
ATOM     14  C   UNL     1       4.633  -3.738  23.011  0.00  0.00    +0.128 C 
ATOM     15  O   UNL     1       2.266  -5.089  22.919  0.00  0.00    -0.253 OA
BRANCH   2  17
ATOM     16  C   UNL     1       2.079  -8.990  24.804  0.00  0.00    +0.031 C 
ATOM     17  C   UNL     1       1.893  -7.722  23.956  0.00  0.00    +0.028 C 
ATOM     18  C   UNL     1       0.890  -6.808  24.681  0.00  0.00    +0.031 C 
ATOM     19  C   UNL     1       1.316  -8.075  22.574  0.00  0.00    +0.031 C 
ENDBRANCH   2  17
ENDBRANCH   1  10
BRANCH   1  20
ATOM     20  C   UNL     1       9.603  -0.938  22.059  0.00  0.00    +0.326 C 
ATOM     21  OXT UNL     1       9.266  -0.013  21.331  0.00  0.00    -0.249 OA
BRANCH  20  22
ATOM     22  O   UNL     1      10.394  -1.950  21.634  0.00  0.00    -0.479 OA
ATOM     23  H   UNL     1      10.699  -1.817  20.716  0.00  0.00    +0.295 HD
ENDBRANCH  20  22
ENDBRANCH   1  20
BRANCH   1  24
ATOM     24  C   UNL     1       9.357   0.404  24.208  0.00  0.00    +0.083 C 
BRANCH  24  25
ATOM     25  C   UNL     1      10.728   0.525  24.863  0.00  0.00    +0.229 C 
ATOM     26  O   UNL     1      11.619   1.228  24.397  0.00  0.00    -0.301 OA
ENDBRANCH  24  25
BRANCH  24  27
ATOM     27  C   UNL     1       8.286   0.651  25.294  0.00  0.00    +0.016 C 
BRANCH  27  28
ATOM     28  C   UNL     1       7.438   1.921  25.083  0.00  0.00    +0.038 C 
BRANCH  28  29
ATOM     29  C   UNL     1       6.540   1.829  23.851  0.00  0.00    +0.196 C 
BRANCH  29  30
ATOM     30  N   UNL     1       6.507   3.095  23.147  0.00  0.00    -0.276 N 
ATOM     31  H   UNL     1       6.224   3.883  23.722  0.00  0.00    +0.258 HD
ATOM     32  C   UNL     1       7.455   3.454  22.254  0.00  0.00    +0.376 C 
ATOM     33  N   UNL     1       8.398   2.743  21.761  0.00  0.00    -0.130 NA
ATOM     34  H   UNL     1       8.367   1.801  22.150  0.00  0.00    +0.306 HD
ATOM     35  N   UNL     1       7.320   4.736  21.871  0.00  0.00    -0.289 N 
ATOM     36  H   UNL     1       7.944   4.912  21.089  0.00  0.00    +0.255 HD
ATOM     37  H   UNL     1       6.368   4.970  21.621  0.00  0.00    +0.255 HD
ENDBRANCH  29  30
ENDBRANCH  28  29
ENDBRANCH  27  28
ENDBRANCH  24  27
ENDBRANCH   1  24
TORSDOF 10
ENDMDL
MODEL 8
REMARK VINA RESULT:      -6.1      2.363      3.329
REMARK  Name = 
REMARK  13 active torsions:
REMARK  status: ('A' for Active; 'I' for Inactive)
REMARK    1  A    between atoms: C_1  and  C_2
REMARK    2  A    between atoms: C_2  and  C_3
REMARK    3  A    between atoms: C_2  and  C_4
REMARK    4  A    between atoms: C_2  and  N_5
REMARK    5  A    between atoms: N_16  and  CA_17
REMARK    6  A    between atoms: CA_17  and  C_19
REMARK    7  A    between atoms: CA_17  and  C_30
REMARK    8  A    between atoms: C_19  and  C_21
REMARK    9  A    between atoms: C_19  and  C_28
REMARK   10  A    between atoms: C_21  and  C_22
REMARK   11  A    between atoms: C_22  and  C_23
REMARK   12  A    between atoms: C_23  and  N_24
REMARK   13  A    between atoms: C_30  and  O_31
REMARK                            x       y       z     vdW  Elec       q    Type
REMARK                         _______ _______ _______ _____ _____    ______ ____
ROOT
ATOM      1  CA  UNL     1       6.941  -3.861  25.344  0.00  0.00    +0.193 C 
ENDROOT
BRANCH   1  10
ATOM      2  N   UNL     1       7.875   4.545  23.976  0.00  0.00    -0.294 N 
ATOM      3  H   UNL     1       8.765   4.086  23.865  0.00  0.00    +0.151 HD
ATOM      4  C   UNL     1       6.819   3.683  23.916  0.00  0.00    +0.303 C 
ATOM      5  N   UNL     1       7.077   2.413  24.405  0.00  0.00    -0.283 N 
ATOM      6  C   UNL     1       8.185   2.011  25.283  0.00  0.00    +0.128 C 
ATOM      7  C   UNL     1       8.836   0.716  24.762  0.00  0.00    +0.128 C 
ATOM      8  N   UNL     1       7.830  -0.336  24.508  0.00  0.00    -0.283 N 
ATOM      9  C   UNL     1       7.932  -1.541  25.175  0.00  0.00    +0.303 C 
ATOM     10  N   UNL     1       7.119  -2.545  24.715  0.00  0.00    -0.285 N 
ATOM     11  H   UNL     1       6.380  -2.287  24.090  0.00  0.00    +0.151 HD
ATOM     12  O   UNL     1       8.757  -1.738  26.060  0.00  0.00    -0.253 OA
ATOM     13  C   UNL     1       6.733   0.108  23.631  0.00  0.00    +0.128 C 
ATOM     14  C   UNL     1       6.071   1.375  24.186  0.00  0.00    +0.128 C 
ATOM     15  O   UNL     1       5.731   3.976  23.439  0.00  0.00    -0.253 OA
BRANCH   2  17
ATOM     16  C   UNL     1       6.879   6.800  24.284  0.00  0.00    +0.031 C 
ATOM     17  C   UNL     1       7.820   5.920  23.445  0.00  0.00    +0.028 C 
ATOM     18  C   UNL     1       9.236   6.518  23.535  0.00  0.00    +0.031 C 
ATOM     19  C   UNL     1       7.387   5.920  21.969  0.00  0.00    +0.031 C 
ENDBRANCH   2  17
ENDBRANCH   1  10
BRANCH   1  20
ATOM     20  C   UNL     1       5.488  -4.217  25.732  0.00  0.00    +0.326 C 
ATOM     21  OXT UNL     1       5.183  -5.174  26.433  0.00  0.00    -0.249 OA
BRANCH  20  22
ATOM     22  O   UNL     1       4.585  -3.296  25.323  0.00  0.00    -0.479 OA
ATOM     23  H   UNL     1       4.423  -3.340  24.362  0.00  0.00    +0.295 HD
ENDBRANCH  20  22
ENDBRANCH   1  20
BRANCH   1  24
ATOM     24  C   UNL     1       7.621  -5.039  24.612  0.00  0.00    +0.083 C 
BRANCH  24  25
ATOM     25  C   UNL     1       9.002  -5.203  25.236  0.00  0.00    +0.229 C 
ATOM     26  O   UNL     1      10.018  -4.758  24.712  0.00  0.00    -0.301 OA
ENDBRANCH  24  25
BRANCH  24  27
ATOM     27  C   UNL     1       7.806  -4.811  23.095  0.00  0.00    +0.016 C 
BRANCH  27  28
ATOM     28  C   UNL     1       7.220  -5.922  22.203  0.00  0.00    +0.038 C 
BRANCH  28  29
ATOM     29  C   UNL     1       5.726  -5.741  21.943  0.00  0.00    +0.196 C 
BRANCH  29  30
ATOM     30  N   UNL     1       4.945  -6.538  22.868  0.00  0.00    -0.276 N 
ATOM     31  H   UNL     1       5.498  -7.024  23.567  0.00  0.00    +0.258 HD
ATOM     32  C   UNL     1       3.770  -6.112  23.380  0.00  0.00    +0.376 C 
ATOM     33  N   UNL     1       3.081  -5.085  23.051  0.00  0.00    -0.130 NA
ATOM     34  H   UNL     1       3.552  -4.570  22.308  0.00  0.00    +0.306 HD
ATOM     35  N   UNL     1       3.322  -6.929  24.350  0.00  0.00    -0.289 N 
ATOM     36  H   UNL     1       2.371  -6.664  24.589  0.00  0.00    +0.255 HD
ATOM     37  H   UNL     1       3.360  -7.905  24.085  0.00  0.00    +0.255 HD
ENDBRANCH  29  30
ENDBRANCH  28  29
ENDBRANCH  27  28
ENDBRANCH  24  27
ENDBRANCH   1  24
TORSDOF 10
ENDMDL
MODEL 9
REMARK VINA RESULT:      -6.1      1.401      2.028
REMARK  Name = 
REMARK  13 active torsions:
REMARK  status: ('A' for Active; 'I' for Inactive)
REMARK    1  A    between atoms: C_1  and  C_2
REMARK    2  A    between atoms: C_2  and  C_3
REMARK    3  A    between atoms: C_2  and  C_4
REMARK    4  A    between atoms: C_2  and  N_5
REMARK    5  A    between atoms: N_16  and  CA_17
REMARK    6  A    between atoms: CA_17  and  C_19
REMARK    7  A    between atoms: CA_17  and  C_30
REMARK    8  A    between atoms: C_19  and  C_21
REMARK    9  A    between atoms: C_19  and  C_28
REMARK   10  A    between atoms: C_21  and  C_22
REMARK   11  A    between atoms: C_22  and  C_23
REMARK   12  A    between atoms: C_23  and  N_24
REMARK   13  A    between atoms: C_30  and  O_31
REMARK                            x       y       z     vdW  Elec       q    Type
REMARK                         _______ _______ _______ _____ _____    ______ ____
ROOT
ATOM      1  CA  UNL     1       8.310  -4.491  24.086  0.00  0.00    +0.193 C 
ENDROOT
BRANCH   1  10
ATOM      2  N   UNL     1       9.010   4.039  24.457  0.00  0.00    -0.294 N 
ATOM      3  H   UNL     1       9.707   3.619  25.053  0.00  0.00    +0.151 HD
ATOM      4  C   UNL     1       8.491   3.166  23.546  0.00  0.00    +0.303 C 
ATOM      5  N   UNL     1       8.418   1.852  23.978  0.00  0.00    -0.283 N 
ATOM      6  C   UNL     1       8.482   1.370  25.365  0.00  0.00    +0.128 C 
ATOM      7  C   UNL     1       9.436   0.166  25.469  0.00  0.00    +0.128 C 
ATOM      8  N   UNL     1       9.118  -0.870  24.465  0.00  0.00    -0.283 N 
ATOM      9  C   UNL     1       8.803  -2.146  24.888  0.00  0.00    +0.303 C 
ATOM     10  N   UNL     1       8.759  -3.104  23.909  0.00  0.00    -0.285 N 
ATOM     11  H   UNL     1       8.748  -2.788  22.958  0.00  0.00    +0.151 HD
ATOM     12  O   UNL     1       8.661  -2.431  26.073  0.00  0.00    -0.253 OA
ATOM     13  C   UNL     1       9.057  -0.347  23.089  0.00  0.00    +0.128 C 
ATOM     14  C   UNL     1       8.072   0.825  22.996  0.00  0.00    +0.128 C 
ATOM     15  O   UNL     1       8.143   3.490  22.419  0.00  0.00    -0.253 OA
BRANCH   2  17
ATOM     16  C   UNL     1       8.150   6.012  23.217  0.00  0.00    +0.031 C 
ATOM     17  C   UNL     1       9.232   5.468  24.164  0.00  0.00    +0.028 C 
ATOM     18  C   UNL     1       9.136   6.243  25.490  0.00  0.00    +0.031 C 
ATOM     19  C   UNL     1      10.633   5.694  23.570  0.00  0.00    +0.031 C 
ENDBRANCH   2  17
ENDBRANCH   1  10
BRANCH   1  20
ATOM     20  C   UNL     1       9.036  -5.286  25.196  0.00  0.00    +0.326 C 
ATOM     21  OXT UNL     1      10.248  -5.459  25.232  0.00  0.00    -0.249 OA
BRANCH  20  22
ATOM     22  O   UNL     1       8.214  -5.673  26.199  0.00  0.00    -0.479 OA
ATOM     23  H   UNL     1       8.063  -6.638  26.200  0.00  0.00    +0.295 HD
ENDBRANCH  20  22
ENDBRANCH   1  20
BRANCH   1  24
ATOM     24  C   UNL     1       6.780  -4.682  24.183  0.00  0.00    +0.083 C 
BRANCH  24  25
ATOM     25  C   UNL     1       6.395  -5.686  23.103  0.00  0.00    +0.229 C 
ATOM     26  O   UNL     1       5.405  -6.404  23.195  0.00  0.00    -0.301 OA
ENDBRANCH  24  25
BRANCH  24  27
ATOM     27  C   UNL     1       5.971  -3.387  23.942  0.00  0.00    +0.016 C 
BRANCH  27  28
ATOM     28  C   UNL     1       4.714  -3.244  24.821  0.00  0.00    +0.038 C 
BRANCH  28  29
ATOM     29  C   UNL     1       4.777  -4.102  26.083  0.00  0.00    +0.196 C 
BRANCH  29  30
ATOM     30  N   UNL     1       4.037  -5.334  25.902  0.00  0.00    -0.276 N 
ATOM     31  H   UNL     1       3.579  -5.415  24.999  0.00  0.00    +0.258 HD
ATOM     32  C   UNL     1       4.503  -6.529  26.324  0.00  0.00    +0.376 C 
ATOM     33  N   UNL     1       5.522  -6.775  27.059  0.00  0.00    -0.130 NA
ATOM     34  H   UNL     1       5.994  -5.906  27.307  0.00  0.00    +0.306 HD
ATOM     35  N   UNL     1       3.741  -7.546  25.885  0.00  0.00    -0.289 N 
ATOM     36  H   UNL     1       4.030  -8.400  26.355  0.00  0.00    +0.255 HD
ATOM     37  H   UNL     1       2.753  -7.383  26.028  0.00  0.00    +0.255 HD
ENDBRANCH  29  30
ENDBRANCH  28  29
ENDBRANCH  27  28
ENDBRANCH  24  27
ENDBRANCH   1  24
TORSDOF 10
ENDMDL
