MODEL 1
REMARK VINA RESULT:      -8.0      0.000      0.000
REMARK  Name = 
REMARK  10 active torsions:
REMARK  status: ('A' for Active; 'I' for Inactive)
REMARK    1  A    between atoms: C_1  and  C_2
REMARK    2  A    between atoms: C_2  and  N_4
REMARK    3  A    between atoms: C_2  and  C_5
REMARK    4  A    between atoms: N_7  and  S_8
REMARK    5  A    between atoms: S_8  and  O_11
REMARK    6  A    between atoms: O_11  and  C_12
REMARK    7  A    between atoms: C_12  and  C_13
REMARK    8  A    between atoms: C_16  and  N_24
REMARK    9  A    between atoms: C_18  and  O_20
REMARK   10  A    between atoms: C_21  and  O_23
REMARK                            x       y       z     vdW  Elec       q    Type
REMARK                         _______ _______ _______ _____ _____    ______ ____
ROOT
ATOM      1  C   UNL     1       8.592  -4.207  26.450  0.00  0.00    +0.180 C 
ATOM      2  C   UNL     1       8.807  -5.272  25.375  0.00  0.00    +0.178 C 
ATOM      3  C   UNL     1       8.501  -4.571  24.048  0.00  0.00    +0.195 C 
ATOM      4  C   UNL     1       8.227  -3.113  24.438  0.00  0.00    +0.253 C 
ATOM      5  O   UNL     1       8.760  -2.946  25.771  0.00  0.00    -0.346 OA
ENDROOT
BRANCH   4   6
ATOM      6  N   UNL     1       8.783  -2.085  23.578  0.00  0.00    -0.286 N 
ATOM      7  C   UNL     1       8.202  -0.895  23.223  0.00  0.00    +0.167 A 
ATOM      8  N   UNL     1       6.940  -0.486  23.449  0.00  0.00    -0.216 NA
ATOM      9  C   UNL     1       6.739   0.749  22.934  0.00  0.00    +0.225 A 
ATOM     10  N   UNL     1       7.625   1.557  22.311  0.00  0.00    -0.219 NA
ATOM     11  C   UNL     1       8.892   1.116  22.151  0.00  0.00    +0.147 A 
ATOM     12  N   UNL     1       9.818   1.965  21.562  0.00  0.00    -0.341 N 
ATOM     13  H   UNL     1      10.634   1.494  21.190  0.00  0.00    +0.144 HD
ATOM     14  H   UNL     1       9.393   2.696  21.009  0.00  0.00    +0.144 HD
ATOM     15  C   UNL     1       9.209  -0.181  22.590  0.00  0.00    +0.147 A 
ATOM     16  N   UNL     1      10.372  -0.916  22.530  0.00  0.00    -0.231 NA
ATOM     17  C   UNL     1      10.085  -2.046  23.140  0.00  0.00    +0.203 A 
ENDBRANCH   4   6
BRANCH   2  18
ATOM     18  O   UNL     1      10.190  -5.676  25.378  0.00  0.00    -0.386 OA
ATOM     19  H   UNL     1      10.280  -6.480  24.836  0.00  0.00    +0.210 HD
ENDBRANCH   2  18
BRANCH   3  20
ATOM     20  O   UNL     1       7.356  -5.150  23.421  0.00  0.00    -0.385 OA
ATOM     21  H   UNL     1       7.690  -5.836  22.809  0.00  0.00    +0.210 HD
ENDBRANCH   3  20
BRANCH   1  22
ATOM     22  C   UNL     1       7.214  -4.257  27.123  0.00  0.00    +0.229 C 
BRANCH  22  23
ATOM     23  O   UNL     1       7.106  -5.394  27.962  0.00  0.00    -0.220 OA
BRANCH  23  24
ATOM     24  S   UNL     1       5.677  -6.170  27.970  0.00  0.00    +0.169 S 
ATOM     25  O   UNL     1       5.892  -7.463  28.578  0.00  0.00    -0.126 OA
ATOM     26  O   UNL     1       4.667  -5.277  28.487  0.00  0.00    -0.126 OA
BRANCH  24  28
ATOM     27  C   UNL     1       4.115  -6.893  25.897  0.00  0.00    +0.250 C 
ATOM     28  N   UNL     1       5.354  -6.470  26.383  0.00  0.00    -0.164 N 
ATOM     29  H   UNL     1       6.124  -6.368  25.730  0.00  0.00    +0.179 HD
ATOM     30  O   UNL     1       3.132  -7.048  26.613  0.00  0.00    -0.272 OA
BRANCH  27  32
ATOM     31  C   UNL     1       3.878  -5.881  23.617  0.00  0.00    +0.033 C 
ATOM     32  C   UNL     1       4.078  -7.179  24.385  0.00  0.00    +0.136 C 
BRANCH  32  33
ATOM     33  N   UNL     1       3.001  -8.143  24.054  0.00  0.00    -0.320 NA
ATOM     34  H   UNL     1       2.212  -7.616  23.674  0.00  0.00    +0.119 HD
ATOM     35  H   UNL     1       3.320  -8.729  23.279  0.00  0.00    +0.119 HD
ENDBRANCH  32  33
ENDBRANCH  27  32
ENDBRANCH  24  28
ENDBRANCH  23  24
ENDBRANCH  22  23
ENDBRANCH   1  22
TORSDOF 9
ENDMDL
MODEL 2
REMARK VINA RESULT:      -7.6      3.050      8.108
REMARK  Name = 
REMARK  10 active torsions:
REMARK  status: ('A' for Active; 'I' for Inactive)
REMARK    1  A    between atoms: C_1  and  C_2
REMARK    2  A    between atoms: C_2  and  N_4
REMARK    3  A    between atoms: C_2  and  C_5
REMARK    4  A    between atoms: N_7  and  S_8
REMARK    5  A    between atoms: S_8  and  O_11
REMARK    6  A    between atoms: O_11  and  C_12
REMARK    7  A    between atoms: C_12  and  C_13
REMARK    8  A    between atoms: C_16  and  N_24
REMARK    9  A    between atoms: C_18  and  O_20
REMARK   10  A    between atoms: C_21  and  O_23
REMARK                            x       y       z     vdW  Elec       q    Type
REMARK                         _______ _______ _______ _____ _____    ______ ____
ROOT
ATOM      1  C   UNL     1       5.871  -3.681  22.190  0.00  0.00    +0.180 C 
ATOM      2  C   UNL     1       6.848  -4.815  21.876  0.00  0.00    +0.178 C 
ATOM      3  C   UNL     1       7.075  -5.532  23.211  0.00  0.00    +0.195 C 
ATOM      4  C   UNL     1       6.131  -4.824  24.193  0.00  0.00    +0.253 C 
ATOM      5  O   UNL     1       5.177  -4.101  23.382  0.00  0.00    -0.346 OA
ENDROOT
BRANCH   4   6
ATOM      6  N   UNL     1       5.410  -5.661  25.133  0.00  0.00    -0.286 N 
ATOM      7  C   UNL     1       5.788  -5.993  26.408  0.00  0.00    +0.167 A 
ATOM      8  N   UNL     1       6.969  -5.763  27.012  0.00  0.00    -0.216 NA
ATOM      9  C   UNL     1       6.963  -6.254  28.273  0.00  0.00    +0.225 A 
ATOM     10  N   UNL     1       5.954  -6.858  28.939  0.00  0.00    -0.219 NA
ATOM     11  C   UNL     1       4.774  -7.022  28.301  0.00  0.00    +0.147 A 
ATOM     12  N   UNL     1       3.719  -7.591  29.000  0.00  0.00    -0.341 N 
ATOM     13  H   UNL     1       2.987  -7.969  28.410  0.00  0.00    +0.144 HD
ATOM     14  H   UNL     1       4.016  -8.130  29.801  0.00  0.00    +0.144 HD
ATOM     15  C   UNL     1       4.674  -6.608  26.962  0.00  0.00    +0.147 A 
ATOM     16  N   UNL     1       3.646  -6.679  26.049  0.00  0.00    -0.231 NA
ATOM     17  C   UNL     1       4.116  -6.093  24.969  0.00  0.00    +0.203 A 
ENDBRANCH   4   6
BRANCH   2  18
ATOM     18  O   UNL     1       6.227  -5.734  20.957  0.00  0.00    -0.386 OA
ATOM     19  H   UNL     1       6.806  -5.836  20.181  0.00  0.00    +0.210 HD
ENDBRANCH   2  18
BRANCH   3  20
ATOM     20  O   UNL     1       8.433  -5.400  23.633  0.00  0.00    -0.385 OA
ATOM     21  H   UNL     1       8.547  -6.005  24.393  0.00  0.00    +0.210 HD
ENDBRANCH   3  20
BRANCH   1  22
ATOM     22  C   UNL     1       6.539  -2.320  22.429  0.00  0.00    +0.229 C 
BRANCH  22  23
ATOM     23  O   UNL     1       7.940  -2.408  22.237  0.00  0.00    -0.220 OA
BRANCH  23  24
ATOM     24  S   UNL     1       8.884  -1.859  23.442  0.00  0.00    +0.169 S 
ATOM     25  O   UNL     1       8.038  -1.656  24.595  0.00  0.00    -0.126 OA
ATOM     26  O   UNL     1      10.056  -2.698  23.533  0.00  0.00    -0.126 OA
BRANCH  24  28
ATOM     27  C   UNL     1      10.127   0.516  23.725  0.00  0.00    +0.250 C 
ATOM     28  N   UNL     1       9.348  -0.354  22.959  0.00  0.00    -0.164 N 
ATOM     29  H   UNL     1       9.012  -0.038  22.054  0.00  0.00    +0.179 HD
ATOM     30  O   UNL     1      10.571   0.220  24.829  0.00  0.00    -0.272 OA
BRANCH  27  32
ATOM     31  C   UNL     1       9.683   2.974  23.916  0.00  0.00    +0.033 C 
ATOM     32  C   UNL     1      10.369   1.896  23.090  0.00  0.00    +0.136 C 
BRANCH  32  33
ATOM     33  N   UNL     1       9.879   1.931  21.692  0.00  0.00    -0.320 NA
ATOM     34  H   UNL     1       8.886   1.690  21.699  0.00  0.00    +0.119 HD
ATOM     35  H   UNL     1       9.910   2.899  21.363  0.00  0.00    +0.119 HD
ENDBRANCH  32  33
ENDBRANCH  27  32
ENDBRANCH  24  28
ENDBRANCH  23  24
ENDBRANCH  22  23
ENDBRANCH   1  22
TORSDOF 9
ENDMDL
MODEL 3
REMARK VINA RESULT:      -7.6      2.178      3.012
REMARK  Name = 
REMARK  10 active torsions:
REMARK  status: ('A' for Active; 'I' for Inactive)
REMARK    1  A    between atoms: C_1  and  C_2
REMARK    2  A    between atoms: C_2  and  N_4
REMARK    3  A    between atoms: C_2  and  C_5
REMARK    4  A    between atoms: N_7  and  S_8
REMARK    5  A    between atoms: S_8  and  O_11
REMARK    6  A    between atoms: O_11  and  C_12
REMARK    7  A    between atoms: C_12  and  C_13
REMARK    8  A    between atoms: C_16  and  N_24
REMARK    9  A    between atoms: C_18  and  O_20
REMARK   10  A    between atoms: C_21  and  O_23
REMARK                            x       y       z     vdW  Elec       q    Type
REMARK                         _______ _______ _______ _____ _____    ______ ____
ROOT
ATOM      1  C   UNL     1       8.887  -5.124  24.811  0.00  0.00    +0.180 C 
ATOM      2  C   UNL     1       7.677  -5.253  23.885  0.00  0.00    +0.178 C 
ATOM      3  C   UNL     1       7.330  -3.819  23.474  0.00  0.00    +0.195 C 
ATOM      4  C   UNL     1       8.431  -2.960  24.111  0.00  0.00    +0.253 C 
ATOM      5  O   UNL     1       9.501  -3.869  24.456  0.00  0.00    -0.346 OA
ENDROOT
BRANCH   4   6
ATOM      6  N   UNL     1       8.972  -1.880  23.308  0.00  0.00    -0.286 N 
ATOM      7  C   UNL     1       8.364  -0.691  22.998  0.00  0.00    +0.167 A 
ATOM      8  N   UNL     1       7.089  -0.325  23.222  0.00  0.00    -0.216 NA
ATOM      9  C   UNL     1       6.863   0.927  22.761  0.00  0.00    +0.225 A 
ATOM     10  N   UNL     1       7.736   1.785  22.189  0.00  0.00    -0.219 NA
ATOM     11  C   UNL     1       9.016   1.385  22.029  0.00  0.00    +0.147 A 
ATOM     12  N   UNL     1       9.928   2.284  21.494  0.00  0.00    -0.341 N 
ATOM     13  H   UNL     1      10.762   1.851  21.115  0.00  0.00    +0.144 HD
ATOM     14  H   UNL     1       9.492   3.028  20.968  0.00  0.00    +0.144 HD
ATOM     15  C   UNL     1       9.362   0.078  22.414  0.00  0.00    +0.147 A 
ATOM     16  N   UNL     1      10.544  -0.624  22.340  0.00  0.00    -0.231 NA
ATOM     17  C   UNL     1      10.278  -1.787  22.893  0.00  0.00    +0.203 A 
ENDBRANCH   4   6
BRANCH   2  18
ATOM     18  O   UNL     1       8.057  -5.993  22.709  0.00  0.00    -0.386 OA
ATOM     19  H   UNL     1       7.795  -6.923  22.829  0.00  0.00    +0.210 HD
ENDBRANCH   2  18
BRANCH   3  20
ATOM     20  O   UNL     1       6.045  -3.445  23.973  0.00  0.00    -0.385 OA
ATOM     21  H   UNL     1       5.802  -4.115  24.644  0.00  0.00    +0.210 HD
ENDBRANCH   3  20
BRANCH   1  22
ATOM     22  C   UNL     1       8.543  -5.131  26.306  0.00  0.00    +0.229 C 
BRANCH  22  23
ATOM     23  O   UNL     1       7.380  -5.905  26.550  0.00  0.00    -0.220 OA
BRANCH  23  24
ATOM     24  S   UNL     1       6.163  -5.175  27.342  0.00  0.00    +0.169 S 
ATOM     25  O   UNL     1       4.926  -5.640  26.758  0.00  0.00    -0.126 OA
ATOM     26  O   UNL     1       6.394  -5.298  28.763  0.00  0.00    -0.126 OA
BRANCH  24  28
ATOM     27  C   UNL     1       5.388  -2.593  27.330  0.00  0.00    +0.250 C 
ATOM     28  N   UNL     1       6.283  -3.585  26.925  0.00  0.00    -0.164 N 
ATOM     29  H   UNL     1       7.046  -3.330  26.305  0.00  0.00    +0.179 HD
ATOM     30  O   UNL     1       4.437  -2.812  28.073  0.00  0.00    -0.272 OA
BRANCH  27  32
ATOM     31  C   UNL     1       5.197  -0.127  27.728  0.00  0.00    +0.033 C 
ATOM     32  C   UNL     1       5.668  -1.195  26.751  0.00  0.00    +0.136 C 
BRANCH  32  33
ATOM     33  N   UNL     1       5.000  -1.021  25.439  0.00  0.00    -0.320 NA
ATOM     34  H   UNL     1       4.826  -0.023  25.304  0.00  0.00    +0.119 HD
ATOM     35  H   UNL     1       5.665  -1.271  24.704  0.00  0.00    +0.119 HD
ENDBRANCH  32  33
ENDBRANCH  27  32
ENDBRANCH  24  28
ENDBRANCH  23  24
ENDBRANCH  22  23
ENDBRANCH   1  22
TORSDOF 9
ENDMDL
MODEL 4
REMARK VINA RESULT:      -7.5      1.480      1.805
REMARK  Name = 
REMARK  10 active torsions:
REMARK  status: ('A' for Active; 'I' for Inactive)
REMARK    1  A    between atoms: C_1  and  C_2
REMARK    2  A    between atoms: C_2  and  N_4
REMARK    3  A    between atoms: C_2  and  C_5
REMARK    4  A    between atoms: N_7  and  S_8
REMARK    5  A    between atoms: S_8  and  O_11
REMARK    6  A    between atoms: O_11  and  C_12
REMARK    7  A    between atoms: C_12  and  C_13
REMARK    8  A    between atoms: C_16  and  N_24
REMARK    9  A    between atoms: C_18  and  O_20
REMARK   10  A    between atoms: C_21  and  O_23
REMARK                            x       y       z     vdW  Elec       q    Type
REMARK                         _______ _______ _______ _____ _____    ______ ____
ROOT
ATOM      1  C   UNL     1       9.121  -4.878  24.791  0.00  0.00    +0.180 C 
ATOM      2  C   UNL     1       7.847  -5.149  23.991  0.00  0.00    +0.178 C 
ATOM      3  C   UNL     1       7.302  -3.766  23.622  0.00  0.00    +0.195 C 
ATOM      4  C   UNL     1       8.357  -2.784  24.149  0.00  0.00    +0.253 C 
ATOM      5  O   UNL     1       9.551  -3.564  24.382  0.00  0.00    -0.346 OA
ENDROOT
BRANCH   4   6
ATOM      6  N   UNL     1       8.690  -1.656  23.299  0.00  0.00    -0.286 N 
ATOM      7  C   UNL     1       8.912  -0.361  23.688  0.00  0.00    +0.167 A 
ATOM      8  N   UNL     1       8.712   0.190  24.900  0.00  0.00    -0.216 NA
ATOM      9  C   UNL     1       9.037   1.503  24.887  0.00  0.00    +0.225 A 
ATOM     10  N   UNL     1       9.543   2.237  23.872  0.00  0.00    -0.219 NA
ATOM     11  C   UNL     1       9.769   1.624  22.689  0.00  0.00    +0.147 A 
ATOM     12  N   UNL     1      10.341   2.360  21.662  0.00  0.00    -0.341 N 
ATOM     13  H   UNL     1      10.201   1.964  20.739  0.00  0.00    +0.144 HD
ATOM     14  H   UNL     1      10.231   3.357  21.777  0.00  0.00    +0.144 HD
ATOM     15  C   UNL     1       9.413   0.271  22.558  0.00  0.00    +0.147 A 
ATOM     16  N   UNL     1       9.474  -0.601  21.494  0.00  0.00    -0.231 NA
ATOM     17  C   UNL     1       9.045  -1.747  21.975  0.00  0.00    +0.203 A 
ENDBRANCH   4   6
BRANCH   2  18
ATOM     18  O   UNL     1       8.189  -5.850  22.780  0.00  0.00    -0.386 OA
ATOM     19  H   UNL     1       7.373  -6.012  22.273  0.00  0.00    +0.210 HD
ENDBRANCH   2  18
BRANCH   3  20
ATOM     20  O   UNL     1       6.040  -3.535  24.248  0.00  0.00    -0.385 OA
ATOM     21  H   UNL     1       5.695  -4.412  24.511  0.00  0.00    +0.210 HD
ENDBRANCH   3  20
BRANCH   1  22
ATOM     22  C   UNL     1       8.931  -4.912  26.314  0.00  0.00    +0.229 C 
BRANCH  22  23
ATOM     23  O   UNL     1       8.069  -5.973  26.688  0.00  0.00    -0.220 OA
BRANCH  23  24
ATOM     24  S   UNL     1       6.593  -5.565  27.233  0.00  0.00    +0.169 S 
ATOM     25  O   UNL     1       6.354  -6.322  28.441  0.00  0.00    -0.126 OA
ATOM     26  O   UNL     1       6.480  -4.126  27.237  0.00  0.00    -0.126 OA
BRANCH  24  28
ATOM     27  C   UNL     1       4.173  -5.934  26.105  0.00  0.00    +0.250 C 
ATOM     28  N   UNL     1       5.548  -6.173  26.112  0.00  0.00    -0.164 N 
ATOM     29  H   UNL     1       5.940  -6.786  25.405  0.00  0.00    +0.179 HD
ATOM     30  O   UNL     1       3.614  -5.211  26.923  0.00  0.00    -0.272 OA
BRANCH  27  32
ATOM     31  C   UNL     1       2.392  -7.629  25.624  0.00  0.00    +0.033 C 
ATOM     32  C   UNL     1       3.395  -6.671  25.000  0.00  0.00    +0.136 C 
BRANCH  32  33
ATOM     33  N   UNL     1       4.317  -7.406  24.102  0.00  0.00    -0.320 NA
ATOM     34  H   UNL     1       4.555  -6.790  23.322  0.00  0.00    +0.119 HD
ATOM     35  H   UNL     1       5.200  -7.552  24.597  0.00  0.00    +0.119 HD
ENDBRANCH  32  33
ENDBRANCH  27  32
ENDBRANCH  24  28
ENDBRANCH  23  24
ENDBRANCH  22  23
ENDBRANCH   1  22
TORSDOF 9
ENDMDL
MODEL 5
REMARK VINA RESULT:      -7.4      1.314      2.047
REMARK  Name = 
REMARK  10 active torsions:
REMARK  status: ('A' for Active; 'I' for Inactive)
REMARK    1  A    between atoms: C_1  and  C_2
REMARK    2  A    between atoms: C_2  and  N_4
REMARK    3  A    between atoms: C_2  and  C_5
REMARK    4  A    between atoms: N_7  and  S_8
REMARK    5  A    between atoms: S_8  and  O_11
REMARK    6  A    between atoms: O_11  and  C_12
REMARK    7  A    between atoms: C_12  and  C_13
REMARK    8  A    between atoms: C_16  and  N_24
REMARK    9  A    between atoms: C_18  and  O_20
REMARK   10  A    between atoms: C_21  and  O_23
REMARK                            x       y       z     vdW  Elec       q    Type
REMARK                         _______ _______ _______ _____ _____    ______ ____
ROOT
ATOM      1  C   UNL     1       8.592  -4.584  26.464  0.00  0.00    +0.180 C 
ATOM      2  C   UNL     1       8.814  -5.319  25.142  0.00  0.00    +0.178 C 
ATOM      3  C   UNL     1       8.034  -4.514  24.099  0.00  0.00    +0.195 C 
ATOM      4  C   UNL     1       7.493  -3.304  24.872  0.00  0.00    +0.253 C 
ATOM      5  O   UNL     1       8.264  -3.230  26.093  0.00  0.00    -0.346 OA
ENDROOT
BRANCH   4   6
ATOM      6  N   UNL     1       7.546  -2.017  24.204  0.00  0.00    -0.286 N 
ATOM      7  C   UNL     1       8.557  -1.533  23.416  0.00  0.00    +0.167 A 
ATOM      8  N   UNL     1       9.782  -2.055  23.218  0.00  0.00    -0.216 NA
ATOM      9  C   UNL     1      10.502  -1.277  22.378  0.00  0.00    +0.225 A 
ATOM     10  N   UNL     1      10.123  -0.149  21.739  0.00  0.00    -0.219 NA
ATOM     11  C   UNL     1       8.867   0.308  21.936  0.00  0.00    +0.147 A 
ATOM     12  N   UNL     1       8.456   1.434  21.238  0.00  0.00    -0.341 N 
ATOM     13  H   UNL     1       7.653   1.902  21.643  0.00  0.00    +0.144 HD
ATOM     14  H   UNL     1       9.224   2.000  20.907  0.00  0.00    +0.144 HD
ATOM     15  C   UNL     1       8.039  -0.381  22.838  0.00  0.00    +0.147 A 
ATOM     16  N   UNL     1       6.755  -0.146  23.277  0.00  0.00    -0.231 NA
ATOM     17  C   UNL     1       6.488  -1.150  24.084  0.00  0.00    +0.203 A 
ENDBRANCH   4   6
BRANCH   2  18
ATOM     18  O   UNL     1      10.215  -5.278  24.808  0.00  0.00    -0.386 OA
ATOM     19  H   UNL     1      10.702  -5.837  25.438  0.00  0.00    +0.210 HD
ENDBRANCH   2  18
BRANCH   3  20
ATOM     20  O   UNL     1       6.962  -5.289  23.559  0.00  0.00    -0.385 OA
ATOM     21  H   UNL     1       7.308  -6.196  23.438  0.00  0.00    +0.210 HD
ENDBRANCH   3  20
BRANCH   1  22
ATOM     22  C   UNL     1       7.471  -5.171  27.333  0.00  0.00    +0.229 C 
BRANCH  22  23
ATOM     23  O   UNL     1       6.682  -6.081  26.587  0.00  0.00    -0.220 OA
BRANCH  23  24
ATOM     24  S   UNL     1       5.069  -5.887  26.659  0.00  0.00    +0.169 S 
ATOM     25  O   UNL     1       4.511  -7.107  27.195  0.00  0.00    -0.126 OA
ATOM     26  O   UNL     1       4.782  -4.615  27.279  0.00  0.00    -0.126 OA
BRANCH  24  28
ATOM     27  C   UNL     1       3.261  -5.647  24.674  0.00  0.00    +0.250 C 
ATOM     28  N   UNL     1       4.583  -5.829  25.085  0.00  0.00    -0.164 N 
ATOM     29  H   UNL     1       5.298  -5.966  24.379  0.00  0.00    +0.179 HD
ATOM     30  O   UNL     1       2.333  -5.478  25.458  0.00  0.00    -0.272 OA
BRANCH  27  32
ATOM     31  C   UNL     1       1.914  -6.666  22.823  0.00  0.00    +0.033 C 
ATOM     32  C   UNL     1       3.044  -5.701  23.152  0.00  0.00    +0.136 C 
BRANCH  32  33
ATOM     33  N   UNL     1       4.287  -6.108  22.453  0.00  0.00    -0.320 NA
ATOM     34  H   UNL     1       4.084  -6.952  21.914  0.00  0.00    +0.119 HD
ATOM     35  H   UNL     1       4.509  -5.398  21.751  0.00  0.00    +0.119 HD
ENDBRANCH  32  33
ENDBRANCH  27  32
ENDBRANCH  24  28
ENDBRANCH  23  24
ENDBRANCH  22  23
ENDBRANCH   1  22
TORSDOF 9
ENDMDL
MODEL 6
REMARK VINA RESULT:      -7.3      1.770      2.011
REMARK  Name = 
REMARK  10 active torsions:
REMARK  status: ('A' for Active; 'I' for Inactive)
REMARK    1  A    between atoms: C_1  and  C_2
REMARK    2  A    between atoms: C_2  and  N_4
REMARK    3  A    between atoms: C_2  and  C_5
REMARK    4  A    between atoms: N_7  and  S_8
REMARK    5  A    between atoms: S_8  and  O_11
REMARK    6  A    between atoms: O_11  and  C_12
REMARK    7  A    between atoms: C_12  and  C_13
REMARK    8  A    between atoms: C_16  and  N_24
REMARK    9  A    between atoms: C_18  and  O_20
REMARK   10  A    between atoms: C_21  and  O_23
REMARK                            x       y       z     vdW  Elec       q    Type
REMARK                         _______ _______ _______ _____ _____    ______ ____
ROOT
ATOM      1  C   UNL     1       8.368  -4.130  26.245  0.00  0.00    +0.180 C 
ATOM      2  C   UNL     1       8.589  -5.186  25.162  0.00  0.00    +0.178 C 
ATOM      3  C   UNL     1       8.367  -4.455  23.835  0.00  0.00    +0.195 C 
ATOM      4  C   UNL     1       8.131  -2.992  24.237  0.00  0.00    +0.253 C 
ATOM      5  O   UNL     1       8.612  -2.866  25.595  0.00  0.00    -0.346 OA
ENDROOT
BRANCH   4   6
ATOM      6  N   UNL     1       8.761  -1.974  23.418  0.00  0.00    -0.286 N 
ATOM      7  C   UNL     1       8.226  -0.774  23.029  0.00  0.00    +0.167 A 
ATOM      8  N   UNL     1       6.960  -0.341  23.173  0.00  0.00    -0.216 NA
ATOM      9  C   UNL     1       6.817   0.898  22.649  0.00  0.00    +0.225 A 
ATOM     10  N   UNL     1       7.756   1.690  22.087  0.00  0.00    -0.219 NA
ATOM     11  C   UNL     1       9.022   1.226  22.010  0.00  0.00    +0.147 A 
ATOM     12  N   UNL     1      10.001   2.059  21.485  0.00  0.00    -0.341 N 
ATOM     13  H   UNL     1      10.831   1.573  21.167  0.00  0.00    +0.144 HD
ATOM     14  H   UNL     1       9.626   2.798  20.908  0.00  0.00    +0.144 HD
ATOM     15  C   UNL     1       9.286  -0.077  22.466  0.00  0.00    +0.147 A 
ATOM     16  N   UNL     1      10.437  -0.834  22.481  0.00  0.00    -0.231 NA
ATOM     17  C   UNL     1      10.089  -1.959  23.068  0.00  0.00    +0.203 A 
ENDBRANCH   4   6
BRANCH   2  18
ATOM     18  O   UNL     1       9.955  -5.642  25.217  0.00  0.00    -0.386 OA
ATOM     19  H   UNL     1      10.391  -5.418  24.377  0.00  0.00    +0.210 HD
ENDBRANCH   2  18
BRANCH   3  20
ATOM     20  O   UNL     1       7.228  -4.980  23.151  0.00  0.00    -0.385 OA
ATOM     21  H   UNL     1       7.179  -4.511  22.294  0.00  0.00    +0.210 HD
ENDBRANCH   3  20
BRANCH   1  22
ATOM     22  C   UNL     1       6.961  -4.137  26.858  0.00  0.00    +0.229 C 
BRANCH  22  23
ATOM     23  O   UNL     1       6.313  -2.895  26.641  0.00  0.00    -0.220 OA
BRANCH  23  24
ATOM     24  S   UNL     1       4.796  -2.948  26.062  0.00  0.00    +0.169 S 
ATOM     25  O   UNL     1       3.918  -3.234  27.174  0.00  0.00    -0.126 OA
ATOM     26  O   UNL     1       4.574  -1.785  25.235  0.00  0.00    -0.126 OA
BRANCH  24  28
ATOM     27  C   UNL     1       3.622  -4.748  24.435  0.00  0.00    +0.250 C 
ATOM     28  N   UNL     1       4.757  -4.290  25.106  0.00  0.00    -0.164 N 
ATOM     29  H   UNL     1       5.616  -4.827  25.035  0.00  0.00    +0.179 HD
ATOM     30  O   UNL     1       2.543  -4.166  24.468  0.00  0.00    -0.272 OA
BRANCH  27  32
ATOM     31  C   UNL     1       4.546  -7.075  24.535  0.00  0.00    +0.033 C 
ATOM     32  C   UNL     1       3.816  -6.065  23.662  0.00  0.00    +0.136 C 
BRANCH  32  33
ATOM     33  N   UNL     1       4.565  -5.836  22.404  0.00  0.00    -0.320 NA
ATOM     34  H   UNL     1       4.147  -6.419  21.676  0.00  0.00    +0.119 HD
ATOM     35  H   UNL     1       4.395  -4.875  22.097  0.00  0.00    +0.119 HD
ENDBRANCH  32  33
ENDBRANCH  27  32
ENDBRANCH  24  28
ENDBRANCH  23  24
ENDBRANCH  22  23
ENDBRANCH   1  22
TORSDOF 9
ENDMDL
MODEL 7
REMARK VINA RESULT:      -7.3      4.507      9.182
REMARK  Name = 
REMARK  10 active torsions:
REMARK  status: ('A' for Active; 'I' for Inactive)
REMARK    1  A    between atoms: C_1  and  C_2
REMARK    2  A    between atoms: C_2  and  N_4
REMARK    3  A    between atoms: C_2  and  C_5
REMARK    4  A    between atoms: N_7  and  S_8
REMARK    5  A    between atoms: S_8  and  O_11
REMARK    6  A    between atoms: O_11  and  C_12
REMARK    7  A    between atoms: C_12  and  C_13
REMARK    8  A    between atoms: C_16  and  N_24
REMARK    9  A    between atoms: C_18  and  O_20
REMARK   10  A    between atoms: C_21  and  O_23
REMARK                            x       y       z     vdW  Elec       q    Type
REMARK                         _______ _______ _______ _____ _____    ______ ____
ROOT
ATOM      1  C   UNL     1       8.738  -0.298  22.804  0.00  0.00    +0.180 C 
ATOM      2  C   UNL     1       9.877  -1.317  22.802  0.00  0.00    +0.178 C 
ATOM      3  C   UNL     1       9.252  -2.620  23.308  0.00  0.00    +0.195 C 
ATOM      4  C   UNL     1       7.762  -2.293  23.474  0.00  0.00    +0.253 C 
ATOM      5  O   UNL     1       7.531  -1.081  22.720  0.00  0.00    -0.346 OA
ENDROOT
BRANCH   4   6
ATOM      6  N   UNL     1       6.813  -3.303  23.044  0.00  0.00    -0.286 N 
ATOM      7  C   UNL     1       6.265  -4.303  23.803  0.00  0.00    +0.167 A 
ATOM      8  N   UNL     1       6.598  -4.678  25.052  0.00  0.00    -0.216 NA
ATOM      9  C   UNL     1       5.834  -5.718  25.458  0.00  0.00    +0.225 A 
ATOM     10  N   UNL     1       4.825  -6.331  24.800  0.00  0.00    -0.219 NA
ATOM     11  C   UNL     1       4.501  -5.886  23.567  0.00  0.00    +0.147 A 
ATOM     12  N   UNL     1       3.429  -6.476  22.912  0.00  0.00    -0.341 N 
ATOM     13  H   UNL     1       3.428  -6.333  21.908  0.00  0.00    +0.144 HD
ATOM     14  H   UNL     1       3.202  -7.394  23.266  0.00  0.00    +0.144 HD
ATOM     15  C   UNL     1       5.264  -4.847  23.008  0.00  0.00    +0.147 A 
ATOM     16  N   UNL     1       5.213  -4.219  21.784  0.00  0.00    -0.231 NA
ATOM     17  C   UNL     1       6.146  -3.293  21.843  0.00  0.00    +0.203 A 
ENDBRANCH   4   6
BRANCH   2  18
ATOM     18  O   UNL     1      10.332  -1.516  21.450  0.00  0.00    -0.386 OA
ATOM     19  H   UNL     1      10.501  -2.465  21.315  0.00  0.00    +0.210 HD
ENDBRANCH   2  18
BRANCH   3  20
ATOM     20  O   UNL     1       9.826  -3.006  24.558  0.00  0.00    -0.385 OA
ATOM     21  H   UNL     1      10.781  -2.803  24.500  0.00  0.00    +0.210 HD
ENDBRANCH   3  20
BRANCH   1  22
ATOM     22  C   UNL     1       8.692   0.596  24.051  0.00  0.00    +0.229 C 
BRANCH  22  23
ATOM     23  O   UNL     1       9.707   1.584  23.998  0.00  0.00    -0.220 OA
BRANCH  23  24
ATOM     24  S   UNL     1       9.225   3.127  23.827  0.00  0.00    +0.169 S 
ATOM     25  O   UNL     1       8.578   3.238  22.541  0.00  0.00    -0.126 OA
ATOM     26  O   UNL     1       8.538   3.534  25.030  0.00  0.00    -0.126 OA
BRANCH  24  28
ATOM     27  C   UNL     1      10.698   5.384  23.774  0.00  0.00    +0.250 C 
ATOM     28  N   UNL     1      10.622   3.992  23.700  0.00  0.00    -0.164 N 
ATOM     29  H   UNL     1      11.472   3.466  23.525  0.00  0.00    +0.179 HD
ATOM     30  O   UNL     1       9.722   6.098  23.978  0.00  0.00    -0.272 OA
BRANCH  27  32
ATOM     31  C   UNL     1      13.016   4.908  22.949  0.00  0.00    +0.033 C 
ATOM     32  C   UNL     1      12.105   5.967  23.553  0.00  0.00    +0.136 C 
BRANCH  32  33
ATOM     33  N   UNL     1      12.675   6.472  24.824  0.00  0.00    -0.320 NA
ATOM     34  H   UNL     1      12.278   7.396  25.004  0.00  0.00    +0.119 HD
ATOM     35  H   UNL     1      12.329   5.886  25.588  0.00  0.00    +0.119 HD
ENDBRANCH  32  33
ENDBRANCH  27  32
ENDBRANCH  24  28
ENDBRANCH  23  24
ENDBRANCH  22  23
ENDBRANCH   1  22
TORSDOF 9
ENDMDL
MODEL 8
REMARK VINA RESULT:      -7.2      2.038      2.744
REMARK  Name = 
REMARK  10 active torsions:
REMARK  status: ('A' for Active; 'I' for Inactive)
REMARK    1  A    between atoms: C_1  and  C_2
REMARK    2  A    between atoms: C_2  and  N_4
REMARK    3  A    between atoms: C_2  and  C_5
REMARK    4  A    between atoms: N_7  and  S_8
REMARK    5  A    between atoms: S_8  and  O_11
REMARK    6  A    between atoms: O_11  and  C_12
REMARK    7  A    between atoms: C_12  and  C_13
REMARK    8  A    between atoms: C_16  and  N_24
REMARK    9  A    between atoms: C_18  and  O_20
REMARK   10  A    between atoms: C_21  and  O_23
REMARK                            x       y       z     vdW  Elec       q    Type
REMARK                         _______ _______ _______ _____ _____    ______ ____
ROOT
ATOM      1  C   UNL     1       6.588  -3.333  25.616  0.00  0.00    +0.180 C 
ATOM      2  C   UNL     1       7.751  -4.323  25.559  0.00  0.00    +0.178 C 
ATOM      3  C   UNL     1       8.469  -4.026  24.240  0.00  0.00    +0.195 C 
ATOM      4  C   UNL     1       7.730  -2.809  23.666  0.00  0.00    +0.253 C 
ATOM      5  O   UNL     1       6.982  -2.239  24.764  0.00  0.00    -0.346 OA
ENDROOT
BRANCH   4   6
ATOM      6  N   UNL     1       8.541  -1.770  23.060  0.00  0.00    -0.286 N 
ATOM      7  C   UNL     1       8.154  -0.495  22.742  0.00  0.00    +0.167 A 
ATOM      8  N   UNL     1       6.914   0.029  22.762  0.00  0.00    -0.216 NA
ATOM      9  C   UNL     1       6.936   1.323  22.368  0.00  0.00    +0.225 A 
ATOM     10  N   UNL     1       8.000   2.084  22.031  0.00  0.00    -0.219 NA
ATOM     11  C   UNL     1       9.228   1.523  22.072  0.00  0.00    +0.147 A 
ATOM     12  N   UNL     1      10.328   2.318  21.781  0.00  0.00    -0.341 N 
ATOM     13  H   UNL     1      11.159   1.797  21.524  0.00  0.00    +0.144 HD
ATOM     14  H   UNL     1      10.094   3.142  21.247  0.00  0.00    +0.144 HD
ATOM     15  C   UNL     1       9.331   0.162  22.408  0.00  0.00    +0.147 A 
ATOM     16  N   UNL     1      10.410  -0.689  22.491  0.00  0.00    -0.231 NA
ATOM     17  C   UNL     1       9.903  -1.834  22.895  0.00  0.00    +0.203 A 
ENDBRANCH   4   6
BRANCH   2  18
ATOM     18  O   UNL     1       8.655  -4.056  26.649  0.00  0.00    -0.386 OA
ATOM     19  H   UNL     1       8.823  -3.097  26.685  0.00  0.00    +0.210 HD
ENDBRANCH   2  18
BRANCH   3  20
ATOM     20  O   UNL     1       8.375  -5.139  23.349  0.00  0.00    -0.385 OA
ATOM     21  H   UNL     1       7.421  -5.324  23.236  0.00  0.00    +0.210 HD
ENDBRANCH   3  20
BRANCH   1  22
ATOM     22  C   UNL     1       5.246  -3.906  25.141  0.00  0.00    +0.229 C 
BRANCH  22  23
ATOM     23  O   UNL     1       5.417  -5.206  24.604  0.00  0.00    -0.220 OA
BRANCH  23  24
ATOM     24  S   UNL     1       4.965  -5.431  23.059  0.00  0.00    +0.169 S 
ATOM     25  O   UNL     1       4.678  -4.130  22.499  0.00  0.00    -0.126 OA
ATOM     26  O   UNL     1       5.916  -6.310  22.420  0.00  0.00    -0.126 OA
BRANCH  24  28
ATOM     27  C   UNL     1       3.246  -7.278  24.008  0.00  0.00    +0.250 C 
ATOM     28  N   UNL     1       3.513  -6.205  23.155  0.00  0.00    -0.164 N 
ATOM     29  H   UNL     1       2.783  -5.891  22.524  0.00  0.00    +0.179 HD
ATOM     30  O   UNL     1       4.069  -7.725  24.800  0.00  0.00    -0.272 OA
BRANCH  27  32
ATOM     31  C   UNL     1       1.674  -9.045  24.833  0.00  0.00    +0.033 C 
ATOM     32  C   UNL     1       1.838  -7.882  23.866  0.00  0.00    +0.136 C 
BRANCH  32  33
ATOM     33  N   UNL     1       1.593  -8.333  22.475  0.00  0.00    -0.320 NA
ATOM     34  H   UNL     1       2.301  -7.905  21.875  0.00  0.00    +0.119 HD
ATOM     35  H   UNL     1       1.781  -9.337  22.424  0.00  0.00    +0.119 HD
ENDBRANCH  32  33
ENDBRANCH  27  32
ENDBRANCH  24  28
ENDBRANCH  23  24
ENDBRANCH  22  23
ENDBRANCH   1  22
TORSDOF 9
ENDMDL
MODEL 9
REMARK VINA RESULT:      -7.2      2.758      8.101
REMARK  Name = 
REMARK  10 active torsions:
REMARK  status: ('A' for Active; 'I' for Inactive)
REMARK    1  A    between atoms: C_1  and  C_2
REMARK    2  A    between atoms: C_2  and  N_4
REMARK    3  A    between atoms: C_2  and  C_5
REMARK    4  A    between atoms: N_7  and  S_8
REMARK    5  A    between atoms: S_8  and  O_11
REMARK    6  A    between atoms: O_11  and  C_12
REMARK    7  A    between atoms: C_12  and  C_13
REMARK    8  A    between atoms: C_16  and  N_24
REMARK    9  A    between atoms: C_18  and  O_20
REMARK   10  A    between atoms: C_21  and  O_23
REMARK                            x       y       z     vdW  Elec       q    Type
REMARK                         _______ _______ _______ _____ _____    ______ ____
ROOT
ATOM      1  C   UNL     1       8.344  -4.177  23.725  0.00  0.00    +0.180 C 
ATOM      2  C   UNL     1       9.275  -4.556  24.877  0.00  0.00    +0.178 C 
ATOM      3  C   UNL     1       8.367  -4.683  26.104  0.00  0.00    +0.195 C 
ATOM      4  C   UNL     1       6.949  -4.468  25.557  0.00  0.00    +0.253 C 
ATOM      5  O   UNL     1       7.040  -4.646  24.125  0.00  0.00    -0.346 OA
ENDROOT
BRANCH   4   6
ATOM      6  N   UNL     1       5.905  -5.333  26.073  0.00  0.00    -0.286 N 
ATOM      7  C   UNL     1       5.821  -5.873  27.330  0.00  0.00    +0.167 A 
ATOM      8  N   UNL     1       6.750  -5.863  28.304  0.00  0.00    -0.216 NA
ATOM      9  C   UNL     1       6.297  -6.513  29.401  0.00  0.00    +0.225 A 
ATOM     10  N   UNL     1       5.088  -7.078  29.608  0.00  0.00    -0.219 NA
ATOM     11  C   UNL     1       4.175  -7.019  28.614  0.00  0.00    +0.147 A 
ATOM     12  N   UNL     1       2.913  -7.549  28.843  0.00  0.00    -0.341 N 
ATOM     13  H   UNL     1       2.392  -7.759  27.999  0.00  0.00    +0.144 HD
ATOM     14  H   UNL     1       2.894  -8.221  29.597  0.00  0.00    +0.144 HD
ATOM     15  C   UNL     1       4.548  -6.423  27.397  0.00  0.00    +0.147 A 
ATOM     16  N   UNL     1       3.875  -6.252  26.208  0.00  0.00    -0.231 NA
ATOM     17  C   UNL     1       4.712  -5.587  25.442  0.00  0.00    +0.203 A 
ENDBRANCH   4   6
BRANCH   2  18
ATOM     18  O   UNL     1       9.868  -5.840  24.604  0.00  0.00    -0.386 OA
ATOM     19  H   UNL     1      10.751  -5.868  25.012  0.00  0.00    +0.210 HD
ENDBRANCH   2  18
BRANCH   3  20
ATOM     20  O   UNL     1       8.688  -3.689  27.077  0.00  0.00    -0.385 OA
ATOM     21  H   UNL     1       9.636  -3.804  27.291  0.00  0.00    +0.210 HD
ENDBRANCH   3  20
BRANCH   1  22
ATOM     22  C   UNL     1       8.286  -2.673  23.427  0.00  0.00    +0.229 C 
BRANCH  22  23
ATOM     23  O   UNL     1       9.154  -1.957  24.289  0.00  0.00    -0.220 OA
BRANCH  23  24
ATOM     24  S   UNL     1       8.502  -0.734  25.140  0.00  0.00    +0.169 S 
ATOM     25  O   UNL     1       7.066  -0.854  25.037  0.00  0.00    -0.126 OA
ATOM     26  O   UNL     1       9.142  -0.676  26.433  0.00  0.00    -0.126 OA
BRANCH  24  28
ATOM     27  C   UNL     1      10.201   1.097  24.127  0.00  0.00    +0.250 C 
ATOM     28  N   UNL     1       8.898   0.623  24.293  0.00  0.00    -0.164 N 
ATOM     29  H   UNL     1       8.131   1.158  23.899  0.00  0.00    +0.179 HD
ATOM     30  O   UNL     1      11.187   0.519  24.573  0.00  0.00    -0.272 OA
BRANCH  27  32
ATOM     31  C   UNL     1       9.272   3.410  23.872  0.00  0.00    +0.033 C 
ATOM     32  C   UNL     1      10.313   2.426  23.358  0.00  0.00    +0.136 C 
BRANCH  32  33
ATOM     33  N   UNL     1      10.142   2.211  21.902  0.00  0.00    -0.320 NA
ATOM     34  H   UNL     1      11.069   2.095  21.489  0.00  0.00    +0.119 HD
ATOM     35  H   UNL     1       9.679   1.310  21.761  0.00  0.00    +0.119 HD
ENDBRANCH  32  33
ENDBRANCH  27  32
ENDBRANCH  24  28
ENDBRANCH  23  24
ENDBRANCH  22  23
ENDBRANCH   1  22
TORSDOF 9
ENDMDL
