MODEL 1
REMARK VINA RESULT:      -6.1      0.000      0.000
REMARK  Name = 
REMARK  3 active torsions:
REMARK  status: ('A' for Active; 'I' for Inactive)
REMARK    1  A    between atoms: N_10  and  C_11
REMARK    2  A    between atoms: C_15  and  O_17
REMARK    3  A    between atoms: C_18  and  O_20
REMARK                            x       y       z     vdW  Elec       q    Type
REMARK                         _______ _______ _______ _____ _____    ______ ____
ROOT
ATOM      1  N   UNL     1       9.099  -5.654  25.765  0.00  0.00    -0.341 N 
ATOM      2  H   UNL     1      10.080  -5.644  25.511  0.00  0.00    +0.144 HD
ATOM      3  H   UNL     1       8.654  -6.546  25.927  0.00  0.00    +0.144 HD
ATOM      4  C   UNL     1       8.320  -4.787  25.011  0.00  0.00    +0.147 A 
ATOM      5  C   UNL     1       8.858  -3.705  24.295  0.00  0.00    +0.147 A 
ATOM      6  N   UNL     1      10.153  -3.265  24.127  0.00  0.00    -0.231 NA
ATOM      7  C   UNL     1      10.041  -2.184  23.386  0.00  0.00    +0.202 A 
ATOM      8  N   UNL     1       8.738  -1.920  23.040  0.00  0.00    -0.305 N 
ATOM      9  C   UNL     1       7.964  -2.895  23.614  0.00  0.00    +0.166 A 
ATOM     10  N   UNL     1       6.630  -3.038  23.552  0.00  0.00    -0.216 NA
ATOM     11  C   UNL     1       6.230  -4.119  24.255  0.00  0.00    +0.225 A 
ATOM     12  N   UNL     1       6.985  -4.991  24.962  0.00  0.00    -0.219 NA
ENDROOT
BRANCH   8  13
ATOM     13  C   UNL     1       8.245  -0.798  22.252  0.00  0.00    +0.144 C 
ATOM     14  C   UNL     1       7.680   0.349  23.126  0.00  0.00    +0.173 C 
ATOM     15  C   UNL     1       8.843   1.365  23.233  0.00  0.00    +0.168 C 
ATOM     16  C   UNL     1       9.671   1.071  22.023  0.00  0.00    +0.004 C 
ATOM     17  C   UNL     1       9.339  -0.107  21.473  0.00  0.00    -0.001 C 
BRANCH  14  18
ATOM     18  O   UNL     1       6.557   0.959  22.463  0.00  0.00    -0.387 OA
ATOM     19  H   UNL     1       6.632   0.749  21.516  0.00  0.00    +0.210 HD
ENDBRANCH  14  18
BRANCH  15  20
ATOM     20  O   UNL     1       9.619   1.118  24.392  0.00  0.00    -0.385 OA
ATOM     21  H   UNL     1       9.783   0.161  24.441  0.00  0.00    +0.210 HD
ENDBRANCH  15  20
ENDBRANCH   8  13
TORSDOF 3
ENDMDL
MODEL 2
REMARK VINA RESULT:      -6.0      1.999      2.769
REMARK  Name = 
REMARK  3 active torsions:
REMARK  status: ('A' for Active; 'I' for Inactive)
REMARK    1  A    between atoms: N_10  and  C_11
REMARK    2  A    between atoms: C_15  and  O_17
REMARK    3  A    between atoms: C_18  and  O_20
REMARK                            x       y       z     vdW  Elec       q    Type
REMARK                         _______ _______ _______ _____ _____    ______ ____
ROOT
ATOM      1  N   UNL     1       6.601  -4.772  27.645  0.00  0.00    -0.341 N 
ATOM      2  H   UNL     1       6.422  -3.952  28.214  0.00  0.00    +0.144 HD
ATOM      3  H   UNL     1       6.678  -5.668  28.105  0.00  0.00    +0.144 HD
ATOM      4  C   UNL     1       7.576  -4.574  26.676  0.00  0.00    +0.147 A 
ATOM      5  C   UNL     1       7.956  -3.299  26.226  0.00  0.00    +0.147 A 
ATOM      6  N   UNL     1       7.548  -2.035  26.591  0.00  0.00    -0.231 NA
ATOM      7  C   UNL     1       8.223  -1.230  25.800  0.00  0.00    +0.202 A 
ATOM      8  N   UNL     1       9.071  -1.910  24.960  0.00  0.00    -0.305 N 
ATOM      9  C   UNL     1       8.914  -3.246  25.227  0.00  0.00    +0.166 A 
ATOM     10  N   UNL     1       9.534  -4.286  24.645  0.00  0.00    -0.216 NA
ATOM     11  C   UNL     1       9.107  -5.454  25.171  0.00  0.00    +0.225 A 
ATOM     12  N   UNL     1       8.187  -5.655  26.141  0.00  0.00    -0.219 NA
ENDROOT
BRANCH   8  13
ATOM     13  C   UNL     1       9.945  -1.345  23.942  0.00  0.00    +0.144 C 
ATOM     14  C   UNL     1       9.311  -1.357  22.529  0.00  0.00    +0.173 C 
ATOM     15  C   UNL     1       8.732   0.067  22.350  0.00  0.00    +0.168 C 
ATOM     16  C   UNL     1       9.545   0.892  23.295  0.00  0.00    +0.004 C 
ATOM     17  C   UNL     1      10.223   0.124  24.162  0.00  0.00    -0.001 C 
BRANCH  14  18
ATOM     18  O   UNL     1      10.329  -1.600  21.540  0.00  0.00    -0.387 OA
ATOM     19  H   UNL     1       9.888  -1.971  20.757  0.00  0.00    +0.210 HD
ENDBRANCH  14  18
BRANCH  15  20
ATOM     20  O   UNL     1       7.375   0.110  22.753  0.00  0.00    -0.385 OA
ATOM     21  H   UNL     1       7.263   0.878  23.338  0.00  0.00    +0.210 HD
ENDBRANCH  15  20
ENDBRANCH   8  13
TORSDOF 3
ENDMDL
MODEL 3
REMARK VINA RESULT:      -5.9      2.559      5.345
REMARK  Name = 
REMARK  3 active torsions:
REMARK  status: ('A' for Active; 'I' for Inactive)
REMARK    1  A    between atoms: N_10  and  C_11
REMARK    2  A    between atoms: C_15  and  O_17
REMARK    3  A    between atoms: C_18  and  O_20
REMARK                            x       y       z     vdW  Elec       q    Type
REMARK                         _______ _______ _______ _____ _____    ______ ____
ROOT
ATOM      1  N   UNL     1       9.784   1.929  21.504  0.00  0.00    -0.341 N 
ATOM      2  H   UNL     1       9.609   1.437  20.636  0.00  0.00    +0.144 HD
ATOM      3  H   UNL     1      10.442   2.695  21.498  0.00  0.00    +0.144 HD
ATOM      4  C   UNL     1       9.940   1.088  22.598  0.00  0.00    +0.147 A 
ATOM      5  C   UNL     1       9.477  -0.238  22.612  0.00  0.00    +0.147 A 
ATOM      6  N   UNL     1       8.845  -1.003  21.657  0.00  0.00    -0.231 NA
ATOM      7  C   UNL     1       8.620  -2.154  22.252  0.00  0.00    +0.202 A 
ATOM      8  N   UNL     1       9.103  -2.183  23.537  0.00  0.00    -0.305 N 
ATOM      9  C   UNL     1       9.664  -0.956  23.783  0.00  0.00    +0.166 A 
ATOM     10  N   UNL     1      10.254  -0.525  24.910  0.00  0.00    -0.216 NA
ATOM     11  C   UNL     1      10.677   0.750  24.772  0.00  0.00    +0.225 A 
ATOM     12  N   UNL     1      10.563   1.564  23.699  0.00  0.00    -0.219 NA
ENDROOT
BRANCH   8  13
ATOM     13  C   UNL     1       9.009  -3.279  24.491  0.00  0.00    +0.144 C 
ATOM     14  C   UNL     1       8.142  -2.930  25.726  0.00  0.00    +0.173 C 
ATOM     15  C   UNL     1       6.750  -3.528  25.406  0.00  0.00    +0.168 C 
ATOM     16  C   UNL     1       7.057  -4.608  24.419  0.00  0.00    +0.004 C 
ATOM     17  C   UNL     1       8.298  -4.486  23.924  0.00  0.00    -0.001 C 
BRANCH  14  18
ATOM     18  O   UNL     1       8.688  -3.562  26.899  0.00  0.00    -0.387 OA
ATOM     19  H   UNL     1       8.473  -4.509  26.843  0.00  0.00    +0.210 HD
ENDBRANCH  14  18
BRANCH  15  20
ATOM     20  O   UNL     1       5.921  -2.562  24.786  0.00  0.00    -0.385 OA
ATOM     21  H   UNL     1       5.079  -2.538  25.272  0.00  0.00    +0.210 HD
ENDBRANCH  15  20
ENDBRANCH   8  13
TORSDOF 3
ENDMDL
MODEL 4
REMARK VINA RESULT:      -5.9      3.093      5.606
REMARK  Name = 
REMARK  3 active torsions:
REMARK  status: ('A' for Active; 'I' for Inactive)
REMARK    1  A    between atoms: N_10  and  C_11
REMARK    2  A    between atoms: C_15  and  O_17
REMARK    3  A    between atoms: C_18  and  O_20
REMARK                            x       y       z     vdW  Elec       q    Type
REMARK                         _______ _______ _______ _____ _____    ______ ____
ROOT
ATOM      1  N   UNL     1       9.396   2.122  24.755  0.00  0.00    -0.341 N 
ATOM      2  H   UNL     1       8.798   2.138  25.573  0.00  0.00    +0.144 HD
ATOM      3  H   UNL     1       9.323   2.880  24.092  0.00  0.00    +0.144 HD
ATOM      4  C   UNL     1       9.474   0.875  24.149  0.00  0.00    +0.147 A 
ATOM      5  C   UNL     1       9.144  -0.318  24.812  0.00  0.00    +0.147 A 
ATOM      6  N   UNL     1       8.673  -0.564  26.084  0.00  0.00    -0.231 NA
ATOM      7  C   UNL     1       8.585  -1.875  26.154  0.00  0.00    +0.202 A 
ATOM      8  N   UNL     1       8.946  -2.488  24.980  0.00  0.00    -0.305 N 
ATOM      9  C   UNL     1       9.304  -1.497  24.103  0.00  0.00    +0.166 A 
ATOM     10  N   UNL     1       9.732  -1.625  22.836  0.00  0.00    -0.216 NA
ATOM     11  C   UNL     1       9.998  -0.417  22.294  0.00  0.00    +0.225 A 
ATOM     12  N   UNL     1       9.888   0.804  22.864  0.00  0.00    -0.219 NA
ENDROOT
BRANCH   8  13
ATOM     13  C   UNL     1       8.992  -3.918  24.709  0.00  0.00    +0.144 C 
ATOM     14  C   UNL     1       9.197  -4.767  25.988  0.00  0.00    +0.173 C 
ATOM     15  C   UNL     1       7.772  -5.225  26.383  0.00  0.00    +0.168 C 
ATOM     16  C   UNL     1       7.016  -5.155  25.095  0.00  0.00    +0.004 C 
ATOM     17  C   UNL     1       7.687  -4.452  24.168  0.00  0.00    -0.001 C 
BRANCH  14  18
ATOM     18  O   UNL     1      10.013  -5.915  25.686  0.00  0.00    -0.387 OA
ATOM     19  H   UNL     1       9.900  -6.108  24.739  0.00  0.00    +0.210 HD
ENDBRANCH  14  18
BRANCH  15  20
ATOM     20  O   UNL     1       7.192  -4.319  27.305  0.00  0.00    -0.385 OA
ATOM     21  H   UNL     1       7.544  -4.527  28.187  0.00  0.00    +0.210 HD
ENDBRANCH  15  20
ENDBRANCH   8  13
TORSDOF 3
ENDMDL
MODEL 5
REMARK VINA RESULT:      -5.8      1.861      2.328
REMARK  Name = 
REMARK  3 active torsions:
REMARK  status: ('A' for Active; 'I' for Inactive)
REMARK    1  A    between atoms: N_10  and  C_11
REMARK    2  A    between atoms: C_15  and  O_17
REMARK    3  A    between atoms: C_18  and  O_20
REMARK                            x       y       z     vdW  Elec       q    Type
REMARK                         _______ _______ _______ _____ _____    ______ ____
ROOT
ATOM      1  N   UNL     1       8.328  -5.861  26.314  0.00  0.00    -0.341 N 
ATOM      2  H   UNL     1       8.847  -6.213  25.518  0.00  0.00    +0.144 HD
ATOM      3  H   UNL     1       7.571  -6.421  26.679  0.00  0.00    +0.144 HD
ATOM      4  C   UNL     1       8.010  -4.513  26.219  0.00  0.00    +0.147 A 
ATOM      5  C   UNL     1       8.687  -3.628  25.364  0.00  0.00    +0.147 A 
ATOM      6  N   UNL     1       9.710  -3.821  24.463  0.00  0.00    -0.231 NA
ATOM      7  C   UNL     1       9.957  -2.622  23.982  0.00  0.00    +0.202 A 
ATOM      8  N   UNL     1       9.122  -1.666  24.506  0.00  0.00    -0.305 N 
ATOM      9  C   UNL     1       8.293  -2.300  25.395  0.00  0.00    +0.166 A 
ATOM     10  N   UNL     1       7.319  -1.763  26.148  0.00  0.00    -0.216 NA
ATOM     11  C   UNL     1       6.726  -2.708  26.910  0.00  0.00    +0.225 A 
ATOM     12  N   UNL     1       7.004  -4.029  26.982  0.00  0.00    -0.219 NA
ENDROOT
BRANCH   8  13
ATOM     13  C   UNL     1       9.128  -0.238  24.221  0.00  0.00    +0.144 C 
ATOM     14  C   UNL     1      10.327   0.197  23.343  0.00  0.00    +0.173 C 
ATOM     15  C   UNL     1       9.757   0.249  21.905  0.00  0.00    +0.168 C 
ATOM     16  C   UNL     1       8.291   0.448  22.120  0.00  0.00    +0.004 C 
ATOM     17  C   UNL     1       7.942   0.196  23.391  0.00  0.00    -0.001 C 
BRANCH  14  18
ATOM     18  O   UNL     1      10.773   1.507  23.741  0.00  0.00    -0.387 OA
ATOM     19  H   UNL     1      11.298   1.399  24.552  0.00  0.00    +0.210 HD
ENDBRANCH  14  18
BRANCH  15  20
ATOM     20  O   UNL     1       9.961  -0.985  21.240  0.00  0.00    -0.385 OA
ATOM     21  H   UNL     1      10.910  -1.065  21.046  0.00  0.00    +0.210 HD
ENDBRANCH  15  20
ENDBRANCH   8  13
TORSDOF 3
ENDMDL
MODEL 6
REMARK VINA RESULT:      -5.8      2.636      5.501
REMARK  Name = 
REMARK  3 active torsions:
REMARK  status: ('A' for Active; 'I' for Inactive)
REMARK    1  A    between atoms: N_10  and  C_11
REMARK    2  A    between atoms: C_15  and  O_17
REMARK    3  A    between atoms: C_18  and  O_20
REMARK                            x       y       z     vdW  Elec       q    Type
REMARK                         _______ _______ _______ _____ _____    ______ ____
ROOT
ATOM      1  N   UNL     1       7.861   1.315  22.333  0.00  0.00    -0.341 N 
ATOM      2  H   UNL     1       6.849   1.261  22.345  0.00  0.00    +0.144 HD
ATOM      3  H   UNL     1       8.301   1.912  21.647  0.00  0.00    +0.144 HD
ATOM      4  C   UNL     1       8.485   0.082  22.460  0.00  0.00    +0.147 A 
ATOM      5  C   UNL     1       7.840  -1.049  22.986  0.00  0.00    +0.147 A 
ATOM      6  N   UNL     1       6.556  -1.247  23.442  0.00  0.00    -0.231 NA
ATOM      7  C   UNL     1       6.540  -2.497  23.851  0.00  0.00    +0.202 A 
ATOM      8  N   UNL     1       7.744  -3.128  23.655  0.00  0.00    -0.305 N 
ATOM      9  C   UNL     1       8.592  -2.208  23.093  0.00  0.00    +0.166 A 
ATOM     10  N   UNL     1       9.875  -2.375  22.734  0.00  0.00    -0.216 NA
ATOM     11  C   UNL     1      10.383  -1.233  22.222  0.00  0.00    +0.225 A 
ATOM     12  N   UNL     1       9.771  -0.038  22.060  0.00  0.00    -0.219 NA
ENDROOT
BRANCH   8  13
ATOM     13  C   UNL     1       8.091  -4.496  24.010  0.00  0.00    +0.144 C 
ATOM     14  C   UNL     1       9.136  -4.577  25.151  0.00  0.00    +0.173 C 
ATOM     15  C   UNL     1       8.297  -4.809  26.431  0.00  0.00    +0.168 C 
ATOM     16  C   UNL     1       7.035  -5.420  25.912  0.00  0.00    +0.004 C 
ATOM     17  C   UNL     1       6.923  -5.265  24.583  0.00  0.00    -0.001 C 
BRANCH  14  18
ATOM     18  O   UNL     1      10.013  -5.697  24.930  0.00  0.00    -0.387 OA
ATOM     19  H   UNL     1      10.229  -6.070  25.802  0.00  0.00    +0.210 HD
ENDBRANCH  14  18
BRANCH  15  20
ATOM     20  O   UNL     1       7.987  -3.576  27.057  0.00  0.00    -0.385 OA
ATOM     21  H   UNL     1       7.387  -3.087  26.468  0.00  0.00    +0.210 HD
ENDBRANCH  15  20
ENDBRANCH   8  13
TORSDOF 3
ENDMDL
MODEL 7
REMARK VINA RESULT:      -5.8      1.787      3.066
REMARK  Name = 
REMARK  3 active torsions:
REMARK  status: ('A' for Active; 'I' for Inactive)
REMARK    1  A    between atoms: N_10  and  C_11
REMARK    2  A    between atoms: C_15  and  O_17
REMARK    3  A    between atoms: C_18  and  O_20
REMARK                            x       y       z     vdW  Elec       q    Type
REMARK                         _______ _______ _______ _____ _____    ______ ____
ROOT
ATOM      1  N   UNL     1       4.952  -6.452  25.456  0.00  0.00    -0.341 N 
ATOM      2  H   UNL     1       4.302  -6.057  24.786  0.00  0.00    +0.144 HD
ATOM      3  H   UNL     1       4.591  -6.773  26.343  0.00  0.00    +0.144 HD
ATOM      4  C   UNL     1       6.132  -5.730  25.579  0.00  0.00    +0.147 A 
ATOM      5  C   UNL     1       6.580  -4.829  24.600  0.00  0.00    +0.147 A 
ATOM      6  N   UNL     1       6.035  -4.426  23.401  0.00  0.00    -0.231 NA
ATOM      7  C   UNL     1       6.922  -3.596  22.897  0.00  0.00    +0.202 A 
ATOM      8  N   UNL     1       8.002  -3.418  23.726  0.00  0.00    -0.305 N 
ATOM      9  C   UNL     1       7.794  -4.203  24.831  0.00  0.00    +0.166 A 
ATOM     10  N   UNL     1       8.590  -4.353  25.903  0.00  0.00    -0.216 NA
ATOM     11  C   UNL     1       8.049  -5.222  26.783  0.00  0.00    +0.225 A 
ATOM     12  N   UNL     1       6.883  -5.901  26.689  0.00  0.00    -0.219 NA
ENDROOT
BRANCH   8  13
ATOM     13  C   UNL     1       9.178  -2.594  23.479  0.00  0.00    +0.144 C 
ATOM     14  C   UNL     1       9.039  -1.709  22.216  0.00  0.00    +0.173 C 
ATOM     15  C   UNL     1       8.594  -0.328  22.756  0.00  0.00    +0.168 C 
ATOM     16  C   UNL     1       9.079  -0.337  24.170  0.00  0.00    +0.004 C 
ATOM     17  C   UNL     1       9.414  -1.574  24.568  0.00  0.00    -0.001 C 
BRANCH  14  18
ATOM     18  O   UNL     1      10.315  -1.590  21.561  0.00  0.00    -0.387 OA
ATOM     19  H   UNL     1      10.153  -1.211  20.680  0.00  0.00    +0.210 HD
ENDBRANCH  14  18
BRANCH  15  20
ATOM     20  O   UNL     1       7.181  -0.222  22.756  0.00  0.00    -0.385 OA
ATOM     21  H   UNL     1       6.848  -0.693  21.974  0.00  0.00    +0.210 HD
ENDBRANCH  15  20
ENDBRANCH   8  13
TORSDOF 3
ENDMDL
MODEL 8
REMARK VINA RESULT:      -5.7      2.764      5.231
REMARK  Name = 
REMARK  3 active torsions:
REMARK  status: ('A' for Active; 'I' for Inactive)
REMARK    1  A    between atoms: N_10  and  C_11
REMARK    2  A    between atoms: C_15  and  O_17
REMARK    3  A    between atoms: C_18  and  O_20
REMARK                            x       y       z     vdW  Elec       q    Type
REMARK                         _______ _______ _______ _____ _____    ______ ____
ROOT
ATOM      1  N   UNL     1      10.154   2.190  21.567  0.00  0.00    -0.341 N 
ATOM      2  H   UNL     1      11.048   1.756  21.766  0.00  0.00    +0.144 HD
ATOM      3  H   UNL     1      10.066   3.188  21.695  0.00  0.00    +0.144 HD
ATOM      4  C   UNL     1       9.069   1.481  22.065  0.00  0.00    +0.147 A 
ATOM      5  C   UNL     1       9.139   0.121  22.407  0.00  0.00    +0.147 A 
ATOM      6  N   UNL     1      10.178  -0.782  22.383  0.00  0.00    -0.231 NA
ATOM      7  C   UNL     1       9.640  -1.916  22.777  0.00  0.00    +0.202 A 
ATOM      8  N   UNL     1       8.308  -1.784  23.085  0.00  0.00    -0.305 N 
ATOM      9  C   UNL     1       7.971  -0.474  22.856  0.00  0.00    +0.166 A 
ATOM     10  N   UNL     1       6.773   0.113  23.014  0.00  0.00    -0.216 NA
ATOM     11  C   UNL     1       6.832   1.419  22.677  0.00  0.00    +0.225 A 
ATOM     12  N   UNL     1       7.893   2.127  22.228  0.00  0.00    -0.219 NA
ENDROOT
BRANCH   8  13
ATOM     13  C   UNL     1       7.397  -2.830  23.527  0.00  0.00    +0.144 C 
ATOM     14  C   UNL     1       7.948  -4.255  23.276  0.00  0.00    +0.173 C 
ATOM     15  C   UNL     1       8.563  -4.678  24.633  0.00  0.00    +0.168 C 
ATOM     16  C   UNL     1       7.833  -3.828  25.623  0.00  0.00    +0.004 C 
ATOM     17  C   UNL     1       7.180  -2.822  25.022  0.00  0.00    -0.001 C 
BRANCH  14  18
ATOM     18  O   UNL     1       6.868  -5.143  22.931  0.00  0.00    -0.387 OA
ATOM     19  H   UNL     1       6.132  -4.591  22.615  0.00  0.00    +0.210 HD
ENDBRANCH  14  18
BRANCH  15  20
ATOM     20  O   UNL     1       9.942  -4.356  24.680  0.00  0.00    -0.385 OA
ATOM     21  H   UNL     1      10.019  -3.392  24.777  0.00  0.00    +0.210 HD
ENDBRANCH  15  20
ENDBRANCH   8  13
TORSDOF 3
ENDMDL
MODEL 9
REMARK VINA RESULT:      -5.7      2.974      5.379
REMARK  Name = 
REMARK  3 active torsions:
REMARK  status: ('A' for Active; 'I' for Inactive)
REMARK    1  A    between atoms: N_10  and  C_11
REMARK    2  A    between atoms: C_15  and  O_17
REMARK    3  A    between atoms: C_18  and  O_20
REMARK                            x       y       z     vdW  Elec       q    Type
REMARK                         _______ _______ _______ _____ _____    ______ ____
ROOT
ATOM      1  N   UNL     1      10.674   1.596  24.228  0.00  0.00    -0.341 N 
ATOM      2  H   UNL     1      10.348   1.809  25.164  0.00  0.00    +0.144 HD
ATOM      3  H   UNL     1      10.798   2.359  23.578  0.00  0.00    +0.144 HD
ATOM      4  C   UNL     1      10.052   0.494  23.659  0.00  0.00    +0.147 A 
ATOM      5  C   UNL     1       9.385  -0.482  24.418  0.00  0.00    +0.147 A 
ATOM      6  N   UNL     1       9.155  -0.596  25.771  0.00  0.00    -0.231 NA
ATOM      7  C   UNL     1       8.512  -1.737  25.901  0.00  0.00    +0.202 A 
ATOM      8  N   UNL     1       8.287  -2.352  24.694  0.00  0.00    -0.305 N 
ATOM      9  C   UNL     1       8.840  -1.551  23.727  0.00  0.00    +0.166 A 
ATOM     10  N   UNL     1       8.868  -1.754  22.399  0.00  0.00    -0.216 NA
ATOM     11  C   UNL     1       9.512  -0.746  21.773  0.00  0.00    +0.225 A 
ATOM     12  N   UNL     1      10.089   0.350  22.315  0.00  0.00    -0.219 NA
ENDROOT
BRANCH   8  13
ATOM     13  C   UNL     1       7.631  -3.631  24.463  0.00  0.00    +0.144 C 
ATOM     14  C   UNL     1       8.632  -4.797  24.278  0.00  0.00    +0.173 C 
ATOM     15  C   UNL     1       8.713  -5.466  25.671  0.00  0.00    +0.168 C 
ATOM     16  C   UNL     1       7.418  -5.084  26.314  0.00  0.00    +0.004 C 
ATOM     17  C   UNL     1       6.813  -4.088  25.649  0.00  0.00    -0.001 C 
BRANCH  14  18
ATOM     18  O   UNL     1       8.116  -5.735  23.315  0.00  0.00    -0.387 OA
ATOM     19  H   UNL     1       8.868  -6.043  22.780  0.00  0.00    +0.210 HD
ENDBRANCH  14  18
BRANCH  15  20
ATOM     20  O   UNL     1       9.780  -4.920  26.428  0.00  0.00    -0.385 OA
ATOM     21  H   UNL     1      10.477  -4.651  25.806  0.00  0.00    +0.210 HD
ENDBRANCH  15  20
ENDBRANCH   8  13
TORSDOF 3
ENDMDL
