MODEL 1
REMARK VINA RESULT:      -7.3      0.000      0.000
REMARK  Name = 
REMARK  6 active torsions:
REMARK  status: ('A' for Active; 'I' for Inactive)
REMARK    1  A    between atoms: N_1  and  C_2
REMARK    2  A    between atoms: C_2  and  C_3
REMARK    3  A    between atoms: C_3  and  N_4
REMARK    4  A    between atoms: C_8  and  C_10
REMARK    5  A    between atoms: C_11  and  N_12
REMARK    6  A    between atoms: N_12  and  C_13
REMARK                            x       y       z     vdW  Elec       q    Type
REMARK                         _______ _______ _______ _____ _____    ______ ____
ROOT
ATOM      1  C   UNL     1       9.039  -2.074  24.758  0.00  0.00    +0.063 A 
ATOM      2  C   UNL     1       9.680  -0.921  25.265  0.00  0.00    +0.018 A 
ATOM      3  C   UNL     1      10.084   0.121  24.428  0.00  0.00    +0.042 A 
ATOM      4  C   UNL     1       9.829   0.034  23.067  0.00  0.00    +0.160 A 
ATOM      5  F   UNL     1      10.161   1.055  22.266  0.00  0.00    -0.202 F 
ATOM      6  C   UNL     1       9.244  -1.111  22.538  0.00  0.00    +0.180 A 
ATOM      7  F   UNL     1       9.026  -1.183  21.213  0.00  0.00    -0.201 F 
ATOM      8  C   UNL     1       8.878  -2.203  23.351  0.00  0.00    +0.082 A 
ENDROOT
BRANCH   1  13
ATOM      9  N   UNL     1       5.673  -4.047  27.346  0.00  0.00    -0.296 N 
ATOM     10  H   UNL     1       5.119  -3.194  27.387  0.00  0.00    +0.150 HD
ATOM     11  C   UNL     1       6.932  -3.919  26.889  0.00  0.00    +0.308 A 
ATOM     12  O   UNL     1       7.163  -2.846  26.078  0.00  0.00    -0.405 OA
ATOM     13  C   UNL     1       8.477  -3.028  25.720  0.00  0.00    +0.252 A 
ATOM     14  N   UNL     1       8.995  -4.107  26.276  0.00  0.00    -0.106 NA
ATOM     15  N   UNL     1       7.996  -4.674  27.045  0.00  0.00    -0.092 NA
BRANCH   9  16
ATOM     16  C   UNL     1       5.401  -4.954  28.448  0.00  0.00    +0.121 C 
BRANCH  16  17
ATOM     17  C   UNL     1       4.807  -6.278  27.928  0.00  0.00    +0.096 C 
BRANCH  17  18
ATOM     18  N   UNL     1       5.472  -7.452  28.515  0.00  0.00    -0.329 NA
ATOM     19  H   UNL     1       5.972  -7.956  27.781  0.00  0.00    +0.118 HD
ATOM     20  H   UNL     1       6.191  -7.130  29.165  0.00  0.00    +0.118 HD
ENDBRANCH  17  18
ENDBRANCH  16  17
ENDBRANCH   9  16
ENDBRANCH   1  13
BRANCH   8  21
ATOM     21  N   UNL     1       8.471  -3.388  22.685  0.00  0.00    -0.309 N 
ATOM     22  H   UNL     1       9.242  -3.985  22.395  0.00  0.00    +0.152 HD
BRANCH  21  23
ATOM     23  C   UNL     1       7.202  -3.998  22.613  0.00  0.00    +0.067 A 
ATOM     24  C   UNL     1       7.010  -5.390  22.579  0.00  0.00    +0.145 A 
ATOM     25  F   UNL     1       8.047  -6.215  22.358  0.00  0.00    -0.204 F 
ATOM     26  C   UNL     1       5.763  -5.968  22.798  0.00  0.00    +0.054 A 
ATOM     27  C   UNL     1       4.668  -5.143  23.021  0.00  0.00    +0.016 A 
ATOM     28  I   UNL     1       2.836  -5.984  23.519  0.00  0.00    -0.044 I 
ATOM     29  C   UNL     1       4.805  -3.756  22.954  0.00  0.00    +0.016 A 
ATOM     30  C   UNL     1       6.067  -3.188  22.746  0.00  0.00    +0.027 A 
ENDBRANCH  21  23
ENDBRANCH   8  21
TORSDOF 6
ENDMDL
MODEL 2
REMARK VINA RESULT:      -6.9      5.389      8.214
REMARK  Name = 
REMARK  6 active torsions:
REMARK  status: ('A' for Active; 'I' for Inactive)
REMARK    1  A    between atoms: N_1  and  C_2
REMARK    2  A    between atoms: C_2  and  C_3
REMARK    3  A    between atoms: C_3  and  N_4
REMARK    4  A    between atoms: C_8  and  C_10
REMARK    5  A    between atoms: C_11  and  N_12
REMARK    6  A    between atoms: N_12  and  C_13
REMARK                            x       y       z     vdW  Elec       q    Type
REMARK                         _______ _______ _______ _____ _____    ______ ____
ROOT
ATOM      1  C   UNL     1       8.796  -0.190  23.919  0.00  0.00    +0.063 A 
ATOM      2  C   UNL     1       9.745  -1.224  24.094  0.00  0.00    +0.018 A 
ATOM      3  C   UNL     1       9.458  -2.547  23.756  0.00  0.00    +0.042 A 
ATOM      4  C   UNL     1       8.219  -2.854  23.211  0.00  0.00    +0.160 A 
ATOM      5  F   UNL     1       7.958  -4.111  22.829  0.00  0.00    -0.202 F 
ATOM      6  C   UNL     1       7.252  -1.864  23.074  0.00  0.00    +0.180 A 
ATOM      7  F   UNL     1       6.051  -2.188  22.564  0.00  0.00    -0.201 F 
ATOM      8  C   UNL     1       7.494  -0.530  23.462  0.00  0.00    +0.082 A 
ENDROOT
BRANCH   1  13
ATOM      9  N   UNL     1      11.159   3.721  22.905  0.00  0.00    -0.296 N 
ATOM     10  H   UNL     1      11.892   3.223  22.404  0.00  0.00    +0.150 HD
ATOM     11  C   UNL     1      10.321   2.969  23.639  0.00  0.00    +0.308 A 
ATOM     12  O   UNL     1      10.198   1.666  23.252  0.00  0.00    -0.405 OA
ATOM     13  C   UNL     1       9.241   1.193  24.118  0.00  0.00    +0.252 A 
ATOM     14  N   UNL     1       8.833   2.124  24.959  0.00  0.00    -0.106 NA
ATOM     15  N   UNL     1       9.545   3.269  24.656  0.00  0.00    -0.092 NA
BRANCH   9  16
ATOM     16  C   UNL     1      11.596   5.010  23.413  0.00  0.00    +0.121 C 
BRANCH  16  17
ATOM     17  C   UNL     1      12.806   5.530  22.611  0.00  0.00    +0.096 C 
BRANCH  17  18
ATOM     18  N   UNL     1      14.084   5.056  23.165  0.00  0.00    -0.329 NA
ATOM     19  H   UNL     1      14.784   5.034  22.423  0.00  0.00    +0.118 HD
ATOM     20  H   UNL     1      14.423   5.743  23.841  0.00  0.00    +0.118 HD
ENDBRANCH  17  18
ENDBRANCH  16  17
ENDBRANCH   9  16
ENDBRANCH   1  13
BRANCH   8  21
ATOM     21  N   UNL     1       6.379   0.348  23.458  0.00  0.00    -0.309 N 
ATOM     22  H   UNL     1       5.577   0.001  23.980  0.00  0.00    +0.152 HD
BRANCH  21  23
ATOM     23  C   UNL     1       6.297   1.710  23.102  0.00  0.00    +0.067 A 
ATOM     24  C   UNL     1       5.698   2.690  23.912  0.00  0.00    +0.145 A 
ATOM     25  F   UNL     1       4.943   2.335  24.964  0.00  0.00    -0.204 F 
ATOM     26  C   UNL     1       5.883   4.050  23.682  0.00  0.00    +0.054 A 
ATOM     27  C   UNL     1       6.651   4.452  22.597  0.00  0.00    +0.016 A 
ATOM     28  I   UNL     1       7.080   6.467  22.335  0.00  0.00    -0.044 I 
ATOM     29  C   UNL     1       7.170   3.506  21.712  0.00  0.00    +0.016 A 
ATOM     30  C   UNL     1       6.989   2.142  21.963  0.00  0.00    +0.027 A 
ENDBRANCH  21  23
ENDBRANCH   8  21
TORSDOF 6
ENDMDL
MODEL 3
REMARK VINA RESULT:      -6.8      3.081      4.659
REMARK  Name = 
REMARK  6 active torsions:
REMARK  status: ('A' for Active; 'I' for Inactive)
REMARK    1  A    between atoms: N_1  and  C_2
REMARK    2  A    between atoms: C_2  and  C_3
REMARK    3  A    between atoms: C_3  and  N_4
REMARK    4  A    between atoms: C_8  and  C_10
REMARK    5  A    between atoms: C_11  and  N_12
REMARK    6  A    between atoms: N_12  and  C_13
REMARK                            x       y       z     vdW  Elec       q    Type
REMARK                         _______ _______ _______ _____ _____    ______ ____
ROOT
ATOM      1  C   UNL     1       9.004  -1.234  23.468  0.00  0.00    +0.063 A 
ATOM      2  C   UNL     1       9.095  -1.119  22.061  0.00  0.00    +0.018 A 
ATOM      3  C   UNL     1       9.595   0.033  21.451  0.00  0.00    +0.042 A 
ATOM      4  C   UNL     1      10.038   1.082  22.244  0.00  0.00    +0.160 A 
ATOM      5  F   UNL     1      10.574   2.166  21.668  0.00  0.00    -0.202 F 
ATOM      6  C   UNL     1       9.913   1.012  23.628  0.00  0.00    +0.180 A 
ATOM      7  F   UNL     1      10.327   2.050  24.376  0.00  0.00    -0.201 F 
ATOM      8  C   UNL     1       9.358  -0.114  24.269  0.00  0.00    +0.082 A 
ENDROOT
BRANCH   1  13
ATOM      9  N   UNL     1       6.109  -4.579  24.999  0.00  0.00    -0.296 N 
ATOM     10  H   UNL     1       5.380  -3.917  25.256  0.00  0.00    +0.150 HD
ATOM     11  C   UNL     1       7.316  -4.058  24.718  0.00  0.00    +0.308 A 
ATOM     12  O   UNL     1       7.320  -2.756  24.309  0.00  0.00    -0.405 OA
ATOM     13  C   UNL     1       8.649  -2.542  24.029  0.00  0.00    +0.252 A 
ATOM     14  N   UNL     1       9.381  -3.614  24.261  0.00  0.00    -0.106 NA
ATOM     15  N   UNL     1       8.518  -4.590  24.722  0.00  0.00    -0.092 NA
BRANCH   9  16
ATOM     16  C   UNL     1       6.023  -5.831  25.733  0.00  0.00    +0.121 C 
BRANCH  16  17
ATOM     17  C   UNL     1       6.262  -5.597  27.238  0.00  0.00    +0.096 C 
BRANCH  17  18
ATOM     18  N   UNL     1       7.637  -5.931  27.639  0.00  0.00    -0.329 NA
ATOM     19  H   UNL     1       7.661  -6.098  28.646  0.00  0.00    +0.118 HD
ATOM     20  H   UNL     1       7.898  -6.819  27.208  0.00  0.00    +0.118 HD
ENDBRANCH  17  18
ENDBRANCH  16  17
ENDBRANCH   9  16
ENDBRANCH   1  13
BRANCH   8  21
ATOM     21  N   UNL     1       9.103   0.004  25.660  0.00  0.00    -0.309 N 
ATOM     22  H   UNL     1       9.943   0.077  26.229  0.00  0.00    +0.152 HD
BRANCH  21  23
ATOM     23  C   UNL     1       7.908   0.317  26.340  0.00  0.00    +0.067 A 
ATOM     24  C   UNL     1       7.308   1.588  26.311  0.00  0.00    +0.145 A 
ATOM     25  F   UNL     1       7.981   2.647  25.834  0.00  0.00    -0.204 F 
ATOM     26  C   UNL     1       6.001   1.795  26.742  0.00  0.00    +0.054 A 
ATOM     27  C   UNL     1       5.280   0.722  27.249  0.00  0.00    +0.016 A 
ATOM     28  I   UNL     1       3.276   0.971  27.736  0.00  0.00    -0.044 I 
ATOM     29  C   UNL     1       5.883  -0.529  27.391  0.00  0.00    +0.016 A 
ATOM     30  C   UNL     1       7.193  -0.727  26.942  0.00  0.00    +0.027 A 
ENDBRANCH  21  23
ENDBRANCH   8  21
TORSDOF 6
ENDMDL
MODEL 4
REMARK VINA RESULT:      -6.8      4.137      5.863
REMARK  Name = 
REMARK  6 active torsions:
REMARK  status: ('A' for Active; 'I' for Inactive)
REMARK    1  A    between atoms: N_1  and  C_2
REMARK    2  A    between atoms: C_2  and  C_3
REMARK    3  A    between atoms: C_3  and  N_4
REMARK    4  A    between atoms: C_8  and  C_10
REMARK    5  A    between atoms: C_11  and  N_12
REMARK    6  A    between atoms: N_12  and  C_13
REMARK                            x       y       z     vdW  Elec       q    Type
REMARK                         _______ _______ _______ _____ _____    ______ ____
ROOT
ATOM      1  C   UNL     1       6.381  -5.033  24.681  0.00  0.00    +0.063 A 
ATOM      2  C   UNL     1       6.566  -5.776  25.870  0.00  0.00    +0.018 A 
ATOM      3  C   UNL     1       7.694  -5.604  26.674  0.00  0.00    +0.042 A 
ATOM      4  C   UNL     1       8.647  -4.662  26.312  0.00  0.00    +0.160 A 
ATOM      5  F   UNL     1       9.702  -4.450  27.110  0.00  0.00    -0.202 F 
ATOM      6  C   UNL     1       8.512  -3.954  25.123  0.00  0.00    +0.180 A 
ATOM      7  F   UNL     1       9.459  -3.063  24.781  0.00  0.00    -0.201 F 
ATOM      8  C   UNL     1       7.413  -4.149  24.262  0.00  0.00    +0.082 A 
ENDROOT
BRANCH   1  13
ATOM      9  N   UNL     1       2.488  -7.177  23.214  0.00  0.00    -0.296 N 
ATOM     10  H   UNL     1       2.924  -8.097  23.201  0.00  0.00    +0.150 HD
ATOM     11  C   UNL     1       3.315  -6.126  23.344  0.00  0.00    +0.308 A 
ATOM     12  O   UNL     1       4.515  -6.384  23.942  0.00  0.00    -0.405 OA
ATOM     13  C   UNL     1       5.086  -5.135  24.001  0.00  0.00    +0.252 A 
ATOM     14  N   UNL     1       4.306  -4.210  23.475  0.00  0.00    -0.106 NA
ATOM     15  N   UNL     1       3.166  -4.856  23.037  0.00  0.00    -0.092 NA
BRANCH   9  16
ATOM     16  C   UNL     1       1.342  -7.081  22.325  0.00  0.00    +0.121 C 
BRANCH  16  17
ATOM     17  C   UNL     1       0.929  -8.477  21.818  0.00  0.00    +0.096 C 
BRANCH  17  18
ATOM     18  N   UNL     1       1.505  -8.781  20.498  0.00  0.00    -0.329 NA
ATOM     19  H   UNL     1       1.076  -8.175  19.798  0.00  0.00    +0.118 HD
ATOM     20  H   UNL     1       2.495  -8.529  20.508  0.00  0.00    +0.118 HD
ENDBRANCH  17  18
ENDBRANCH  16  17
ENDBRANCH   9  16
ENDBRANCH   1  13
BRANCH   8  21
ATOM     21  N   UNL     1       7.477  -3.519  22.992  0.00  0.00    -0.309 N 
ATOM     22  H   UNL     1       7.112  -4.085  22.230  0.00  0.00    +0.152 HD
BRANCH  21  23
ATOM     23  C   UNL     1       7.691  -2.165  22.661  0.00  0.00    +0.067 A 
ATOM     24  C   UNL     1       6.905  -1.110  23.157  0.00  0.00    +0.145 A 
ATOM     25  F   UNL     1       5.743  -1.362  23.780  0.00  0.00    -0.204 F 
ATOM     26  C   UNL     1       7.305   0.219  23.052  0.00  0.00    +0.054 A 
ATOM     27  C   UNL     1       8.498   0.515  22.406  0.00  0.00    +0.016 A 
ATOM     28  I   UNL     1       9.196   2.471  22.389  0.00  0.00    -0.044 I 
ATOM     29  C   UNL     1       9.247  -0.499  21.809  0.00  0.00    +0.016 A 
ATOM     30  C   UNL     1       8.841  -1.832  21.933  0.00  0.00    +0.027 A 
ENDBRANCH  21  23
ENDBRANCH   8  21
TORSDOF 6
ENDMDL
MODEL 5
REMARK VINA RESULT:      -6.8      3.831      6.827
REMARK  Name = 
REMARK  6 active torsions:
REMARK  status: ('A' for Active; 'I' for Inactive)
REMARK    1  A    between atoms: N_1  and  C_2
REMARK    2  A    between atoms: C_2  and  C_3
REMARK    3  A    between atoms: C_3  and  N_4
REMARK    4  A    between atoms: C_8  and  C_10
REMARK    5  A    between atoms: C_11  and  N_12
REMARK    6  A    between atoms: N_12  and  C_13
REMARK                            x       y       z     vdW  Elec       q    Type
REMARK                         _______ _______ _______ _____ _____    ______ ____
ROOT
ATOM      1  C   UNL     1       6.402  -2.759  23.356  0.00  0.00    +0.063 A 
ATOM      2  C   UNL     1       5.408  -3.359  22.548  0.00  0.00    +0.018 A 
ATOM      3  C   UNL     1       5.502  -4.691  22.140  0.00  0.00    +0.042 A 
ATOM      4  C   UNL     1       6.585  -5.453  22.557  0.00  0.00    +0.160 A 
ATOM      5  F   UNL     1       6.652  -6.747  22.218  0.00  0.00    -0.202 F 
ATOM      6  C   UNL     1       7.599  -4.872  23.310  0.00  0.00    +0.180 A 
ATOM      7  F   UNL     1       8.650  -5.622  23.684  0.00  0.00    -0.201 F 
ATOM      8  C   UNL     1       7.560  -3.514  23.688  0.00  0.00    +0.082 A 
ENDROOT
BRANCH   1  13
ATOM      9  N   UNL     1       6.434   1.922  23.378  0.00  0.00    -0.296 N 
ATOM     10  H   UNL     1       7.259   1.982  22.787  0.00  0.00    +0.150 HD
ATOM     11  C   UNL     1       6.151   0.711  23.889  0.00  0.00    +0.308 A 
ATOM     12  O   UNL     1       6.641  -0.356  23.192  0.00  0.00    -0.405 OA
ATOM     13  C   UNL     1       6.133  -1.422  23.896  0.00  0.00    +0.252 A 
ATOM     14  N   UNL     1       5.412  -1.033  24.930  0.00  0.00    -0.106 NA
ATOM     15  N   UNL     1       5.438   0.349  24.932  0.00  0.00    -0.092 NA
BRANCH   9  16
ATOM     16  C   UNL     1       6.236   3.107  24.196  0.00  0.00    +0.121 C 
BRANCH  16  17
ATOM     17  C   UNL     1       5.992   4.345  23.310  0.00  0.00    +0.096 C 
BRANCH  17  18
ATOM     18  N   UNL     1       6.612   4.207  21.982  0.00  0.00    -0.329 NA
ATOM     19  H   UNL     1       7.601   3.980  22.096  0.00  0.00    +0.118 HD
ATOM     20  H   UNL     1       6.199   3.402  21.510  0.00  0.00    +0.118 HD
ENDBRANCH  17  18
ENDBRANCH  16  17
ENDBRANCH   9  16
ENDBRANCH   1  13
BRANCH   8  21
ATOM     21  N   UNL     1       8.732  -2.983  24.285  0.00  0.00    -0.309 N 
ATOM     22  H   UNL     1       9.308  -3.678  24.755  0.00  0.00    +0.152 HD
BRANCH  21  23
ATOM     23  C   UNL     1       9.363  -1.736  24.096  0.00  0.00    +0.067 A 
ATOM     24  C   UNL     1       9.741  -1.240  22.836  0.00  0.00    +0.145 A 
ATOM     25  F   UNL     1       9.748  -2.046  21.762  0.00  0.00    -0.204 F 
ATOM     26  C   UNL     1      10.090   0.093  22.644  0.00  0.00    +0.054 A 
ATOM     27  C   UNL     1      10.101   0.952  23.736  0.00  0.00    +0.016 A 
ATOM     28  I   UNL     1      10.452   2.978  23.444  0.00  0.00    -0.044 I 
ATOM     29  C   UNL     1       9.835   0.466  25.017  0.00  0.00    +0.016 A 
ATOM     30  C   UNL     1       9.472  -0.873  25.194  0.00  0.00    +0.027 A 
ENDBRANCH  21  23
ENDBRANCH   8  21
TORSDOF 6
ENDMDL
MODEL 6
REMARK VINA RESULT:      -6.8      2.998      4.396
REMARK  Name = 
REMARK  6 active torsions:
REMARK  status: ('A' for Active; 'I' for Inactive)
REMARK    1  A    between atoms: N_1  and  C_2
REMARK    2  A    between atoms: C_2  and  C_3
REMARK    3  A    between atoms: C_3  and  N_4
REMARK    4  A    between atoms: C_8  and  C_10
REMARK    5  A    between atoms: C_11  and  N_12
REMARK    6  A    between atoms: N_12  and  C_13
REMARK                            x       y       z     vdW  Elec       q    Type
REMARK                         _______ _______ _______ _____ _____    ______ ____
ROOT
ATOM      1  C   UNL     1       8.198  -0.477  23.274  0.00  0.00    +0.063 A 
ATOM      2  C   UNL     1       7.895   0.788  22.719  0.00  0.00    +0.018 A 
ATOM      3  C   UNL     1       8.755   1.878  22.867  0.00  0.00    +0.042 A 
ATOM      4  C   UNL     1       9.948   1.711  23.555  0.00  0.00    +0.160 A 
ATOM      5  F   UNL     1      10.805   2.737  23.651  0.00  0.00    -0.202 F 
ATOM      6  C   UNL     1      10.246   0.491  24.152  0.00  0.00    +0.180 A 
ATOM      7  F   UNL     1      11.397   0.358  24.833  0.00  0.00    -0.201 F 
ATOM      8  C   UNL     1       9.369  -0.611  24.069  0.00  0.00    +0.082 A 
ENDROOT
BRANCH   1  13
ATOM      9  N   UNL     1       7.243  -4.744  21.602  0.00  0.00    -0.296 N 
ATOM     10  H   UNL     1       8.055  -4.753  20.988  0.00  0.00    +0.150 HD
ATOM     11  C   UNL     1       6.923  -3.558  22.151  0.00  0.00    +0.308 A 
ATOM     12  O   UNL     1       7.944  -2.660  22.260  0.00  0.00    -0.405 OA
ATOM     13  C   UNL     1       7.341  -1.610  22.911  0.00  0.00    +0.252 A 
ATOM     14  N   UNL     1       6.068  -1.850  23.160  0.00  0.00    -0.106 NA
ATOM     15  N   UNL     1       5.796  -3.107  22.654  0.00  0.00    -0.092 NA
BRANCH   9  16
ATOM     16  C   UNL     1       6.186  -5.635  21.158  0.00  0.00    +0.121 C 
BRANCH  16  17
ATOM     17  C   UNL     1       5.575  -6.393  22.353  0.00  0.00    +0.096 C 
BRANCH  17  18
ATOM     18  N   UNL     1       4.182  -5.994  22.610  0.00  0.00    -0.329 NA
ATOM     19  H   UNL     1       3.729  -6.707  23.183  0.00  0.00    +0.118 HD
ATOM     20  H   UNL     1       4.184  -5.146  23.179  0.00  0.00    +0.118 HD
ENDBRANCH  17  18
ENDBRANCH  16  17
ENDBRANCH   9  16
ENDBRANCH   1  13
BRANCH   8  21
ATOM     21  N   UNL     1       9.682  -1.737  24.873  0.00  0.00    -0.309 N 
ATOM     22  H   UNL     1      10.636  -1.742  25.225  0.00  0.00    +0.152 HD
BRANCH  21  23
ATOM     23  C   UNL     1       8.830  -2.679  25.486  0.00  0.00    +0.067 A 
ATOM     24  C   UNL     1       7.754  -2.326  26.320  0.00  0.00    +0.145 A 
ATOM     25  F   UNL     1       7.634  -1.071  26.781  0.00  0.00    -0.204 F 
ATOM     26  C   UNL     1       6.766  -3.240  26.674  0.00  0.00    +0.054 A 
ATOM     27  C   UNL     1       6.865  -4.549  26.220  0.00  0.00    +0.016 A 
ATOM     28  I   UNL     1       5.317  -5.883  26.593  0.00  0.00    -0.044 I 
ATOM     29  C   UNL     1       7.975  -4.957  25.481  0.00  0.00    +0.016 A 
ATOM     30  C   UNL     1       8.955  -4.025  25.120  0.00  0.00    +0.027 A 
ENDBRANCH  21  23
ENDBRANCH   8  21
TORSDOF 6
ENDMDL
MODEL 7
REMARK VINA RESULT:      -6.7      4.290      6.459
REMARK  Name = 
REMARK  6 active torsions:
REMARK  status: ('A' for Active; 'I' for Inactive)
REMARK    1  A    between atoms: N_1  and  C_2
REMARK    2  A    between atoms: C_2  and  C_3
REMARK    3  A    between atoms: C_3  and  N_4
REMARK    4  A    between atoms: C_8  and  C_10
REMARK    5  A    between atoms: C_11  and  N_12
REMARK    6  A    between atoms: N_12  and  C_13
REMARK                            x       y       z     vdW  Elec       q    Type
REMARK                         _______ _______ _______ _____ _____    ______ ____
ROOT
ATOM      1  C   UNL     1      10.268   3.280  23.366  0.00  0.00    +0.063 A 
ATOM      2  C   UNL     1      11.534   3.893  23.223  0.00  0.00    +0.018 A 
ATOM      3  C   UNL     1      11.776   5.190  23.681  0.00  0.00    +0.042 A 
ATOM      4  C   UNL     1      10.757   5.886  24.315  0.00  0.00    +0.160 A 
ATOM      5  F   UNL     1      10.998   7.107  24.809  0.00  0.00    -0.202 F 
ATOM      6  C   UNL     1       9.490   5.323  24.424  0.00  0.00    +0.180 A 
ATOM      7  F   UNL     1       8.511   6.024  25.022  0.00  0.00    -0.201 F 
ATOM      8  C   UNL     1       9.201   4.038  23.919  0.00  0.00    +0.082 A 
ENDROOT
BRANCH   1  13
ATOM      9  N   UNL     1       9.857  -1.295  24.270  0.00  0.00    -0.296 N 
ATOM     10  H   UNL     1      10.304  -1.219  25.180  0.00  0.00    +0.150 HD
ATOM     11  C   UNL     1       9.961  -0.225  23.462  0.00  0.00    +0.308 A 
ATOM     12  O   UNL     1      10.172   0.971  24.086  0.00  0.00    -0.405 OA
ATOM     13  C   UNL     1      10.153   1.856  23.034  0.00  0.00    +0.252 A 
ATOM     14  N   UNL     1       9.960   1.247  21.880  0.00  0.00    -0.106 NA
ATOM     15  N   UNL     1       9.850  -0.102  22.158  0.00  0.00    -0.092 NA
BRANCH   9  16
ATOM     16  C   UNL     1       9.947  -2.630  23.703  0.00  0.00    +0.121 C 
BRANCH  16  17
ATOM     17  C   UNL     1       9.264  -3.659  24.625  0.00  0.00    +0.096 C 
BRANCH  17  18
ATOM     18  N   UNL     1      10.149  -4.791  24.944  0.00  0.00    -0.329 NA
ATOM     19  H   UNL     1      10.298  -5.348  24.102  0.00  0.00    +0.118 HD
ATOM     20  H   UNL     1      11.069  -4.426  25.198  0.00  0.00    +0.118 HD
ENDBRANCH  17  18
ENDBRANCH  16  17
ENDBRANCH   9  16
ENDBRANCH   1  13
BRANCH   8  21
ATOM     21  N   UNL     1       7.837   3.647  23.913  0.00  0.00    -0.309 N 
ATOM     22  H   UNL     1       7.264   4.153  23.242  0.00  0.00    +0.152 HD
BRANCH  21  23
ATOM     23  C   UNL     1       7.218   2.506  24.464  0.00  0.00    +0.067 A 
ATOM     24  C   UNL     1       6.648   1.481  23.688  0.00  0.00    +0.145 A 
ATOM     25  F   UNL     1       6.439   1.658  22.374  0.00  0.00    -0.204 F 
ATOM     26  C   UNL     1       6.308   0.247  24.234  0.00  0.00    +0.054 A 
ATOM     27  C   UNL     1       6.503   0.033  25.593  0.00  0.00    +0.016 A 
ATOM     28  I   UNL     1       6.164  -1.853  26.394  0.00  0.00    -0.044 I 
ATOM     29  C   UNL     1       6.966   1.066  26.409  0.00  0.00    +0.016 A 
ATOM     30  C   UNL     1       7.317   2.298  25.845  0.00  0.00    +0.027 A 
ENDBRANCH  21  23
ENDBRANCH   8  21
TORSDOF 6
ENDMDL
MODEL 8
REMARK VINA RESULT:      -6.6      1.954      2.193
REMARK  Name = 
REMARK  6 active torsions:
REMARK  status: ('A' for Active; 'I' for Inactive)
REMARK    1  A    between atoms: N_1  and  C_2
REMARK    2  A    between atoms: C_2  and  C_3
REMARK    3  A    between atoms: C_3  and  N_4
REMARK    4  A    between atoms: C_8  and  C_10
REMARK    5  A    between atoms: C_11  and  N_12
REMARK    6  A    between atoms: N_12  and  C_13
REMARK                            x       y       z     vdW  Elec       q    Type
REMARK                         _______ _______ _______ _____ _____    ______ ____
ROOT
ATOM      1  C   UNL     1       8.715  -0.515  24.496  0.00  0.00    +0.063 A 
ATOM      2  C   UNL     1       9.126   0.772  24.913  0.00  0.00    +0.018 A 
ATOM      3  C   UNL     1       9.770   1.653  24.042  0.00  0.00    +0.042 A 
ATOM      4  C   UNL     1       9.990   1.266  22.728  0.00  0.00    +0.160 A 
ATOM      5  F   UNL     1      10.554   2.128  21.870  0.00  0.00    -0.202 F 
ATOM      6  C   UNL     1       9.639  -0.012  22.307  0.00  0.00    +0.180 A 
ATOM      7  F   UNL     1       9.883  -0.374  21.036  0.00  0.00    -0.201 F 
ATOM      8  C   UNL     1       9.041  -0.944  23.180  0.00  0.00    +0.082 A 
ENDROOT
BRANCH   1  13
ATOM      9  N   UNL     1       4.719  -2.287  26.170  0.00  0.00    -0.296 N 
ATOM     10  H   UNL     1       4.154  -1.524  25.804  0.00  0.00    +0.150 HD
ATOM     11  C   UNL     1       6.050  -2.103  26.159  0.00  0.00    +0.308 A 
ATOM     12  O   UNL     1       6.519  -1.212  25.237  0.00  0.00    -0.405 OA
ATOM     13  C   UNL     1       7.880  -1.300  25.411  0.00  0.00    +0.252 A 
ATOM     14  N   UNL     1       8.201  -2.157  26.361  0.00  0.00    -0.106 NA
ATOM     15  N   UNL     1       7.014  -2.665  26.854  0.00  0.00    -0.092 NA
BRANCH   9  16
ATOM     16  C   UNL     1       4.099  -2.959  27.300  0.00  0.00    +0.121 C 
BRANCH  16  17
ATOM     17  C   UNL     1       2.615  -3.260  27.007  0.00  0.00    +0.096 C 
BRANCH  17  18
ATOM     18  N   UNL     1       2.086  -2.427  25.915  0.00  0.00    -0.329 NA
ATOM     19  H   UNL     1       2.683  -2.532  25.093  0.00  0.00    +0.118 HD
ATOM     20  H   UNL     1       1.173  -2.791  25.639  0.00  0.00    +0.118 HD
ENDBRANCH  17  18
ENDBRANCH  16  17
ENDBRANCH   9  16
ENDBRANCH   1  13
BRANCH   8  21
ATOM     21  N   UNL     1       8.905  -2.272  22.700  0.00  0.00    -0.309 N 
ATOM     22  H   UNL     1       9.789  -2.728  22.487  0.00  0.00    +0.152 HD
BRANCH  21  23
ATOM     23  C   UNL     1       7.796  -3.142  22.741  0.00  0.00    +0.067 A 
ATOM     24  C   UNL     1       7.753  -4.311  23.521  0.00  0.00    +0.145 A 
ATOM     25  F   UNL     1       8.873  -4.796  24.081  0.00  0.00    -0.204 F 
ATOM     26  C   UNL     1       6.564  -4.988  23.769  0.00  0.00    +0.054 A 
ATOM     27  C   UNL     1       5.388  -4.518  23.198  0.00  0.00    +0.016 A 
ATOM     28  I   UNL     1       3.579  -5.411  23.691  0.00  0.00    -0.044 I 
ATOM     29  C   UNL     1       5.414  -3.424  22.332  0.00  0.00    +0.016 A 
ATOM     30  C   UNL     1       6.615  -2.743  22.102  0.00  0.00    +0.027 A 
ENDBRANCH  21  23
ENDBRANCH   8  21
TORSDOF 6
ENDMDL
MODEL 9
REMARK VINA RESULT:      -6.5      6.005      8.205
REMARK  Name = 
REMARK  6 active torsions:
REMARK  status: ('A' for Active; 'I' for Inactive)
REMARK    1  A    between atoms: N_1  and  C_2
REMARK    2  A    between atoms: C_2  and  C_3
REMARK    3  A    between atoms: C_3  and  N_4
REMARK    4  A    between atoms: C_8  and  C_10
REMARK    5  A    between atoms: C_11  and  N_12
REMARK    6  A    between atoms: N_12  and  C_13
REMARK                            x       y       z     vdW  Elec       q    Type
REMARK                         _______ _______ _______ _____ _____    ______ ____
ROOT
ATOM      1  C   UNL     1       9.172   5.007  24.379  0.00  0.00    +0.063 A 
ATOM      2  C   UNL     1       9.376   6.116  25.233  0.00  0.00    +0.018 A 
ATOM      3  C   UNL     1      10.603   6.778  25.292  0.00  0.00    +0.042 A 
ATOM      4  C   UNL     1      11.642   6.355  24.475  0.00  0.00    +0.160 A 
ATOM      5  F   UNL     1      12.804   7.022  24.484  0.00  0.00    -0.202 F 
ATOM      6  C   UNL     1      11.481   5.237  23.664  0.00  0.00    +0.180 A 
ATOM      7  F   UNL     1      12.508   4.830  22.898  0.00  0.00    -0.201 F 
ATOM      8  C   UNL     1      10.272   4.513  23.627  0.00  0.00    +0.082 A 
ENDROOT
BRANCH   1  13
ATOM      9  N   UNL     1       5.270   3.838  22.072  0.00  0.00    -0.296 N 
ATOM     10  H   UNL     1       5.430   4.516  21.331  0.00  0.00    +0.150 HD
ATOM     11  C   UNL     1       6.037   3.960  23.169  0.00  0.00    +0.308 A 
ATOM     12  O   UNL     1       7.234   4.591  22.990  0.00  0.00    -0.405 OA
ATOM     13  C   UNL     1       7.806   4.492  24.236  0.00  0.00    +0.252 A 
ATOM     14  N   UNL     1       7.019   3.868  25.092  0.00  0.00    -0.106 NA
ATOM     15  N   UNL     1       5.868   3.537  24.403  0.00  0.00    -0.092 NA
BRANCH   9  16
ATOM     16  C   UNL     1       3.871   3.473  22.214  0.00  0.00    +0.121 C 
BRANCH  16  17
ATOM     17  C   UNL     1       2.994   4.732  22.369  0.00  0.00    +0.096 C 
BRANCH  17  18
ATOM     18  N   UNL     1       3.370   5.791  21.419  0.00  0.00    -0.329 NA
ATOM     19  H   UNL     1       3.469   6.673  21.922  0.00  0.00    +0.118 HD
ATOM     20  H   UNL     1       4.298   5.582  21.047  0.00  0.00    +0.118 HD
ENDBRANCH  17  18
ENDBRANCH  16  17
ENDBRANCH   9  16
ENDBRANCH   1  13
BRANCH   8  21
ATOM     21  N   UNL     1      10.285   3.285  22.915  0.00  0.00    -0.309 N 
ATOM     22  H   UNL     1      10.893   3.286  22.100  0.00  0.00    +0.152 HD
BRANCH  21  23
ATOM     23  C   UNL     1       9.829   2.008  23.301  0.00  0.00    +0.067 A 
ATOM     24  C   UNL     1       8.881   1.268  22.572  0.00  0.00    +0.145 A 
ATOM     25  F   UNL     1       8.167   1.852  21.597  0.00  0.00    -0.204 F 
ATOM     26  C   UNL     1       8.665  -0.086  22.807  0.00  0.00    +0.054 A 
ATOM     27  C   UNL     1       9.381  -0.719  23.815  0.00  0.00    +0.016 A 
ATOM     28  I   UNL     1       9.201  -2.772  24.068  0.00  0.00    -0.044 I 
ATOM     29  C   UNL     1      10.250   0.011  24.626  0.00  0.00    +0.016 A 
ATOM     30  C   UNL     1      10.468   1.370  24.372  0.00  0.00    +0.027 A 
ENDBRANCH  21  23
ENDBRANCH   8  21
TORSDOF 6
ENDMDL
