MODEL 1
REMARK VINA RESULT:      -5.3      0.000      0.000
REMARK  Name = 
REMARK  14 active torsions:
REMARK  status: ('A' for Active; 'I' for Inactive)
REMARK    1  A    between atoms: C_2  and  C_3
REMARK    2  A    between atoms: C_3  and  O_4
REMARK    3  A    between atoms: C_6  and  S_8
REMARK    4  A    between atoms: S_8  and  C_9
REMARK    5  A    between atoms: C_9  and  C_10
REMARK    6  A    between atoms: C_10  and  C_11
REMARK    7  A    between atoms: C_11  and  C_12
REMARK    8  A    between atoms: C_12  and  C_13
REMARK    9  A    between atoms: C_13  and  C_14
REMARK   10  A    between atoms: C_14  and  C_15
REMARK   11  A    between atoms: C_15  and  C_16
REMARK   12  A    between atoms: C_17  and  O_19
REMARK   13  A    between atoms: C_20  and  O_22
REMARK   14  A    between atoms: C_23  and  O_25
REMARK                            x       y       z     vdW  Elec       q    Type
REMARK                         _______ _______ _______ _____ _____    ______ ____
ROOT
ATOM      1  C   UNL     1       8.963  -4.529  26.423  0.00  0.00    +0.176 C 
ATOM      2  C   UNL     1       7.808  -5.543  26.470  0.00  0.00    +0.176 C 
ATOM      3  C   UNL     1       6.561  -5.049  25.726  0.00  0.00    +0.177 C 
ATOM      4  C   UNL     1       6.182  -3.634  26.192  0.00  0.00    +0.184 C 
ATOM      5  C   UNL     1       7.382  -2.661  26.130  0.00  0.00    +0.207 C 
ATOM      6  O   UNL     1       8.567  -3.179  26.735  0.00  0.00    -0.355 OA
ENDROOT
BRANCH   2   7
ATOM      7  O   UNL     1       7.488  -5.805  27.847  0.00  0.00    -0.386 OA
ATOM      8  H   UNL     1       7.429  -4.937  28.302  0.00  0.00    +0.210 HD
ENDBRANCH   2   7
BRANCH   3   9
ATOM      9  O   UNL     1       6.734  -5.145  24.312  0.00  0.00    -0.386 OA
ATOM     10  H   UNL     1       7.304  -5.908  24.099  0.00  0.00    +0.210 HD
ENDBRANCH   3   9
BRANCH   4  11
ATOM     11  O   UNL     1       5.724  -3.728  27.561  0.00  0.00    -0.386 OA
ATOM     12  H   UNL     1       5.422  -4.644  27.706  0.00  0.00    +0.210 HD
ENDBRANCH   4  11
BRANCH   1  13
ATOM     13  C   UNL     1       9.787  -4.612  25.125  0.00  0.00    +0.190 C 
BRANCH  13  14
ATOM     14  O   UNL     1       9.684  -5.905  24.523  0.00  0.00    -0.392 OA
ATOM     15  H   UNL     1      10.328  -5.949  23.794  0.00  0.00    +0.210 HD
ENDBRANCH  13  14
ENDBRANCH   1  13
BRANCH   5  16
ATOM     16  S   UNL     1       7.645  -1.988  24.455  0.00  0.00    -0.127 S 
BRANCH  16  17
ATOM     17  C   UNL     1       7.358  -0.217  24.810  0.00  0.00    +0.072 C 
BRANCH  17  18
ATOM     18  C   UNL     1       8.588   0.379  25.495  0.00  0.00    +0.011 C 
BRANCH  18  19
ATOM     19  C   UNL     1       9.888  -0.272  25.004  0.00  0.00    +0.001 C 
BRANCH  19  20
ATOM     20  C   UNL     1      10.846   0.779  24.433  0.00  0.00    +0.000 C 
BRANCH  20  21
ATOM     21  C   UNL     1      10.095   1.952  23.797  0.00  0.00    -0.000 C 
BRANCH  21  22
ATOM     22  C   UNL     1      10.191   1.910  22.268  0.00  0.00    -0.000 C 
BRANCH  22  23
ATOM     23  C   UNL     1       9.001   1.175  21.652  0.00  0.00    -0.003 C 
ATOM     24  C   UNL     1       9.344  -0.269  21.322  0.00  0.00    +0.004 C 
ENDBRANCH  22  23
ENDBRANCH  21  22
ENDBRANCH  20  21
ENDBRANCH  19  20
ENDBRANCH  18  19
ENDBRANCH  17  18
ENDBRANCH  16  17
ENDBRANCH   5  16
TORSDOF 13
ENDMDL
MODEL 2
REMARK VINA RESULT:      -5.2      1.410      3.414
REMARK  Name = 
REMARK  14 active torsions:
REMARK  status: ('A' for Active; 'I' for Inactive)
REMARK    1  A    between atoms: C_2  and  C_3
REMARK    2  A    between atoms: C_3  and  O_4
REMARK    3  A    between atoms: C_6  and  S_8
REMARK    4  A    between atoms: S_8  and  C_9
REMARK    5  A    between atoms: C_9  and  C_10
REMARK    6  A    between atoms: C_10  and  C_11
REMARK    7  A    between atoms: C_11  and  C_12
REMARK    8  A    between atoms: C_12  and  C_13
REMARK    9  A    between atoms: C_13  and  C_14
REMARK   10  A    between atoms: C_14  and  C_15
REMARK   11  A    between atoms: C_15  and  C_16
REMARK   12  A    between atoms: C_17  and  O_19
REMARK   13  A    between atoms: C_20  and  O_22
REMARK   14  A    between atoms: C_23  and  O_25
REMARK                            x       y       z     vdW  Elec       q    Type
REMARK                         _______ _______ _______ _____ _____    ______ ____
ROOT
ATOM      1  C   UNL     1       6.546  -4.949  25.607  0.00  0.00    +0.176 C 
ATOM      2  C   UNL     1       7.542  -4.812  26.771  0.00  0.00    +0.176 C 
ATOM      3  C   UNL     1       8.751  -3.938  26.411  0.00  0.00    +0.177 C 
ATOM      4  C   UNL     1       9.380  -4.409  25.090  0.00  0.00    +0.184 C 
ATOM      5  C   UNL     1       8.332  -4.535  23.960  0.00  0.00    +0.207 C 
ATOM      6  O   UNL     1       7.164  -5.262  24.344  0.00  0.00    -0.355 OA
ENDROOT
BRANCH   2   7
ATOM      7  O   UNL     1       7.982  -6.127  27.152  0.00  0.00    -0.386 OA
ATOM      8  H   UNL     1       7.471  -6.385  27.950  0.00  0.00    +0.210 HD
ENDBRANCH   2   7
BRANCH   3   9
ATOM      9  O   UNL     1       8.401  -2.554  26.402  0.00  0.00    -0.386 OA
ATOM     10  H   UNL     1       7.906  -2.332  27.213  0.00  0.00    +0.210 HD
ENDBRANCH   3   9
BRANCH   4  11
ATOM     11  O   UNL     1       9.978  -5.705  25.322  0.00  0.00    -0.386 OA
ATOM     12  H   UNL     1      10.903  -5.659  25.016  0.00  0.00    +0.210 HD
ENDBRANCH   4  11
BRANCH   1  13
ATOM     13  C   UNL     1       5.572  -3.761  25.503  0.00  0.00    +0.190 C 
BRANCH  13  14
ATOM     14  O   UNL     1       5.434  -3.087  26.757  0.00  0.00    -0.392 OA
ATOM     15  H   UNL     1       5.862  -2.216  26.679  0.00  0.00    +0.210 HD
ENDBRANCH  13  14
ENDBRANCH   1  13
BRANCH   5  16
ATOM     16  S   UNL     1       7.972  -2.934  23.163  0.00  0.00    -0.127 S 
BRANCH  16  17
ATOM     17  C   UNL     1       9.661  -2.234  23.151  0.00  0.00    +0.072 C 
BRANCH  17  18
ATOM     18  C   UNL     1       9.763  -1.147  22.081  0.00  0.00    +0.011 C 
BRANCH  18  19
ATOM     19  C   UNL     1       8.709  -0.050  22.279  0.00  0.00    +0.001 C 
BRANCH  19  20
ATOM     20  C   UNL     1       9.125   1.244  21.571  0.00  0.00    +0.000 C 
BRANCH  20  21
ATOM     21  C   UNL     1      10.292   1.935  22.282  0.00  0.00    -0.000 C 
BRANCH  21  22
ATOM     22  C   UNL     1      10.003   2.119  23.775  0.00  0.00    -0.000 C 
BRANCH  22  23
ATOM     23  C   UNL     1       9.325   3.461  24.053  0.00  0.00    -0.003 C 
ATOM     24  C   UNL     1       8.233   3.329  25.104  0.00  0.00    +0.004 C 
ENDBRANCH  22  23
ENDBRANCH  21  22
ENDBRANCH  20  21
ENDBRANCH  19  20
ENDBRANCH  18  19
ENDBRANCH  17  18
ENDBRANCH  16  17
ENDBRANCH   5  16
TORSDOF 13
ENDMDL
MODEL 3
REMARK VINA RESULT:      -5.2      2.183      3.449
REMARK  Name = 
REMARK  14 active torsions:
REMARK  status: ('A' for Active; 'I' for Inactive)
REMARK    1  A    between atoms: C_2  and  C_3
REMARK    2  A    between atoms: C_3  and  O_4
REMARK    3  A    between atoms: C_6  and  S_8
REMARK    4  A    between atoms: S_8  and  C_9
REMARK    5  A    between atoms: C_9  and  C_10
REMARK    6  A    between atoms: C_10  and  C_11
REMARK    7  A    between atoms: C_11  and  C_12
REMARK    8  A    between atoms: C_12  and  C_13
REMARK    9  A    between atoms: C_13  and  C_14
REMARK   10  A    between atoms: C_14  and  C_15
REMARK   11  A    between atoms: C_15  and  C_16
REMARK   12  A    between atoms: C_17  and  O_19
REMARK   13  A    between atoms: C_20  and  O_22
REMARK   14  A    between atoms: C_23  and  O_25
REMARK                            x       y       z     vdW  Elec       q    Type
REMARK                         _______ _______ _______ _____ _____    ______ ____
ROOT
ATOM      1  C   UNL     1       5.263  -4.735  24.344  0.00  0.00    +0.176 C 
ATOM      2  C   UNL     1       5.796  -5.866  23.449  0.00  0.00    +0.176 C 
ATOM      3  C   UNL     1       7.026  -5.443  22.635  0.00  0.00    +0.177 C 
ATOM      4  C   UNL     1       6.753  -4.124  21.895  0.00  0.00    +0.184 C 
ATOM      5  C   UNL     1       6.214  -3.027  22.843  0.00  0.00    +0.207 C 
ATOM      6  O   UNL     1       5.136  -3.468  23.670  0.00  0.00    -0.355 OA
ENDROOT
BRANCH   2   7
ATOM      7  O   UNL     1       4.741  -6.283  22.564  0.00  0.00    -0.386 OA
ATOM      8  H   UNL     1       5.125  -6.345  21.663  0.00  0.00    +0.210 HD
ENDBRANCH   2   7
BRANCH   3   9
ATOM      9  O   UNL     1       8.193  -5.393  23.456  0.00  0.00    -0.386 OA
ATOM     10  H   UNL     1       7.965  -5.039  24.336  0.00  0.00    +0.210 HD
ENDBRANCH   3   9
BRANCH   4  11
ATOM     11  O   UNL     1       5.766  -4.387  20.872  0.00  0.00    -0.386 OA
ATOM     12  H   UNL     1       5.020  -3.777  21.022  0.00  0.00    +0.210 HD
ENDBRANCH   4  11
BRANCH   1  13
ATOM     13  C   UNL     1       6.021  -4.614  25.679  0.00  0.00    +0.190 C 
BRANCH  13  14
ATOM     14  O   UNL     1       6.586  -5.867  26.074  0.00  0.00    -0.392 OA
ATOM     15  H   UNL     1       6.292  -6.543  25.440  0.00  0.00    +0.210 HD
ENDBRANCH  13  14
ENDBRANCH   1  13
BRANCH   5  16
ATOM     16  S   UNL     1       7.546  -2.183  23.760  0.00  0.00    -0.127 S 
BRANCH  16  17
ATOM     17  C   UNL     1       8.797  -2.096  22.430  0.00  0.00    +0.072 C 
BRANCH  17  18
ATOM     18  C   UNL     1      10.131  -1.619  23.005  0.00  0.00    +0.011 C 
BRANCH  18  19
ATOM     19  C   UNL     1       9.958  -0.957  24.378  0.00  0.00    +0.001 C 
BRANCH  19  20
ATOM     20  C   UNL     1      10.695   0.385  24.437  0.00  0.00    +0.000 C 
BRANCH  20  21
ATOM     21  C   UNL     1       9.726   1.567  24.525  0.00  0.00    -0.000 C 
BRANCH  21  22
ATOM     22  C   UNL     1       9.970   2.570  23.393  0.00  0.00    -0.000 C 
BRANCH  22  23
ATOM     23  C   UNL     1       9.984   1.883  22.028  0.00  0.00    -0.003 C 
ATOM     24  C   UNL     1       8.575   1.630  21.513  0.00  0.00    +0.004 C 
ENDBRANCH  22  23
ENDBRANCH  21  22
ENDBRANCH  20  21
ENDBRANCH  19  20
ENDBRANCH  18  19
ENDBRANCH  17  18
ENDBRANCH  16  17
ENDBRANCH   5  16
TORSDOF 13
ENDMDL
MODEL 4
REMARK VINA RESULT:      -5.1      3.664      6.496
REMARK  Name = 
REMARK  14 active torsions:
REMARK  status: ('A' for Active; 'I' for Inactive)
REMARK    1  A    between atoms: C_2  and  C_3
REMARK    2  A    between atoms: C_3  and  O_4
REMARK    3  A    between atoms: C_6  and  S_8
REMARK    4  A    between atoms: S_8  and  C_9
REMARK    5  A    between atoms: C_9  and  C_10
REMARK    6  A    between atoms: C_10  and  C_11
REMARK    7  A    between atoms: C_11  and  C_12
REMARK    8  A    between atoms: C_12  and  C_13
REMARK    9  A    between atoms: C_13  and  C_14
REMARK   10  A    between atoms: C_14  and  C_15
REMARK   11  A    between atoms: C_15  and  C_16
REMARK   12  A    between atoms: C_17  and  O_19
REMARK   13  A    between atoms: C_20  and  O_22
REMARK   14  A    between atoms: C_23  and  O_25
REMARK                            x       y       z     vdW  Elec       q    Type
REMARK                         _______ _______ _______ _____ _____    ______ ____
ROOT
ATOM      1  C   UNL     1       8.882   0.256  21.890  0.00  0.00    +0.176 C 
ATOM      2  C   UNL     1      10.139   1.076  22.226  0.00  0.00    +0.176 C 
ATOM      3  C   UNL     1      10.315   1.289  23.736  0.00  0.00    +0.177 C 
ATOM      4  C   UNL     1       9.019   1.833  24.357  0.00  0.00    +0.184 C 
ATOM      5  C   UNL     1       7.789   0.974  23.979  0.00  0.00    +0.207 C 
ATOM      6  O   UNL     1       7.696   0.696  22.581  0.00  0.00    -0.355 OA
ENDROOT
BRANCH   2   7
ATOM      7  O   UNL     1      10.047   2.346  21.558  0.00  0.00    -0.386 OA
ATOM      8  H   UNL     1      10.882   2.831  21.739  0.00  0.00    +0.210 HD
ENDBRANCH   2   7
BRANCH   3   9
ATOM      9  O   UNL     1      10.785   0.101  24.371  0.00  0.00    -0.386 OA
ATOM     10  H   UNL     1      10.722   0.195  25.340  0.00  0.00    +0.210 HD
ENDBRANCH   3   9
BRANCH   4  11
ATOM     11  O   UNL     1       8.822   3.177  23.863  0.00  0.00    -0.386 OA
ATOM     12  H   UNL     1       9.168   3.208  22.952  0.00  0.00    +0.210 HD
ENDBRANCH   4  11
BRANCH   1  13
ATOM     13  C   UNL     1       9.101  -1.263  22.011  0.00  0.00    +0.190 C 
BRANCH  13  14
ATOM     14  O   UNL     1      10.467  -1.614  21.777  0.00  0.00    -0.392 OA
ATOM     15  H   UNL     1      10.749  -1.191  20.948  0.00  0.00    +0.210 HD
ENDBRANCH  13  14
ENDBRANCH   1  13
BRANCH   5  16
ATOM     16  S   UNL     1       7.621  -0.503  25.036  0.00  0.00    -0.127 S 
BRANCH  16  17
ATOM     17  C   UNL     1       5.987  -1.085  24.457  0.00  0.00    +0.072 C 
BRANCH  17  18
ATOM     18  C   UNL     1       6.103  -2.515  23.931  0.00  0.00    +0.011 C 
BRANCH  18  19
ATOM     19  C   UNL     1       6.808  -3.438  24.934  0.00  0.00    +0.001 C 
BRANCH  19  20
ATOM     20  C   UNL     1       7.838  -4.328  24.232  0.00  0.00    +0.000 C 
BRANCH  20  21
ATOM     21  C   UNL     1       7.590  -4.409  22.723  0.00  0.00    -0.000 C 
BRANCH  21  22
ATOM     22  C   UNL     1       7.204  -5.830  22.299  0.00  0.00    -0.000 C 
BRANCH  22  23
ATOM     23  C   UNL     1       5.815  -5.867  21.661  0.00  0.00    -0.003 C 
ATOM     24  C   UNL     1       4.715  -5.805  22.709  0.00  0.00    +0.004 C 
ENDBRANCH  22  23
ENDBRANCH  21  22
ENDBRANCH  20  21
ENDBRANCH  19  20
ENDBRANCH  18  19
ENDBRANCH  17  18
ENDBRANCH  16  17
ENDBRANCH   5  16
TORSDOF 13
ENDMDL
MODEL 5
REMARK VINA RESULT:      -5.0      2.079      3.388
REMARK  Name = 
REMARK  14 active torsions:
REMARK  status: ('A' for Active; 'I' for Inactive)
REMARK    1  A    between atoms: C_2  and  C_3
REMARK    2  A    between atoms: C_3  and  O_4
REMARK    3  A    between atoms: C_6  and  S_8
REMARK    4  A    between atoms: S_8  and  C_9
REMARK    5  A    between atoms: C_9  and  C_10
REMARK    6  A    between atoms: C_10  and  C_11
REMARK    7  A    between atoms: C_11  and  C_12
REMARK    8  A    between atoms: C_12  and  C_13
REMARK    9  A    between atoms: C_13  and  C_14
REMARK   10  A    between atoms: C_14  and  C_15
REMARK   11  A    between atoms: C_15  and  C_16
REMARK   12  A    between atoms: C_17  and  O_19
REMARK   13  A    between atoms: C_20  and  O_22
REMARK   14  A    between atoms: C_23  and  O_25
REMARK                            x       y       z     vdW  Elec       q    Type
REMARK                         _______ _______ _______ _____ _____    ______ ____
ROOT
ATOM      1  C   UNL     1       6.655  -5.521  22.796  0.00  0.00    +0.176 C 
ATOM      2  C   UNL     1       5.221  -5.774  23.292  0.00  0.00    +0.176 C 
ATOM      3  C   UNL     1       4.862  -4.918  24.514  0.00  0.00    +0.177 C 
ATOM      4  C   UNL     1       5.942  -5.053  25.600  0.00  0.00    +0.184 C 
ATOM      5  C   UNL     1       7.362  -4.795  25.042  0.00  0.00    +0.207 C 
ATOM      6  O   UNL     1       7.643  -5.519  23.844  0.00  0.00    -0.355 OA
ENDROOT
BRANCH   2   7
ATOM      7  O   UNL     1       5.089  -7.169  23.612  0.00  0.00    -0.386 OA
ATOM      8  H   UNL     1       5.859  -7.413  24.171  0.00  0.00    +0.210 HD
ENDBRANCH   2   7
BRANCH   3   9
ATOM      9  O   UNL     1       4.612  -3.565  24.138  0.00  0.00    -0.386 OA
ATOM     10  H   UNL     1       4.973  -2.960  24.814  0.00  0.00    +0.210 HD
ENDBRANCH   3   9
BRANCH   4  11
ATOM     11  O   UNL     1       5.880  -6.400  26.121  0.00  0.00    -0.386 OA
ATOM     12  H   UNL     1       5.170  -6.867  25.641  0.00  0.00    +0.210 HD
ENDBRANCH   4  11
BRANCH   1  13
ATOM     13  C   UNL     1       6.768  -4.287  21.882  0.00  0.00    +0.190 C 
BRANCH  13  14
ATOM     14  O   UNL     1       5.525  -3.999  21.236  0.00  0.00    -0.392 OA
ATOM     15  H   UNL     1       5.650  -4.116  20.278  0.00  0.00    +0.210 HD
ENDBRANCH  13  14
ENDBRANCH   1  13
BRANCH   5  16
ATOM     16  S   UNL     1       7.755  -3.017  24.936  0.00  0.00    -0.127 S 
BRANCH  16  17
ATOM     17  C   UNL     1       9.456  -3.139  24.276  0.00  0.00    +0.072 C 
BRANCH  17  18
ATOM     18  C   UNL     1       9.869  -1.802  23.662  0.00  0.00    +0.011 C 
BRANCH  18  19
ATOM     19  C   UNL     1       8.754  -1.200  22.797  0.00  0.00    +0.001 C 
BRANCH  19  20
ATOM     20  C   UNL     1       9.322  -0.607  21.503  0.00  0.00    +0.000 C 
BRANCH  20  21
ATOM     21  C   UNL     1       9.060   0.898  21.401  0.00  0.00    -0.000 C 
BRANCH  21  22
ATOM     22  C   UNL     1      10.123   1.700  22.160  0.00  0.00    -0.000 C 
BRANCH  22  23
ATOM     23  C   UNL     1       9.487   2.704  23.122  0.00  0.00    -0.003 C 
ATOM     24  C   UNL     1       9.329   2.119  24.517  0.00  0.00    +0.004 C 
ENDBRANCH  22  23
ENDBRANCH  21  22
ENDBRANCH  20  21
ENDBRANCH  19  20
ENDBRANCH  18  19
ENDBRANCH  17  18
ENDBRANCH  16  17
ENDBRANCH   5  16
TORSDOF 13
ENDMDL
MODEL 6
REMARK VINA RESULT:      -5.0      2.177      3.483
REMARK  Name = 
REMARK  14 active torsions:
REMARK  status: ('A' for Active; 'I' for Inactive)
REMARK    1  A    between atoms: C_2  and  C_3
REMARK    2  A    between atoms: C_3  and  O_4
REMARK    3  A    between atoms: C_6  and  S_8
REMARK    4  A    between atoms: S_8  and  C_9
REMARK    5  A    between atoms: C_9  and  C_10
REMARK    6  A    between atoms: C_10  and  C_11
REMARK    7  A    between atoms: C_11  and  C_12
REMARK    8  A    between atoms: C_12  and  C_13
REMARK    9  A    between atoms: C_13  and  C_14
REMARK   10  A    between atoms: C_14  and  C_15
REMARK   11  A    between atoms: C_15  and  C_16
REMARK   12  A    between atoms: C_17  and  O_19
REMARK   13  A    between atoms: C_20  and  O_22
REMARK   14  A    between atoms: C_23  and  O_25
REMARK                            x       y       z     vdW  Elec       q    Type
REMARK                         _______ _______ _______ _____ _____    ______ ____
ROOT
ATOM      1  C   UNL     1       7.561  -3.539  22.581  0.00  0.00    +0.176 C 
ATOM      2  C   UNL     1       7.392  -4.793  23.454  0.00  0.00    +0.176 C 
ATOM      3  C   UNL     1       7.662  -4.516  24.939  0.00  0.00    +0.177 C 
ATOM      4  C   UNL     1       9.010  -3.798  25.115  0.00  0.00    +0.184 C 
ATOM      5  C   UNL     1       9.125  -2.551  24.209  0.00  0.00    +0.207 C 
ATOM      6  O   UNL     1       8.769  -2.800  22.848  0.00  0.00    -0.355 OA
ENDROOT
BRANCH   2   7
ATOM      7  O   UNL     1       8.288  -5.809  22.972  0.00  0.00    -0.386 OA
ATOM      8  H   UNL     1       8.152  -5.881  22.002  0.00  0.00    +0.210 HD
ENDBRANCH   2   7
BRANCH   3   9
ATOM      9  O   UNL     1       6.572  -3.817  25.539  0.00  0.00    -0.386 OA
ATOM     10  H   UNL     1       6.337  -4.234  26.389  0.00  0.00    +0.210 HD
ENDBRANCH   3   9
BRANCH   4  11
ATOM     11  O   UNL     1      10.057  -4.732  24.766  0.00  0.00    -0.386 OA
ATOM     12  H   UNL     1      10.901  -4.243  24.782  0.00  0.00    +0.210 HD
ENDBRANCH   4  11
BRANCH   1  13
ATOM     13  C   UNL     1       6.313  -2.637  22.571  0.00  0.00    +0.190 C 
BRANCH  13  14
ATOM     14  O   UNL     1       5.219  -3.265  21.898  0.00  0.00    -0.392 OA
ATOM     15  H   UNL     1       5.522  -3.526  21.011  0.00  0.00    +0.210 HD
ENDBRANCH  13  14
ENDBRANCH   1  13
BRANCH   5  16
ATOM     16  S   UNL     1       8.305  -1.089  24.928  0.00  0.00    -0.127 S 
BRANCH  16  17
ATOM     17  C   UNL     1       9.785  -0.076  25.284  0.00  0.00    +0.072 C 
BRANCH  17  18
ATOM     18  C   UNL     1      10.534   0.220  23.984  0.00  0.00    +0.011 C 
BRANCH  18  19
ATOM     19  C   UNL     1      10.484   1.710  23.623  0.00  0.00    +0.001 C 
BRANCH  19  20
ATOM     20  C   UNL     1      10.107   1.905  22.150  0.00  0.00    +0.000 C 
BRANCH  20  21
ATOM     21  C   UNL     1       9.025   0.920  21.701  0.00  0.00    -0.000 C 
BRANCH  21  22
ATOM     22  C   UNL     1       7.626   1.426  22.065  0.00  0.00    -0.000 C 
BRANCH  22  23
ATOM     23  C   UNL     1       7.515   2.941  21.891  0.00  0.00    -0.003 C 
ATOM     24  C   UNL     1       6.761   3.584  23.045  0.00  0.00    +0.004 C 
ENDBRANCH  22  23
ENDBRANCH  21  22
ENDBRANCH  20  21
ENDBRANCH  19  20
ENDBRANCH  18  19
ENDBRANCH  17  18
ENDBRANCH  16  17
ENDBRANCH   5  16
TORSDOF 13
ENDMDL
MODEL 7
REMARK VINA RESULT:      -4.9      4.054      7.066
REMARK  Name = 
REMARK  14 active torsions:
REMARK  status: ('A' for Active; 'I' for Inactive)
REMARK    1  A    between atoms: C_2  and  C_3
REMARK    2  A    between atoms: C_3  and  O_4
REMARK    3  A    between atoms: C_6  and  S_8
REMARK    4  A    between atoms: S_8  and  C_9
REMARK    5  A    between atoms: C_9  and  C_10
REMARK    6  A    between atoms: C_10  and  C_11
REMARK    7  A    between atoms: C_11  and  C_12
REMARK    8  A    between atoms: C_12  and  C_13
REMARK    9  A    between atoms: C_13  and  C_14
REMARK   10  A    between atoms: C_14  and  C_15
REMARK   11  A    between atoms: C_15  and  C_16
REMARK   12  A    between atoms: C_17  and  O_19
REMARK   13  A    between atoms: C_20  and  O_22
REMARK   14  A    between atoms: C_23  and  O_25
REMARK                            x       y       z     vdW  Elec       q    Type
REMARK                         _______ _______ _______ _____ _____    ______ ____
ROOT
ATOM      1  C   UNL     1       8.588   2.864  24.491  0.00  0.00    +0.176 C 
ATOM      2  C   UNL     1       7.942   3.010  23.103  0.00  0.00    +0.176 C 
ATOM      3  C   UNL     1       8.139   1.763  22.229  0.00  0.00    +0.177 C 
ATOM      4  C   UNL     1       9.622   1.357  22.199  0.00  0.00    +0.184 C 
ATOM      5  C   UNL     1      10.218   1.233  23.620  0.00  0.00    +0.207 C 
ATOM      6  O   UNL     1       9.936   2.356  24.457  0.00  0.00    -0.355 OA
ENDROOT
BRANCH   2   7
ATOM      7  O   UNL     1       8.510   4.160  22.454  0.00  0.00    -0.386 OA
ATOM      8  H   UNL     1       7.855   4.475  21.794  0.00  0.00    +0.210 HD
ENDBRANCH   2   7
BRANCH   3   9
ATOM      9  O   UNL     1       7.276   0.704  22.641  0.00  0.00    -0.386 OA
ATOM     10  H   UNL     1       7.786   0.034  23.136  0.00  0.00    +0.210 HD
ENDBRANCH   3   9
BRANCH   4  11
ATOM     11  O   UNL     1      10.345   2.377  21.473  0.00  0.00    -0.386 OA
ATOM     12  H   UNL     1       9.908   2.485  20.608  0.00  0.00    +0.210 HD
ENDBRANCH   4  11
BRANCH   1  13
ATOM     13  C   UNL     1       7.701   2.102  25.493  0.00  0.00    +0.190 C 
BRANCH  13  14
ATOM     14  O   UNL     1       6.321   2.169  25.125  0.00  0.00    -0.392 OA
ATOM     15  H   UNL     1       6.158   3.040  24.723  0.00  0.00    +0.210 HD
ENDBRANCH  13  14
ENDBRANCH   1  13
BRANCH   5  16
ATOM     16  S   UNL     1       9.841  -0.374  24.395  0.00  0.00    -0.127 S 
BRANCH  16  17
ATOM     17  C   UNL     1      10.226  -1.470  22.983  0.00  0.00    +0.072 C 
BRANCH  17  18
ATOM     18  C   UNL     1       8.989  -2.289  22.611  0.00  0.00    +0.011 C 
BRANCH  18  19
ATOM     19  C   UNL     1       8.194  -2.718  23.851  0.00  0.00    +0.001 C 
BRANCH  19  20
ATOM     20  C   UNL     1       8.712  -4.052  24.400  0.00  0.00    +0.000 C 
BRANCH  20  21
ATOM     21  C   UNL     1       7.591  -5.084  24.545  0.00  0.00    -0.000 C 
BRANCH  21  22
ATOM     22  C   UNL     1       6.634  -5.038  23.350  0.00  0.00    -0.000 C 
BRANCH  22  23
ATOM     23  C   UNL     1       7.189  -5.818  22.157  0.00  0.00    -0.003 C 
ATOM     24  C   UNL     1       6.221  -5.810  20.984  0.00  0.00    +0.004 C 
ENDBRANCH  22  23
ENDBRANCH  21  22
ENDBRANCH  20  21
ENDBRANCH  19  20
ENDBRANCH  18  19
ENDBRANCH  17  18
ENDBRANCH  16  17
ENDBRANCH   5  16
TORSDOF 13
ENDMDL
MODEL 8
REMARK VINA RESULT:      -4.8      1.845      3.059
REMARK  Name = 
REMARK  14 active torsions:
REMARK  status: ('A' for Active; 'I' for Inactive)
REMARK    1  A    between atoms: C_2  and  C_3
REMARK    2  A    between atoms: C_3  and  O_4
REMARK    3  A    between atoms: C_6  and  S_8
REMARK    4  A    between atoms: S_8  and  C_9
REMARK    5  A    between atoms: C_9  and  C_10
REMARK    6  A    between atoms: C_10  and  C_11
REMARK    7  A    between atoms: C_11  and  C_12
REMARK    8  A    between atoms: C_12  and  C_13
REMARK    9  A    between atoms: C_13  and  C_14
REMARK   10  A    between atoms: C_14  and  C_15
REMARK   11  A    between atoms: C_15  and  C_16
REMARK   12  A    between atoms: C_17  and  O_19
REMARK   13  A    between atoms: C_20  and  O_22
REMARK   14  A    between atoms: C_23  and  O_25
REMARK                            x       y       z     vdW  Elec       q    Type
REMARK                         _______ _______ _______ _____ _____    ______ ____
ROOT
ATOM      1  C   UNL     1       6.914  -3.898  25.704  0.00  0.00    +0.176 C 
ATOM      2  C   UNL     1       6.715  -5.173  24.868  0.00  0.00    +0.176 C 
ATOM      3  C   UNL     1       7.658  -5.236  23.659  0.00  0.00    +0.177 C 
ATOM      4  C   UNL     1       7.583  -3.931  22.851  0.00  0.00    +0.184 C 
ATOM      5  C   UNL     1       7.783  -2.684  23.743  0.00  0.00    +0.207 C 
ATOM      6  O   UNL     1       6.974  -2.690  24.921  0.00  0.00    -0.355 OA
ENDROOT
BRANCH   2   7
ATOM      7  O   UNL     1       5.347  -5.221  24.429  0.00  0.00    -0.386 OA
ATOM      8  H   UNL     1       5.010  -6.122  24.625  0.00  0.00    +0.210 HD
ENDBRANCH   2   7
BRANCH   3   9
ATOM      9  O   UNL     1       8.985  -5.573  24.058  0.00  0.00    -0.386 OA
ATOM     10  H   UNL     1       9.631  -5.106  23.494  0.00  0.00    +0.210 HD
ENDBRANCH   3   9
BRANCH   4  11
ATOM     11  O   UNL     1       6.276  -3.864  22.237  0.00  0.00    -0.386 OA
ATOM     12  H   UNL     1       6.266  -3.083  21.653  0.00  0.00    +0.210 HD
ENDBRANCH   4  11
BRANCH   1  13
ATOM     13  C   UNL     1       8.081  -4.006  26.703  0.00  0.00    +0.190 C 
BRANCH  13  14
ATOM     14  O   UNL     1       8.330  -5.365  27.070  0.00  0.00    -0.392 OA
ATOM     15  H   UNL     1       7.868  -5.938  26.434  0.00  0.00    +0.210 HD
ENDBRANCH  13  14
ENDBRANCH   1  13
BRANCH   5  16
ATOM     16  S   UNL     1       9.544  -2.331  24.062  0.00  0.00    -0.127 S 
BRANCH  16  17
ATOM     17  C   UNL     1       9.399  -0.580  24.566  0.00  0.00    +0.072 C 
BRANCH  17  18
ATOM     18  C   UNL     1      10.413   0.266  23.796  0.00  0.00    +0.011 C 
BRANCH  18  19
ATOM     19  C   UNL     1      10.120   0.280  22.291  0.00  0.00    +0.001 C 
BRANCH  19  20
ATOM     20  C   UNL     1       9.773   1.694  21.812  0.00  0.00    +0.000 C 
BRANCH  20  21
ATOM     21  C   UNL     1       8.262   1.898  21.679  0.00  0.00    -0.000 C 
BRANCH  21  22
ATOM     22  C   UNL     1       7.796   3.132  22.459  0.00  0.00    -0.000 C 
BRANCH  22  23
ATOM     23  C   UNL     1       7.576   2.810  23.937  0.00  0.00    -0.003 C 
ATOM     24  C   UNL     1       8.647   3.441  24.814  0.00  0.00    +0.004 C 
ENDBRANCH  22  23
ENDBRANCH  21  22
ENDBRANCH  20  21
ENDBRANCH  19  20
ENDBRANCH  18  19
ENDBRANCH  17  18
ENDBRANCH  16  17
ENDBRANCH   5  16
TORSDOF 13
ENDMDL
MODEL 9
REMARK VINA RESULT:      -4.8      1.807      3.342
REMARK  Name = 
REMARK  14 active torsions:
REMARK  status: ('A' for Active; 'I' for Inactive)
REMARK    1  A    between atoms: C_2  and  C_3
REMARK    2  A    between atoms: C_3  and  O_4
REMARK    3  A    between atoms: C_6  and  S_8
REMARK    4  A    between atoms: S_8  and  C_9
REMARK    5  A    between atoms: C_9  and  C_10
REMARK    6  A    between atoms: C_10  and  C_11
REMARK    7  A    between atoms: C_11  and  C_12
REMARK    8  A    between atoms: C_12  and  C_13
REMARK    9  A    between atoms: C_13  and  C_14
REMARK   10  A    between atoms: C_14  and  C_15
REMARK   11  A    between atoms: C_15  and  C_16
REMARK   12  A    between atoms: C_17  and  O_19
REMARK   13  A    between atoms: C_20  and  O_22
REMARK   14  A    between atoms: C_23  and  O_25
REMARK                            x       y       z     vdW  Elec       q    Type
REMARK                         _______ _______ _______ _____ _____    ______ ____
ROOT
ATOM      1  C   UNL     1       5.557  -5.233  24.604  0.00  0.00    +0.176 C 
ATOM      2  C   UNL     1       5.796  -5.101  26.117  0.00  0.00    +0.176 C 
ATOM      3  C   UNL     1       7.000  -4.209  26.447  0.00  0.00    +0.177 C 
ATOM      4  C   UNL     1       8.234  -4.655  25.646  0.00  0.00    +0.184 C 
ATOM      5  C   UNL     1       7.933  -4.776  24.134  0.00  0.00    +0.207 C 
ATOM      6  O   UNL     1       6.749  -5.522  23.847  0.00  0.00    -0.355 OA
ENDROOT
BRANCH   2   7
ATOM      7  O   UNL     1       5.994  -6.416  26.663  0.00  0.00    -0.386 OA
ATOM      8  H   UNL     1       5.165  -6.668  27.124  0.00  0.00    +0.210 HD
ENDBRANCH   2   7
BRANCH   3   9
ATOM      9  O   UNL     1       6.683  -2.830  26.265  0.00  0.00    -0.386 OA
ATOM     10  H   UNL     1       7.240  -2.451  25.559  0.00  0.00    +0.210 HD
ENDBRANCH   3   9
BRANCH   4  11
ATOM     11  O   UNL     1       8.645  -5.947  26.148  0.00  0.00    -0.386 OA
ATOM     12  H   UNL     1       9.138  -5.796  26.976  0.00  0.00    +0.210 HD
ENDBRANCH   4  11
BRANCH   1  13
ATOM     13  C   UNL     1       4.761  -4.054  24.014  0.00  0.00    +0.190 C 
BRANCH  13  14
ATOM     14  O   UNL     1       4.553  -4.215  22.608  0.00  0.00    -0.392 OA
ATOM     15  H   UNL     1       3.920  -3.536  22.317  0.00  0.00    +0.210 HD
ENDBRANCH  13  14
ENDBRANCH   1  13
BRANCH   5  16
ATOM     16  S   UNL     1       8.015  -3.168  23.277  0.00  0.00    -0.127 S 
BRANCH  16  17
ATOM     17  C   UNL     1       9.564  -2.532  24.010  0.00  0.00    +0.072 C 
BRANCH  17  18
ATOM     18  C   UNL     1      10.397  -1.834  22.934  0.00  0.00    +0.011 C 
BRANCH  18  19
ATOM     19  C   UNL     1      10.386  -0.309  23.103  0.00  0.00    +0.001 C 
BRANCH  19  20
ATOM     20  C   UNL     1       9.774   0.374  21.875  0.00  0.00    +0.000 C 
BRANCH  20  21
ATOM     21  C   UNL     1       9.863   1.900  21.966  0.00  0.00    -0.000 C 
BRANCH  21  22
ATOM     22  C   UNL     1       9.297   2.412  23.294  0.00  0.00    -0.000 C 
BRANCH  22  23
ATOM     23  C   UNL     1       9.909   3.759  23.682  0.00  0.00    -0.003 C 
ATOM     24  C   UNL     1      11.404   3.795  23.404  0.00  0.00    +0.004 C 
ENDBRANCH  22  23
ENDBRANCH  21  22
ENDBRANCH  20  21
ENDBRANCH  19  20
ENDBRANCH  18  19
ENDBRANCH  17  18
ENDBRANCH  16  17
ENDBRANCH   5  16
TORSDOF 13
ENDMDL
