MODEL 1
REMARK VINA RESULT:      -7.6      0.000      0.000
REMARK  Name = 
REMARK  14 active torsions:
REMARK  status: ('A' for Active; 'I' for Inactive)
REMARK    1  A    between atoms: C_2  and  N_3
REMARK    2  A    between atoms: C_2  and  C_4
REMARK    3  A    between atoms: C_2  and  C_13
REMARK    4  A    between atoms: C_4  and  C_5
REMARK    5  A    between atoms: C_8  and  O_9
REMARK    6  A    between atoms: O_9  and  C_10
REMARK    7  A    between atoms: N_15  and  C_16
REMARK    8  A    between atoms: C_18  and  C_20
REMARK    9  A    between atoms: C_20  and  O_21
REMARK   10  A    between atoms: C_23  and  N_25
REMARK   11  A    between atoms: C_29  and  N_34
REMARK   12  A    between atoms: N_34  and  C_35
REMARK   13  A    between atoms: N_34  and  C_36
REMARK   14  A    between atoms: C_37  and  O_39
REMARK                            x       y       z     vdW  Elec       q    Type
REMARK                         _______ _______ _______ _____ _____    ______ ____
ROOT
ATOM      1  C   UNL     1       6.986  -1.958  22.767  0.00  0.00    +0.137 C 
ATOM      2  C   UNL     1       6.781  -0.606  23.466  0.00  0.00    +0.187 C 
ATOM      3  C   UNL     1       8.009  -0.441  24.383  0.00  0.00    +0.253 C 
ATOM      4  O   UNL     1       8.889  -1.557  24.119  0.00  0.00    -0.346 OA
ATOM      5  C   UNL     1       8.503  -2.156  22.865  0.00  0.00    +0.169 C 
ENDROOT
BRANCH   3   6
ATOM      6  N   UNL     1       8.777   0.790  24.252  0.00  0.00    -0.286 N 
ATOM      7  C   UNL     1       8.301   2.076  24.190  0.00  0.00    +0.167 A 
ATOM      8  C   UNL     1       9.428   2.888  24.185  0.00  0.00    +0.148 A 
ATOM      9  C   UNL     1       9.230   4.293  24.139  0.00  0.00    +0.152 A 
ATOM     10  N   UNL     1       7.927   4.715  24.107  0.00  0.00    -0.218 NA
ATOM     11  C   UNL     1       6.928   3.807  24.114  0.00  0.00    +0.225 A 
ATOM     12  N   UNL     1      10.568   2.110  24.274  0.00  0.00    -0.231 NA
ATOM     13  N   UNL     1       7.019   2.465  24.159  0.00  0.00    -0.216 NA
ATOM     14  C   UNL     1      10.143   0.868  24.332  0.00  0.00    +0.203 A 
BRANCH   9  15
ATOM     15  N   UNL     1      10.252   5.235  24.195  0.00  0.00    -0.319 N 
ATOM     16  C   UNL     1      10.005   6.520  24.828  0.00  0.00    +0.130 C 
ATOM     17  C   UNL     1      11.368   5.175  23.263  0.00  0.00    +0.130 C 
ENDBRANCH   9  15
ENDBRANCH   3   6
BRANCH   1  19
ATOM     18  C   UNL     1       5.312  -3.817  22.749  0.00  0.00    +0.231 C 
ATOM     19  N   UNL     1       6.175  -2.990  23.445  0.00  0.00    -0.306 N 
ATOM     20  H   UNL     1       5.812  -2.673  24.337  0.00  0.00    +0.149 HD
ATOM     21  O   UNL     1       5.315  -3.902  21.522  0.00  0.00    -0.274 OA
BRANCH  18  22
ATOM     22  C   UNL     1       4.424  -4.731  23.633  0.00  0.00    +0.142 C 
BRANCH  22  23
ATOM     23  N   UNL     1       3.201  -5.087  22.871  0.00  0.00    -0.320 NA
ATOM     24  H   UNL     1       2.884  -6.002  23.198  0.00  0.00    +0.119 HD
ATOM     25  H   UNL     1       2.454  -4.438  23.112  0.00  0.00    +0.119 HD
ENDBRANCH  22  23
BRANCH  22  26
ATOM     26  C   UNL     1       5.126  -6.013  24.122  0.00  0.00    +0.063 C 
BRANCH  26  27
ATOM     27  C   UNL     1       5.511  -6.037  25.585  0.00  0.00    -0.045 A 
ATOM     28  C   UNL     1       6.692  -5.401  25.998  0.00  0.00    +0.007 A 
ATOM     29  C   UNL     1       7.065  -5.382  27.348  0.00  0.00    +0.046 A 
ATOM     30  C   UNL     1       6.265  -6.007  28.302  0.00  0.00    +0.120 A 
ATOM     31  C   UNL     1       5.108  -6.667  27.894  0.00  0.00    +0.046 A 
ATOM     32  C   UNL     1       4.743  -6.703  26.546  0.00  0.00    +0.007 A 
BRANCH  30  33
ATOM     33  O   UNL     1       6.482  -5.997  29.651  0.00  0.00    -0.495 OA
ATOM     34  C   UNL     1       5.328  -5.870  30.472  0.00  0.00    +0.277 C 
ENDBRANCH  30  33
ENDBRANCH  26  27
ENDBRANCH  22  26
ENDBRANCH  18  22
ENDBRANCH   1  19
BRANCH   2  35
ATOM     35  O   UNL     1       5.541  -0.615  24.207  0.00  0.00    -0.385 OA
ATOM     36  H   UNL     1       5.066  -1.436  23.979  0.00  0.00    +0.210 HD
ENDBRANCH   2  35
BRANCH   5  37
ATOM     37  C   UNL     1       9.284  -1.484  21.719  0.00  0.00    +0.189 C 
BRANCH  37  38
ATOM     38  O   UNL     1      10.684  -1.678  21.837  0.00  0.00    -0.392 OA
ATOM     39  H   UNL     1      10.833  -2.374  22.503  0.00  0.00    +0.210 HD
ENDBRANCH  37  38
ENDBRANCH   5  37
TORSDOF 11
ENDMDL
MODEL 2
REMARK VINA RESULT:      -7.2      2.801      8.845
REMARK  Name = 
REMARK  14 active torsions:
REMARK  status: ('A' for Active; 'I' for Inactive)
REMARK    1  A    between atoms: C_2  and  N_3
REMARK    2  A    between atoms: C_2  and  C_4
REMARK    3  A    between atoms: C_2  and  C_13
REMARK    4  A    between atoms: C_4  and  C_5
REMARK    5  A    between atoms: C_8  and  O_9
REMARK    6  A    between atoms: O_9  and  C_10
REMARK    7  A    between atoms: N_15  and  C_16
REMARK    8  A    between atoms: C_18  and  C_20
REMARK    9  A    between atoms: C_20  and  O_21
REMARK   10  A    between atoms: C_23  and  N_25
REMARK   11  A    between atoms: C_29  and  N_34
REMARK   12  A    between atoms: N_34  and  C_35
REMARK   13  A    between atoms: N_34  and  C_36
REMARK   14  A    between atoms: C_37  and  O_39
REMARK                            x       y       z     vdW  Elec       q    Type
REMARK                         _______ _______ _______ _____ _____    ______ ____
ROOT
ATOM      1  C   UNL     1       8.527  -0.900  23.988  0.00  0.00    +0.137 C 
ATOM      2  C   UNL     1       7.085  -1.100  23.497  0.00  0.00    +0.187 C 
ATOM      3  C   UNL     1       7.182  -2.186  22.407  0.00  0.00    +0.253 C 
ATOM      4  O   UNL     1       8.553  -2.642  22.383  0.00  0.00    -0.346 OA
ATOM      5  C   UNL     1       9.195  -2.226  23.606  0.00  0.00    +0.169 C 
ENDROOT
BRANCH   3   6
ATOM      6  N   UNL     1       6.315  -3.348  22.547  0.00  0.00    -0.286 N 
ATOM      7  C   UNL     1       5.318  -3.548  23.469  0.00  0.00    +0.167 A 
ATOM      8  C   UNL     1       4.718  -4.748  23.111  0.00  0.00    +0.148 A 
ATOM      9  C   UNL     1       3.626  -5.202  23.897  0.00  0.00    +0.152 A 
ATOM     10  N   UNL     1       3.267  -4.397  24.947  0.00  0.00    -0.218 NA
ATOM     11  C   UNL     1       3.947  -3.253  25.178  0.00  0.00    +0.225 A 
ATOM     12  N   UNL     1       5.318  -5.253  21.972  0.00  0.00    -0.231 NA
ATOM     13  N   UNL     1       4.984  -2.745  24.489  0.00  0.00    -0.216 NA
ATOM     14  C   UNL     1       6.251  -4.384  21.652  0.00  0.00    +0.203 A 
BRANCH   9  15
ATOM     15  N   UNL     1       2.883  -6.346  23.628  0.00  0.00    -0.319 N 
ATOM     16  C   UNL     1       1.676  -6.240  22.824  0.00  0.00    +0.130 C 
ATOM     17  C   UNL     1       2.993  -7.521  24.479  0.00  0.00    +0.130 C 
ENDBRANCH   9  15
ENDBRANCH   3   6
BRANCH   1  19
ATOM     18  C   UNL     1      10.100   1.045  23.946  0.00  0.00    +0.231 C 
ATOM     19  N   UNL     1       9.103   0.299  23.344  0.00  0.00    -0.306 N 
ATOM     20  H   UNL     1       8.403   0.855  22.866  0.00  0.00    +0.149 HD
ATOM     21  O   UNL     1      10.719   0.655  24.934  0.00  0.00    -0.274 OA
BRANCH  18  22
ATOM     22  C   UNL     1      10.475   2.356  23.207  0.00  0.00    +0.142 C 
BRANCH  22  23
ATOM     23  N   UNL     1      10.193   2.184  21.760  0.00  0.00    -0.320 NA
ATOM     24  H   UNL     1       9.210   2.416  21.602  0.00  0.00    +0.119 HD
ATOM     25  H   UNL     1      10.724   2.872  21.230  0.00  0.00    +0.119 HD
ENDBRANCH  22  23
BRANCH  22  26
ATOM     26  C   UNL     1       9.748   3.609  23.735  0.00  0.00    +0.063 C 
BRANCH  26  27
ATOM     27  C   UNL     1       8.237   3.547  23.729  0.00  0.00    -0.045 A 
ATOM     28  C   UNL     1       7.540   3.808  22.539  0.00  0.00    +0.007 A 
ATOM     29  C   UNL     1       6.143   3.733  22.491  0.00  0.00    +0.046 A 
ATOM     30  C   UNL     1       5.422   3.405  23.637  0.00  0.00    +0.120 A 
ATOM     31  C   UNL     1       6.106   3.175  24.829  0.00  0.00    +0.046 A 
ATOM     32  C   UNL     1       7.499   3.267  24.884  0.00  0.00    +0.007 A 
BRANCH  30  33
ATOM     33  O   UNL     1       4.068   3.231  23.703  0.00  0.00    -0.495 OA
ATOM     34  C   UNL     1       3.357   3.361  22.479  0.00  0.00    +0.277 C 
ENDBRANCH  30  33
ENDBRANCH  26  27
ENDBRANCH  22  26
ENDBRANCH  18  22
ENDBRANCH   1  19
BRANCH   2  35
ATOM     35  O   UNL     1       6.559   0.144  22.985  0.00  0.00    -0.385 OA
ATOM     36  H   UNL     1       7.208   0.500  22.349  0.00  0.00    +0.210 HD
ENDBRANCH   2  35
BRANCH   5  37
ATOM     37  C   UNL     1       9.023  -3.327  24.670  0.00  0.00    +0.189 C 
BRANCH  37  38
ATOM     38  O   UNL     1       9.068  -4.628  24.110  0.00  0.00    -0.392 OA
ATOM     39  H   UNL     1       8.824  -4.556  23.168  0.00  0.00    +0.210 HD
ENDBRANCH  37  38
ENDBRANCH   5  37
TORSDOF 11
ENDMDL
MODEL 3
REMARK VINA RESULT:      -7.2      2.130      3.323
REMARK  Name = 
REMARK  14 active torsions:
REMARK  status: ('A' for Active; 'I' for Inactive)
REMARK    1  A    between atoms: C_2  and  N_3
REMARK    2  A    between atoms: C_2  and  C_4
REMARK    3  A    between atoms: C_2  and  C_13
REMARK    4  A    between atoms: C_4  and  C_5
REMARK    5  A    between atoms: C_8  and  O_9
REMARK    6  A    between atoms: O_9  and  C_10
REMARK    7  A    between atoms: N_15  and  C_16
REMARK    8  A    between atoms: C_18  and  C_20
REMARK    9  A    between atoms: C_20  and  O_21
REMARK   10  A    between atoms: C_23  and  N_25
REMARK   11  A    between atoms: C_29  and  N_34
REMARK   12  A    between atoms: N_34  and  C_35
REMARK   13  A    between atoms: N_34  and  C_36
REMARK   14  A    between atoms: C_37  and  O_39
REMARK                            x       y       z     vdW  Elec       q    Type
REMARK                         _______ _______ _______ _____ _____    ______ ____
ROOT
ATOM      1  C   UNL     1       7.824  -2.250  24.227  0.00  0.00    +0.137 C 
ATOM      2  C   UNL     1       7.679  -0.883  24.912  0.00  0.00    +0.187 C 
ATOM      3  C   UNL     1       9.118  -0.345  25.036  0.00  0.00    +0.253 C 
ATOM      4  O   UNL     1       9.982  -1.284  24.359  0.00  0.00    -0.346 OA
ATOM      5  C   UNL     1       9.172  -2.120  23.508  0.00  0.00    +0.169 C 
ENDROOT
BRANCH   3   6
ATOM      6  N   UNL     1       9.379   0.986  24.502  0.00  0.00    -0.286 N 
ATOM      7  C   UNL     1       8.775   2.167  24.854  0.00  0.00    +0.167 A 
ATOM      8  C   UNL     1       9.451   3.153  24.149  0.00  0.00    +0.148 A 
ATOM      9  C   UNL     1       9.040   4.499  24.335  0.00  0.00    +0.152 A 
ATOM     10  N   UNL     1       8.001   4.694  25.207  0.00  0.00    -0.218 NA
ATOM     11  C   UNL     1       7.435   3.634  25.823  0.00  0.00    +0.225 A 
ATOM     12  N   UNL     1      10.469   2.585  23.406  0.00  0.00    -0.231 NA
ATOM     13  N   UNL     1       7.758   2.333  25.711  0.00  0.00    -0.216 NA
ATOM     14  C   UNL     1      10.411   1.296  23.655  0.00  0.00    +0.203 A 
BRANCH   9  15
ATOM     15  N   UNL     1       9.658   5.600  23.752  0.00  0.00    -0.319 N 
ATOM     16  C   UNL     1      11.076   5.827  23.982  0.00  0.00    +0.130 C 
ATOM     17  C   UNL     1       8.878   6.752  23.328  0.00  0.00    +0.130 C 
ENDBRANCH   9  15
ENDBRANCH   3   6
BRANCH   1  19
ATOM     18  C   UNL     1       7.634  -4.652  24.898  0.00  0.00    +0.231 C 
ATOM     19  N   UNL     1       7.758  -3.319  25.244  0.00  0.00    -0.306 N 
ATOM     20  H   UNL     1       7.208  -3.051  26.053  0.00  0.00    +0.149 HD
ATOM     21  O   UNL     1       7.785  -5.059  23.748  0.00  0.00    -0.274 OA
BRANCH  18  22
ATOM     22  C   UNL     1       7.419  -5.622  26.089  0.00  0.00    +0.142 C 
BRANCH  22  23
ATOM     23  N   UNL     1       8.385  -5.279  27.163  0.00  0.00    -0.320 NA
ATOM     24  H   UNL     1       7.873  -4.791  27.901  0.00  0.00    +0.119 HD
ATOM     25  H   UNL     1       8.730  -6.136  27.591  0.00  0.00    +0.119 HD
ENDBRANCH  22  23
BRANCH  22  26
ATOM     26  C   UNL     1       5.985  -5.619  26.657  0.00  0.00    +0.063 C 
BRANCH  26  27
ATOM     27  C   UNL     1       4.872  -5.556  25.634  0.00  0.00    -0.045 A 
ATOM     28  C   UNL     1       4.045  -4.424  25.582  0.00  0.00    +0.007 A 
ATOM     29  C   UNL     1       3.022  -4.322  24.631  0.00  0.00    +0.046 A 
ATOM     30  C   UNL     1       2.806  -5.358  23.725  0.00  0.00    +0.120 A 
ATOM     31  C   UNL     1       3.604  -6.498  23.791  0.00  0.00    +0.046 A 
ATOM     32  C   UNL     1       4.614  -6.610  24.750  0.00  0.00    +0.007 A 
BRANCH  30  33
ATOM     33  O   UNL     1       1.892  -5.348  22.709  0.00  0.00    -0.495 OA
ATOM     34  C   UNL     1       1.013  -6.462  22.644  0.00  0.00    +0.277 C 
ENDBRANCH  30  33
ENDBRANCH  26  27
ENDBRANCH  22  26
ENDBRANCH  18  22
ENDBRANCH   1  19
BRANCH   2  35
ATOM     35  O   UNL     1       7.040  -1.039  26.198  0.00  0.00    -0.385 OA
ATOM     36  H   UNL     1       7.101  -0.185  26.664  0.00  0.00    +0.210 HD
ENDBRANCH   2  35
BRANCH   5  37
ATOM     37  C   UNL     1       9.063  -1.472  22.114  0.00  0.00    +0.189 C 
BRANCH  37  38
ATOM     38  O   UNL     1      10.303  -1.464  21.427  0.00  0.00    -0.392 OA
ATOM     39  H   UNL     1      10.117  -1.323  20.479  0.00  0.00    +0.210 HD
ENDBRANCH  37  38
ENDBRANCH   5  37
TORSDOF 11
ENDMDL
MODEL 4
REMARK VINA RESULT:      -7.2      2.825      9.860
REMARK  Name = 
REMARK  14 active torsions:
REMARK  status: ('A' for Active; 'I' for Inactive)
REMARK    1  A    between atoms: C_2  and  N_3
REMARK    2  A    between atoms: C_2  and  C_4
REMARK    3  A    between atoms: C_2  and  C_13
REMARK    4  A    between atoms: C_4  and  C_5
REMARK    5  A    between atoms: C_8  and  O_9
REMARK    6  A    between atoms: O_9  and  C_10
REMARK    7  A    between atoms: N_15  and  C_16
REMARK    8  A    between atoms: C_18  and  C_20
REMARK    9  A    between atoms: C_20  and  O_21
REMARK   10  A    between atoms: C_23  and  N_25
REMARK   11  A    between atoms: C_29  and  N_34
REMARK   12  A    between atoms: N_34  and  C_35
REMARK   13  A    between atoms: N_34  and  C_36
REMARK   14  A    between atoms: C_37  and  O_39
REMARK                            x       y       z     vdW  Elec       q    Type
REMARK                         _______ _______ _______ _____ _____    ______ ____
ROOT
ATOM      1  C   UNL     1       7.501  -2.587  24.635  0.00  0.00    +0.137 C 
ATOM      2  C   UNL     1       6.123  -3.032  24.123  0.00  0.00    +0.187 C 
ATOM      3  C   UNL     1       6.246  -4.557  23.923  0.00  0.00    +0.253 C 
ATOM      4  O   UNL     1       7.552  -4.943  24.406  0.00  0.00    -0.346 OA
ATOM      5  C   UNL     1       8.068  -3.879  25.232  0.00  0.00    +0.169 C 
ENDROOT
BRANCH   3   6
ATOM      6  N   UNL     1       5.249  -5.395  24.575  0.00  0.00    -0.286 N 
ATOM      7  C   UNL     1       3.951  -5.615  24.186  0.00  0.00    +0.167 A 
ATOM      8  C   UNL     1       3.459  -6.572  25.063  0.00  0.00    +0.148 A 
ATOM      9  C   UNL     1       2.120  -7.008  24.884  0.00  0.00    +0.152 A 
ATOM     10  N   UNL     1       1.436  -6.433  23.844  0.00  0.00    -0.218 NA
ATOM     11  C   UNL     1       2.045  -5.509  23.071  0.00  0.00    +0.225 A 
ATOM     12  N   UNL     1       4.450  -6.951  25.950  0.00  0.00    -0.231 NA
ATOM     13  N   UNL     1       3.303  -5.040  23.164  0.00  0.00    -0.216 NA
ATOM     14  C   UNL     1       5.508  -6.245  25.618  0.00  0.00    +0.203 A 
BRANCH   9  15
ATOM     15  N   UNL     1       1.507  -8.004  25.637  0.00  0.00    -0.319 N 
ATOM     16  C   UNL     1       1.065  -9.224  24.982  0.00  0.00    +0.130 C 
ATOM     17  C   UNL     1       0.884  -7.692  26.914  0.00  0.00    +0.130 C 
ENDBRANCH   9  15
ENDBRANCH   3   6
BRANCH   1  19
ATOM     18  C   UNL     1       9.209  -1.012  23.706  0.00  0.00    +0.231 C 
ATOM     19  N   UNL     1       8.281  -2.020  23.515  0.00  0.00    -0.306 N 
ATOM     20  H   UNL     1       7.729  -1.917  22.671  0.00  0.00    +0.149 HD
ATOM     21  O   UNL     1       9.603  -0.671  24.819  0.00  0.00    -0.274 OA
BRANCH  18  22
ATOM     22  C   UNL     1       9.818  -0.427  22.405  0.00  0.00    +0.142 C 
BRANCH  22  23
ATOM     23  N   UNL     1      10.128  -1.545  21.480  0.00  0.00    -0.320 NA
ATOM     24  H   UNL     1      11.067  -1.884  21.701  0.00  0.00    +0.119 HD
ATOM     25  H   UNL     1       9.504  -2.326  21.675  0.00  0.00    +0.119 HD
ENDBRANCH  22  23
BRANCH  22  26
ATOM     26  C   UNL     1       8.920   0.606  21.694  0.00  0.00    +0.063 C 
BRANCH  26  27
ATOM     27  C   UNL     1       8.824   1.962  22.356  0.00  0.00    -0.045 A 
ATOM     28  C   UNL     1       7.664   2.733  22.186  0.00  0.00    +0.007 A 
ATOM     29  C   UNL     1       7.531   3.982  22.806  0.00  0.00    +0.046 A 
ATOM     30  C   UNL     1       8.563   4.481  23.597  0.00  0.00    +0.120 A 
ATOM     31  C   UNL     1       9.730   3.735  23.745  0.00  0.00    +0.046 A 
ATOM     32  C   UNL     1       9.872   2.496  23.113  0.00  0.00    +0.007 A 
BRANCH  30  33
ATOM     33  O   UNL     1       8.527   5.647  24.309  0.00  0.00    -0.495 OA
ATOM     34  C   UNL     1       9.176   6.765  23.718  0.00  0.00    +0.277 C 
ENDBRANCH  30  33
ENDBRANCH  26  27
ENDBRANCH  22  26
ENDBRANCH  18  22
ENDBRANCH   1  19
BRANCH   2  35
ATOM     35  O   UNL     1       5.805  -2.344  22.894  0.00  0.00    -0.385 OA
ATOM     36  H   UNL     1       5.777  -1.388  23.089  0.00  0.00    +0.210 HD
ENDBRANCH   2  35
BRANCH   5  37
ATOM     37  C   UNL     1       7.641  -4.118  26.693  0.00  0.00    +0.189 C 
BRANCH  37  38
ATOM     38  O   UNL     1       8.301  -5.232  27.271  0.00  0.00    -0.392 OA
ATOM     39  H   UNL     1       8.676  -5.765  26.546  0.00  0.00    +0.210 HD
ENDBRANCH  37  38
ENDBRANCH   5  37
TORSDOF 11
ENDMDL
MODEL 5
REMARK VINA RESULT:      -7.0      2.213      2.774
REMARK  Name = 
REMARK  14 active torsions:
REMARK  status: ('A' for Active; 'I' for Inactive)
REMARK    1  A    between atoms: C_2  and  N_3
REMARK    2  A    between atoms: C_2  and  C_4
REMARK    3  A    between atoms: C_2  and  C_13
REMARK    4  A    between atoms: C_4  and  C_5
REMARK    5  A    between atoms: C_8  and  O_9
REMARK    6  A    between atoms: O_9  and  C_10
REMARK    7  A    between atoms: N_15  and  C_16
REMARK    8  A    between atoms: C_18  and  C_20
REMARK    9  A    between atoms: C_20  and  O_21
REMARK   10  A    between atoms: C_23  and  N_25
REMARK   11  A    between atoms: C_29  and  N_34
REMARK   12  A    between atoms: N_34  and  C_35
REMARK   13  A    between atoms: N_34  and  C_36
REMARK   14  A    between atoms: C_37  and  O_39
REMARK                            x       y       z     vdW  Elec       q    Type
REMARK                         _______ _______ _______ _____ _____    ______ ____
ROOT
ATOM      1  C   UNL     1       8.871  -1.681  23.714  0.00  0.00    +0.137 C 
ATOM      2  C   UNL     1       8.356  -0.541  24.603  0.00  0.00    +0.187 C 
ATOM      3  C   UNL     1       9.585   0.355  24.855  0.00  0.00    +0.253 C 
ATOM      4  O   UNL     1      10.669  -0.180  24.063  0.00  0.00    -0.346 OA
ATOM      5  C   UNL     1      10.115  -1.062  23.066  0.00  0.00    +0.169 C 
ENDROOT
BRANCH   3   6
ATOM      6  N   UNL     1       9.450   1.773  24.548  0.00  0.00    -0.286 N 
ATOM      7  C   UNL     1       8.538   2.661  25.062  0.00  0.00    +0.167 A 
ATOM      8  C   UNL     1       8.897   3.899  24.545  0.00  0.00    +0.148 A 
ATOM      9  C   UNL     1       8.121   5.025  24.928  0.00  0.00    +0.152 A 
ATOM     10  N   UNL     1       7.081   4.774  25.784  0.00  0.00    -0.218 NA
ATOM     11  C   UNL     1       6.848   3.513  26.204  0.00  0.00    +0.225 A 
ATOM     12  N   UNL     1      10.025   3.771  23.757  0.00  0.00    -0.231 NA
ATOM     13  N   UNL     1       7.527   2.392  25.899  0.00  0.00    -0.216 NA
ATOM     14  C   UNL     1      10.339   2.495  23.796  0.00  0.00    +0.203 A 
BRANCH   9  15
ATOM     15  N   UNL     1       8.393   6.335  24.548  0.00  0.00    -0.319 N 
ATOM     16  C   UNL     1       8.022   6.784  23.216  0.00  0.00    +0.130 C 
ATOM     17  C   UNL     1       9.420   7.108  25.230  0.00  0.00    +0.130 C 
ENDBRANCH   9  15
ENDBRANCH   3   6
BRANCH   1  19
ATOM     18  C   UNL     1       8.596  -4.113  24.232  0.00  0.00    +0.231 C 
ATOM     19  N   UNL     1       9.128  -2.876  24.546  0.00  0.00    -0.306 N 
ATOM     20  H   UNL     1       9.125  -2.664  25.537  0.00  0.00    +0.149 HD
ATOM     21  O   UNL     1       8.065  -4.357  23.151  0.00  0.00    -0.274 OA
BRANCH  18  22
ATOM     22  C   UNL     1       8.834  -5.217  25.296  0.00  0.00    +0.142 C 
BRANCH  22  23
ATOM     23  N   UNL     1      10.293  -5.463  25.409  0.00  0.00    -0.320 NA
ATOM     24  H   UNL     1      10.772  -4.567  25.293  0.00  0.00    +0.119 HD
ATOM     25  H   UNL     1      10.511  -5.767  26.356  0.00  0.00    +0.119 HD
ENDBRANCH  22  23
BRANCH  22  26
ATOM     26  C   UNL     1       8.250  -4.891  26.686  0.00  0.00    +0.063 C 
BRANCH  26  27
ATOM     27  C   UNL     1       6.869  -5.441  26.966  0.00  0.00    -0.045 A 
ATOM     28  C   UNL     1       5.994  -5.686  25.898  0.00  0.00    +0.007 A 
ATOM     29  C   UNL     1       4.718  -6.219  26.119  0.00  0.00    +0.046 A 
ATOM     30  C   UNL     1       4.296  -6.504  27.415  0.00  0.00    +0.120 A 
ATOM     31  C   UNL     1       5.149  -6.234  28.484  0.00  0.00    +0.046 A 
ATOM     32  C   UNL     1       6.416  -5.686  28.267  0.00  0.00    +0.007 A 
BRANCH  30  33
ATOM     33  O   UNL     1       3.109  -7.089  27.755  0.00  0.00    -0.495 OA
ATOM     34  C   UNL     1       2.655  -6.866  29.083  0.00  0.00    +0.277 C 
ENDBRANCH  30  33
ENDBRANCH  26  27
ENDBRANCH  22  26
ENDBRANCH  18  22
ENDBRANCH   1  19
BRANCH   2  35
ATOM     35  O   UNL     1       7.809  -1.076  25.828  0.00  0.00    -0.385 OA
ATOM     36  H   UNL     1       7.043  -0.525  26.075  0.00  0.00    +0.210 HD
ENDBRANCH   2  35
BRANCH   5  37
ATOM     37  C   UNL     1       9.804  -0.255  21.790  0.00  0.00    +0.189 C 
BRANCH  37  38
ATOM     38  O   UNL     1       9.386  -1.083  20.719  0.00  0.00    -0.392 OA
ATOM     39  H   UNL     1       9.872  -0.805  19.920  0.00  0.00    +0.210 HD
ENDBRANCH  37  38
ENDBRANCH   5  37
TORSDOF 11
ENDMDL
MODEL 6
REMARK VINA RESULT:      -6.9      2.910      9.653
REMARK  Name = 
REMARK  14 active torsions:
REMARK  status: ('A' for Active; 'I' for Inactive)
REMARK    1  A    between atoms: C_2  and  N_3
REMARK    2  A    between atoms: C_2  and  C_4
REMARK    3  A    between atoms: C_2  and  C_13
REMARK    4  A    between atoms: C_4  and  C_5
REMARK    5  A    between atoms: C_8  and  O_9
REMARK    6  A    between atoms: O_9  and  C_10
REMARK    7  A    between atoms: N_15  and  C_16
REMARK    8  A    between atoms: C_18  and  C_20
REMARK    9  A    between atoms: C_20  and  O_21
REMARK   10  A    between atoms: C_23  and  N_25
REMARK   11  A    between atoms: C_29  and  N_34
REMARK   12  A    between atoms: N_34  and  C_35
REMARK   13  A    between atoms: N_34  and  C_36
REMARK   14  A    between atoms: C_37  and  O_39
REMARK                            x       y       z     vdW  Elec       q    Type
REMARK                         _______ _______ _______ _____ _____    ______ ____
ROOT
ATOM      1  C   UNL     1       8.502  -2.582  25.144  0.00  0.00    +0.137 C 
ATOM      2  C   UNL     1       6.994  -2.305  25.236  0.00  0.00    +0.187 C 
ATOM      3  C   UNL     1       6.320  -3.626  24.814  0.00  0.00    +0.253 C 
ATOM      4  O   UNL     1       7.373  -4.597  24.623  0.00  0.00    -0.346 OA
ATOM      5  C   UNL     1       8.568  -4.108  25.265  0.00  0.00    +0.169 C 
ENDROOT
BRANCH   3   6
ATOM      6  N   UNL     1       5.335  -4.191  25.726  0.00  0.00    -0.286 N 
ATOM      7  C   UNL     1       4.626  -5.358  25.581  0.00  0.00    +0.167 A 
ATOM      8  C   UNL     1       3.913  -5.507  26.763  0.00  0.00    +0.148 A 
ATOM      9  C   UNL     1       3.090  -6.655  26.898  0.00  0.00    +0.152 A 
ATOM     10  N   UNL     1       3.083  -7.518  25.833  0.00  0.00    -0.218 NA
ATOM     11  C   UNL     1       3.828  -7.241  24.742  0.00  0.00    +0.225 A 
ATOM     12  N   UNL     1       4.207  -4.465  27.624  0.00  0.00    -0.231 NA
ATOM     13  N   UNL     1       4.635  -6.186  24.528  0.00  0.00    -0.216 NA
ATOM     14  C   UNL     1       5.071  -3.712  26.983  0.00  0.00    +0.203 A 
BRANCH   9  15
ATOM     15  N   UNL     1       2.368  -6.978  28.043  0.00  0.00    -0.319 N 
ATOM     16  C   UNL     1       0.944  -6.687  28.095  0.00  0.00    +0.130 C 
ATOM     17  C   UNL     1       3.041  -7.150  29.321  0.00  0.00    +0.130 C 
ENDBRANCH   9  15
ENDBRANCH   3   6
BRANCH   1  19
ATOM     18  C   UNL     1       9.794  -0.882  23.839  0.00  0.00    +0.231 C 
ATOM     19  N   UNL     1       9.026  -2.032  23.876  0.00  0.00    -0.306 N 
ATOM     20  H   UNL     1       8.358  -2.105  23.117  0.00  0.00    +0.149 HD
ATOM     21  O   UNL     1      10.270  -0.366  24.848  0.00  0.00    -0.274 OA
BRANCH  18  22
ATOM     22  C   UNL     1      10.124  -0.360  22.416  0.00  0.00    +0.142 C 
BRANCH  22  23
ATOM     23  N   UNL     1      10.200  -1.517  21.490  0.00  0.00    -0.320 NA
ATOM     24  H   UNL     1      11.187  -1.690  21.286  0.00  0.00    +0.119 HD
ATOM     25  H   UNL     1       9.870  -2.353  21.969  0.00  0.00    +0.119 HD
ENDBRANCH  22  23
BRANCH  22  26
ATOM     26  C   UNL     1       9.119   0.678  21.875  0.00  0.00    +0.063 C 
BRANCH  26  27
ATOM     27  C   UNL     1       9.174   2.046  22.518  0.00  0.00    -0.045 A 
ATOM     28  C   UNL     1       8.016   2.838  22.555  0.00  0.00    +0.007 A 
ATOM     29  C   UNL     1       8.025   4.098  23.165  0.00  0.00    +0.046 A 
ATOM     30  C   UNL     1       9.196   4.587  23.739  0.00  0.00    +0.120 A 
ATOM     31  C   UNL     1      10.357   3.819  23.679  0.00  0.00    +0.046 A 
ATOM     32  C   UNL     1      10.355   2.569  23.055  0.00  0.00    +0.007 A 
BRANCH  30  33
ATOM     33  O   UNL     1       9.315   5.765  24.423  0.00  0.00    -0.495 OA
ATOM     34  C   UNL     1      10.609   6.352  24.444  0.00  0.00    +0.277 C 
ENDBRANCH  30  33
ENDBRANCH  26  27
ENDBRANCH  22  26
ENDBRANCH  18  22
ENDBRANCH   1  19
BRANCH   2  35
ATOM     35  O   UNL     1       6.638  -1.207  24.368  0.00  0.00    -0.385 OA
ATOM     36  H   UNL     1       6.112  -1.571  23.632  0.00  0.00    +0.210 HD
ENDBRANCH   2  35
BRANCH   5  37
ATOM     37  C   UNL     1       8.602  -4.606  26.723  0.00  0.00    +0.189 C 
BRANCH  37  38
ATOM     38  O   UNL     1       8.128  -5.936  26.848  0.00  0.00    -0.392 OA
ATOM     39  H   UNL     1       7.211  -5.958  26.516  0.00  0.00    +0.210 HD
ENDBRANCH  37  38
ENDBRANCH   5  37
TORSDOF 11
ENDMDL
MODEL 7
REMARK VINA RESULT:      -6.9      2.516      8.730
REMARK  Name = 
REMARK  14 active torsions:
REMARK  status: ('A' for Active; 'I' for Inactive)
REMARK    1  A    between atoms: C_2  and  N_3
REMARK    2  A    between atoms: C_2  and  C_4
REMARK    3  A    between atoms: C_2  and  C_13
REMARK    4  A    between atoms: C_4  and  C_5
REMARK    5  A    between atoms: C_8  and  O_9
REMARK    6  A    between atoms: O_9  and  C_10
REMARK    7  A    between atoms: N_15  and  C_16
REMARK    8  A    between atoms: C_18  and  C_20
REMARK    9  A    between atoms: C_20  and  O_21
REMARK   10  A    between atoms: C_23  and  N_25
REMARK   11  A    between atoms: C_29  and  N_34
REMARK   12  A    between atoms: N_34  and  C_35
REMARK   13  A    between atoms: N_34  and  C_36
REMARK   14  A    between atoms: C_37  and  O_39
REMARK                            x       y       z     vdW  Elec       q    Type
REMARK                         _______ _______ _______ _____ _____    ______ ____
ROOT
ATOM      1  C   UNL     1       6.575   1.517  25.289  0.00  0.00    +0.137 C 
ATOM      2  C   UNL     1       6.198   0.272  24.472  0.00  0.00    +0.187 C 
ATOM      3  C   UNL     1       7.080  -0.859  25.038  0.00  0.00    +0.253 C 
ATOM      4  O   UNL     1       7.799  -0.312  26.165  0.00  0.00    -0.346 OA
ATOM      5  C   UNL     1       7.149   0.909  26.575  0.00  0.00    +0.169 C 
ENDROOT
BRANCH   3   6
ATOM      6  N   UNL     1       6.405  -2.075  25.470  0.00  0.00    -0.286 N 
ATOM      7  C   UNL     1       6.975  -3.230  25.945  0.00  0.00    +0.167 A 
ATOM      8  C   UNL     1       5.913  -4.038  26.326  0.00  0.00    +0.148 A 
ATOM      9  C   UNL     1       6.214  -5.311  26.877  0.00  0.00    +0.152 A 
ATOM     10  N   UNL     1       7.545  -5.620  26.981  0.00  0.00    -0.218 NA
ATOM     11  C   UNL     1       8.474  -4.733  26.566  0.00  0.00    +0.225 A 
ATOM     12  N   UNL     1       4.718  -3.374  26.115  0.00  0.00    -0.231 NA
ATOM     13  N   UNL     1       8.283  -3.510  26.038  0.00  0.00    -0.216 NA
ATOM     14  C   UNL     1       5.049  -2.201  25.624  0.00  0.00    +0.203 A 
BRANCH   9  15
ATOM     15  N   UNL     1       5.266  -6.204  27.364  0.00  0.00    -0.319 N 
ATOM     16  C   UNL     1       5.407  -6.732  28.711  0.00  0.00    +0.130 C 
ATOM     17  C   UNL     1       4.431  -6.972  26.452  0.00  0.00    +0.130 C 
ENDBRANCH   9  15
ENDBRANCH   3   6
BRANCH   1  19
ATOM     18  C   UNL     1       8.091   3.491  25.040  0.00  0.00    +0.231 C 
ATOM     19  N   UNL     1       7.520   2.347  24.514  0.00  0.00    -0.306 N 
ATOM     20  H   UNL     1       7.252   2.430  23.539  0.00  0.00    +0.149 HD
ATOM     21  O   UNL     1       8.029   3.779  26.234  0.00  0.00    -0.274 OA
BRANCH  18  22
ATOM     22  C   UNL     1       8.931   4.325  24.038  0.00  0.00    +0.142 C 
BRANCH  22  23
ATOM     23  N   UNL     1       9.139   5.681  24.603  0.00  0.00    -0.320 NA
ATOM     24  H   UNL     1      10.112   5.945  24.436  0.00  0.00    +0.119 HD
ATOM     25  H   UNL     1       8.580   6.353  24.079  0.00  0.00    +0.119 HD
ENDBRANCH  22  23
BRANCH  22  26
ATOM     26  C   UNL     1      10.292   3.696  23.677  0.00  0.00    +0.063 C 
BRANCH  26  27
ATOM     27  C   UNL     1      10.260   2.236  23.282  0.00  0.00    -0.045 A 
ATOM     28  C   UNL     1      10.723   1.266  24.183  0.00  0.00    +0.007 A 
ATOM     29  C   UNL     1      10.683  -0.095  23.860  0.00  0.00    +0.046 A 
ATOM     30  C   UNL     1      10.187  -0.505  22.624  0.00  0.00    +0.120 A 
ATOM     31  C   UNL     1       9.753   0.455  21.712  0.00  0.00    +0.046 A 
ATOM     32  C   UNL     1       9.809   1.816  22.026  0.00  0.00    +0.007 A 
BRANCH  30  33
ATOM     33  O   UNL     1      10.030  -1.801  22.220  0.00  0.00    -0.495 OA
ATOM     34  C   UNL     1       8.699  -2.300  22.211  0.00  0.00    +0.277 C 
ENDBRANCH  30  33
ENDBRANCH  26  27
ENDBRANCH  22  26
ENDBRANCH  18  22
ENDBRANCH   1  19
BRANCH   2  35
ATOM     35  O   UNL     1       6.445   0.509  23.068  0.00  0.00    -0.385 OA
ATOM     36  H   UNL     1       7.406   0.434  22.920  0.00  0.00    +0.210 HD
ENDBRANCH   2  35
BRANCH   5  37
ATOM     37  C   UNL     1       6.075   0.583  27.631  0.00  0.00    +0.189 C 
BRANCH  37  38
ATOM     38  O   UNL     1       6.515   0.861  28.949  0.00  0.00    -0.392 OA
ATOM     39  H   UNL     1       6.121   1.711  29.222  0.00  0.00    +0.210 HD
ENDBRANCH  37  38
ENDBRANCH   5  37
TORSDOF 11
ENDMDL
MODEL 8
REMARK VINA RESULT:      -6.9      2.355      8.782
REMARK  Name = 
REMARK  14 active torsions:
REMARK  status: ('A' for Active; 'I' for Inactive)
REMARK    1  A    between atoms: C_2  and  N_3
REMARK    2  A    between atoms: C_2  and  C_4
REMARK    3  A    between atoms: C_2  and  C_13
REMARK    4  A    between atoms: C_4  and  C_5
REMARK    5  A    between atoms: C_8  and  O_9
REMARK    6  A    between atoms: O_9  and  C_10
REMARK    7  A    between atoms: N_15  and  C_16
REMARK    8  A    between atoms: C_18  and  C_20
REMARK    9  A    between atoms: C_20  and  O_21
REMARK   10  A    between atoms: C_23  and  N_25
REMARK   11  A    between atoms: C_29  and  N_34
REMARK   12  A    between atoms: N_34  and  C_35
REMARK   13  A    between atoms: N_34  and  C_36
REMARK   14  A    between atoms: C_37  and  O_39
REMARK                            x       y       z     vdW  Elec       q    Type
REMARK                         _______ _______ _______ _____ _____    ______ ____
ROOT
ATOM      1  C   UNL     1       9.686  -0.004  23.715  0.00  0.00    +0.137 C 
ATOM      2  C   UNL     1       9.105  -0.753  24.923  0.00  0.00    +0.187 C 
ATOM      3  C   UNL     1       7.583  -0.781  24.680  0.00  0.00    +0.253 C 
ATOM      4  O   UNL     1       7.351  -0.203  23.376  0.00  0.00    -0.346 OA
ATOM      5  C   UNL     1       8.598  -0.193  22.652  0.00  0.00    +0.169 C 
ENDROOT
BRANCH   3   6
ATOM      6  N   UNL     1       6.926  -2.080  24.730  0.00  0.00    -0.286 N 
ATOM      7  C   UNL     1       7.311  -3.192  25.436  0.00  0.00    +0.167 A 
ATOM      8  C   UNL     1       6.299  -4.123  25.244  0.00  0.00    +0.148 A 
ATOM      9  C   UNL     1       6.430  -5.384  25.883  0.00  0.00    +0.152 A 
ATOM     10  N   UNL     1       7.559  -5.558  26.640  0.00  0.00    -0.218 NA
ATOM     11  C   UNL     1       8.464  -4.561  26.735  0.00  0.00    +0.225 A 
ATOM     12  N   UNL     1       5.300  -3.576  24.460  0.00  0.00    -0.231 NA
ATOM     13  N   UNL     1       8.422  -3.340  26.171  0.00  0.00    -0.216 NA
ATOM     14  C   UNL     1       5.696  -2.352  24.189  0.00  0.00    +0.203 A 
BRANCH   9  15
ATOM     15  N   UNL     1       5.473  -6.392  25.841  0.00  0.00    -0.319 N 
ATOM     16  C   UNL     1       4.887  -6.767  24.564  0.00  0.00    +0.130 C 
ATOM     17  C   UNL     1       4.714  -6.747  27.030  0.00  0.00    +0.130 C 
ENDBRANCH   9  15
ENDBRANCH   3   6
BRANCH   1  19
ATOM     18  C   UNL     1      10.299   2.355  23.150  0.00  0.00    +0.231 C 
ATOM     19  N   UNL     1       9.958   1.399  24.090  0.00  0.00    -0.306 N 
ATOM     20  H   UNL     1      10.472   1.474  24.960  0.00  0.00    +0.149 HD
ATOM     21  O   UNL     1      10.193   2.167  21.940  0.00  0.00    -0.274 OA
BRANCH  18  22
ATOM     22  C   UNL     1      10.704   3.733  23.734  0.00  0.00    +0.142 C 
BRANCH  22  23
ATOM     23  N   UNL     1      11.880   4.241  22.985  0.00  0.00    -0.320 NA
ATOM     24  H   UNL     1      12.587   4.527  23.667  0.00  0.00    +0.119 HD
ATOM     25  H   UNL     1      12.301   3.475  22.462  0.00  0.00    +0.119 HD
ENDBRANCH  22  23
BRANCH  22  26
ATOM     26  C   UNL     1       9.577   4.785  23.713  0.00  0.00    +0.063 C 
BRANCH  26  27
ATOM     27  C   UNL     1       8.166   4.241  23.761  0.00  0.00    -0.045 A 
ATOM     28  C   UNL     1       7.383   4.251  22.597  0.00  0.00    +0.007 A 
ATOM     29  C   UNL     1       6.083   3.732  22.599  0.00  0.00    +0.046 A 
ATOM     30  C   UNL     1       5.545   3.203  23.771  0.00  0.00    +0.120 A 
ATOM     31  C   UNL     1       6.307   3.218  24.937  0.00  0.00    +0.046 A 
ATOM     32  C   UNL     1       7.598   3.752  24.941  0.00  0.00    +0.007 A 
BRANCH  30  33
ATOM     33  O   UNL     1       4.321   2.604  23.885  0.00  0.00    -0.495 OA
ATOM     34  C   UNL     1       3.223   3.304  23.315  0.00  0.00    +0.277 C 
ENDBRANCH  30  33
ENDBRANCH  26  27
ENDBRANCH  22  26
ENDBRANCH  18  22
ENDBRANCH   1  19
BRANCH   2  35
ATOM     35  O   UNL     1       9.452  -0.065  26.145  0.00  0.00    -0.385 OA
ATOM     36  H   UNL     1       8.657   0.409  26.453  0.00  0.00    +0.210 HD
ENDBRANCH   2  35
BRANCH   5  37
ATOM     37  C   UNL     1       8.736  -1.508  21.860  0.00  0.00    +0.189 C 
BRANCH  37  38
ATOM     38  O   UNL     1      10.077  -1.772  21.485  0.00  0.00    -0.392 OA
ATOM     39  H   UNL     1      10.631  -1.045  21.828  0.00  0.00    +0.210 HD
ENDBRANCH  37  38
ENDBRANCH   5  37
TORSDOF 11
ENDMDL
MODEL 9
REMARK VINA RESULT:      -6.8      2.798     10.065
REMARK  Name = 
REMARK  14 active torsions:
REMARK  status: ('A' for Active; 'I' for Inactive)
REMARK    1  A    between atoms: C_2  and  N_3
REMARK    2  A    between atoms: C_2  and  C_4
REMARK    3  A    between atoms: C_2  and  C_13
REMARK    4  A    between atoms: C_4  and  C_5
REMARK    5  A    between atoms: C_8  and  O_9
REMARK    6  A    between atoms: O_9  and  C_10
REMARK    7  A    between atoms: N_15  and  C_16
REMARK    8  A    between atoms: C_18  and  C_20
REMARK    9  A    between atoms: C_20  and  O_21
REMARK   10  A    between atoms: C_23  and  N_25
REMARK   11  A    between atoms: C_29  and  N_34
REMARK   12  A    between atoms: N_34  and  C_35
REMARK   13  A    between atoms: N_34  and  C_36
REMARK   14  A    between atoms: C_37  and  O_39
REMARK                            x       y       z     vdW  Elec       q    Type
REMARK                         _______ _______ _______ _____ _____    ______ ____
ROOT
ATOM      1  C   UNL     1       7.599  -3.816  23.551  0.00  0.00    +0.137 C 
ATOM      2  C   UNL     1       6.663  -4.211  24.702  0.00  0.00    +0.187 C 
ATOM      3  C   UNL     1       5.252  -4.232  24.079  0.00  0.00    +0.253 C 
ATOM      4  O   UNL     1       5.410  -3.989  22.663  0.00  0.00    -0.346 OA
ATOM      5  C   UNL     1       6.790  -4.216  22.311  0.00  0.00    +0.169 C 
ENDROOT
BRANCH   3   6
ATOM      6  N   UNL     1       4.467  -5.447  24.251  0.00  0.00    -0.286 N 
ATOM      7  C   UNL     1       3.152  -5.653  23.915  0.00  0.00    +0.167 A 
ATOM      8  C   UNL     1       2.911  -6.996  24.170  0.00  0.00    +0.148 A 
ATOM      9  C   UNL     1       1.612  -7.499  23.895  0.00  0.00    +0.152 A 
ATOM     10  N   UNL     1       0.712  -6.594  23.396  0.00  0.00    -0.218 NA
ATOM     11  C   UNL     1       1.087  -5.312  23.200  0.00  0.00    +0.225 A 
ATOM     12  N   UNL     1       4.067  -7.603  24.624  0.00  0.00    -0.231 NA
ATOM     13  N   UNL     1       2.289  -4.751  23.427  0.00  0.00    -0.216 NA
ATOM     14  C   UNL     1       4.979  -6.657  24.640  0.00  0.00    +0.203 A 
BRANCH   9  15
ATOM     15  N   UNL     1       1.236  -8.830  24.036  0.00  0.00    -0.319 N 
ATOM     16  C   UNL     1       0.443  -9.462  22.993  0.00  0.00    +0.130 C 
ATOM     17  C   UNL     1       1.197  -9.457  25.348  0.00  0.00    +0.130 C 
ENDBRANCH   9  15
ENDBRANCH   3   6
BRANCH   1  19
ATOM     18  C   UNL     1       9.209  -1.902  23.487  0.00  0.00    +0.231 C 
ATOM     19  N   UNL     1       7.920  -2.377  23.650  0.00  0.00    -0.306 N 
ATOM     20  H   UNL     1       7.401  -1.915  24.388  0.00  0.00    +0.149 HD
ATOM     21  O   UNL     1      10.123  -2.593  23.043  0.00  0.00    -0.274 OA
BRANCH  18  22
ATOM     22  C   UNL     1       9.392  -0.390  23.782  0.00  0.00    +0.142 C 
BRANCH  22  23
ATOM     23  N   UNL     1      10.559  -0.219  24.683  0.00  0.00    -0.320 NA
ATOM     24  H   UNL     1      10.335  -0.668  25.574  0.00  0.00    +0.119 HD
ATOM     25  H   UNL     1      11.352  -0.737  24.308  0.00  0.00    +0.119 HD
ENDBRANCH  22  23
BRANCH  22  26
ATOM     26  C   UNL     1       9.572   0.482  22.523  0.00  0.00    +0.063 C 
BRANCH  26  27
ATOM     27  C   UNL     1       8.846   1.809  22.531  0.00  0.00    -0.045 A 
ATOM     28  C   UNL     1       7.665   1.954  21.787  0.00  0.00    +0.007 A 
ATOM     29  C   UNL     1       6.954   3.160  21.793  0.00  0.00    +0.046 A 
ATOM     30  C   UNL     1       7.420   4.242  22.537  0.00  0.00    +0.120 A 
ATOM     31  C   UNL     1       8.608   4.114  23.254  0.00  0.00    +0.046 A 
ATOM     32  C   UNL     1       9.329   2.917  23.235  0.00  0.00    +0.007 A 
BRANCH  30  33
ATOM     33  O   UNL     1       6.782   5.442  22.682  0.00  0.00    -0.495 OA
ATOM     34  C   UNL     1       5.456   5.392  23.190  0.00  0.00    +0.277 C 
ENDBRANCH  30  33
ENDBRANCH  26  27
ENDBRANCH  22  26
ENDBRANCH  18  22
ENDBRANCH   1  19
BRANCH   2  35
ATOM     35  O   UNL     1       6.772  -3.256  25.779  0.00  0.00    -0.385 OA
ATOM     36  H   UNL     1       6.881  -2.372  25.381  0.00  0.00    +0.210 HD
ENDBRANCH   2  35
BRANCH   5  37
ATOM     37  C   UNL     1       6.976  -5.692  21.909  0.00  0.00    +0.189 C 
BRANCH  37  38
ATOM     38  O   UNL     1       5.866  -6.196  21.186  0.00  0.00    -0.392 OA
ATOM     39  H   UNL     1       5.995  -7.156  21.073  0.00  0.00    +0.210 HD
ENDBRANCH  37  38
ENDBRANCH   5  37
TORSDOF 11
ENDMDL
