MODEL 1
REMARK VINA RESULT:      -5.2      0.000      0.000
REMARK  Name = 
REMARK  5 active torsions:
REMARK  status: ('A' for Active; 'I' for Inactive)
REMARK    1  A    between atoms: C_1  and  C_2
REMARK    2  A    between atoms: C_2  and  O_3
REMARK    3  A    between atoms: O_3  and  C_4
REMARK    4  A    between atoms: C_4  and  C_6
REMARK    5  A    between atoms: C_7  and  O_8
REMARK                            x       y       z     vdW  Elec       q    Type
REMARK                         _______ _______ _______ _____ _____    ______ ____
ROOT
ATOM      1  C   UNL     1       9.382  -1.522  23.136  0.00  0.00    +0.138 A 
ATOM      2  C   UNL     1       9.258  -1.248  21.795  0.00  0.00    +0.134 A 
ATOM      3  N   UNL     1       9.481  -0.027  21.259  0.00  0.00    -0.222 NA
ATOM      4  C   UNL     1       9.830   0.945  22.110  0.00  0.00    +0.216 A 
ATOM      5  N   UNL     1      10.060   2.198  21.587  0.00  0.00    -0.327 N 
ATOM      6  H   UNL     1      10.308   2.136  20.611  0.00  0.00    +0.145 HD
ATOM      7  H   UNL     1      10.677   2.716  22.197  0.00  0.00    +0.145 HD
ATOM      8  N   UNL     1      10.004   0.779  23.420  0.00  0.00    -0.179 NA
ATOM      9  C   UNL     1       9.766  -0.449  23.913  0.00  0.00    +0.231 A 
ENDROOT
BRANCH   1  10
ATOM     10  C   UNL     1       9.143  -2.842  23.723  0.00  0.00    +0.346 C 
ATOM     11  O   UNL     1      10.043  -3.486  24.242  0.00  0.00    -0.245 OA
BRANCH  10  12
ATOM     12  O   UNL     1       7.856  -3.231  23.566  0.00  0.00    -0.461 OA
BRANCH  12  14
ATOM     13  C   UNL     1       7.172  -5.005  22.069  0.00  0.00    +0.048 C 
ATOM     14  C   UNL     1       7.647  -4.649  23.466  0.00  0.00    +0.229 C 
ENDBRANCH  12  14
ENDBRANCH  10  12
ENDBRANCH   1  10
BRANCH   9  15
ATOM     15  O   UNL     1       9.952  -0.537  25.267  0.00  0.00    -0.492 OA
ATOM     16  H   UNL     1       9.369   0.115  25.707  0.00  0.00    +0.294 HD
ENDBRANCH   9  15
TORSDOF 4
ENDMDL
MODEL 2
REMARK VINA RESULT:      -5.1      3.581      6.347
REMARK  Name = 
REMARK  5 active torsions:
REMARK  status: ('A' for Active; 'I' for Inactive)
REMARK    1  A    between atoms: C_1  and  C_2
REMARK    2  A    between atoms: C_2  and  O_3
REMARK    3  A    between atoms: O_3  and  C_4
REMARK    4  A    between atoms: C_4  and  C_6
REMARK    5  A    between atoms: C_7  and  O_8
REMARK                            x       y       z     vdW  Elec       q    Type
REMARK                         _______ _______ _______ _____ _____    ______ ____
ROOT
ATOM      1  C   UNL     1      10.384   1.956  23.482  0.00  0.00    +0.138 A 
ATOM      2  C   UNL     1      10.774   1.095  24.480  0.00  0.00    +0.134 A 
ATOM      3  N   UNL     1      10.638  -0.247  24.403  0.00  0.00    -0.222 NA
ATOM      4  C   UNL     1      10.080  -0.729  23.287  0.00  0.00    +0.216 A 
ATOM      5  N   UNL     1       9.929  -2.094  23.188  0.00  0.00    -0.327 N 
ATOM      6  H   UNL     1      10.591  -2.570  23.781  0.00  0.00    +0.145 HD
ATOM      7  H   UNL     1       9.891  -2.365  22.214  0.00  0.00    +0.145 HD
ATOM      8  N   UNL     1       9.693   0.014  22.251  0.00  0.00    -0.179 NA
ATOM      9  C   UNL     1       9.841   1.345  22.372  0.00  0.00    +0.231 A 
ENDROOT
BRANCH   1  10
ATOM     10  C   UNL     1      10.529   3.411  23.558  0.00  0.00    +0.346 C 
ATOM     11  O   UNL     1       9.561   4.146  23.695  0.00  0.00    -0.245 OA
BRANCH  10  12
ATOM     12  O   UNL     1      11.819   3.792  23.412  0.00  0.00    -0.461 OA
BRANCH  12  14
ATOM     13  C   UNL     1      13.157   5.533  22.395  0.00  0.00    +0.048 C 
ATOM     14  C   UNL     1      12.046   5.210  23.377  0.00  0.00    +0.229 C 
ENDBRANCH  12  14
ENDBRANCH  10  12
ENDBRANCH   1  10
BRANCH   9  15
ATOM     15  O   UNL     1       9.407   2.041  21.274  0.00  0.00    -0.492 OA
ATOM     16  H   UNL     1       8.435   1.955  21.211  0.00  0.00    +0.294 HD
ENDBRANCH   9  15
TORSDOF 4
ENDMDL
MODEL 3
REMARK VINA RESULT:      -5.1      1.554      2.101
REMARK  Name = 
REMARK  5 active torsions:
REMARK  status: ('A' for Active; 'I' for Inactive)
REMARK    1  A    between atoms: C_1  and  C_2
REMARK    2  A    between atoms: C_2  and  O_3
REMARK    3  A    between atoms: O_3  and  C_4
REMARK    4  A    between atoms: C_4  and  C_6
REMARK    5  A    between atoms: C_7  and  O_8
REMARK                            x       y       z     vdW  Elec       q    Type
REMARK                         _______ _______ _______ _____ _____    ______ ____
ROOT
ATOM      1  C   UNL     1       9.820  -0.803  23.254  0.00  0.00    +0.138 A 
ATOM      2  C   UNL     1      10.119  -0.044  24.360  0.00  0.00    +0.134 A 
ATOM      3  N   UNL     1      10.372   1.282  24.308  0.00  0.00    -0.222 NA
ATOM      4  C   UNL     1      10.333   1.852  23.099  0.00  0.00    +0.216 A 
ATOM      5  N   UNL     1      10.591   3.202  23.020  0.00  0.00    -0.327 N 
ATOM      6  H   UNL     1      10.399   3.652  23.903  0.00  0.00    +0.145 HD
ATOM      7  H   UNL     1      10.156   3.588  22.193  0.00  0.00    +0.145 HD
ATOM      8  N   UNL     1      10.027   1.214  21.969  0.00  0.00    -0.179 NA
ATOM      9  C   UNL     1       9.788  -0.106  22.065  0.00  0.00    +0.231 A 
ENDROOT
BRANCH   1  10
ATOM     10  C   UNL     1       9.543  -2.241  23.303  0.00  0.00    +0.346 C 
ATOM     11  O   UNL     1      10.277  -3.015  23.900  0.00  0.00    -0.245 OA
BRANCH  10  12
ATOM     12  O   UNL     1       8.442  -2.561  22.584  0.00  0.00    -0.461 OA
BRANCH  12  14
ATOM     13  C   UNL     1       7.329  -4.706  22.711  0.00  0.00    +0.048 C 
ATOM     14  C   UNL     1       7.438  -3.308  23.291  0.00  0.00    +0.229 C 
ENDBRANCH  12  14
ENDBRANCH  10  12
ENDBRANCH   1  10
BRANCH   9  15
ATOM     15  O   UNL     1       9.497  -0.693  20.862  0.00  0.00    -0.492 OA
ATOM     16  H   UNL     1      10.007  -1.525  20.786  0.00  0.00    +0.294 HD
ENDBRANCH   9  15
TORSDOF 4
ENDMDL
MODEL 4
REMARK VINA RESULT:      -5.0      1.487      1.761
REMARK  Name = 
REMARK  5 active torsions:
REMARK  status: ('A' for Active; 'I' for Inactive)
REMARK    1  A    between atoms: C_1  and  C_2
REMARK    2  A    between atoms: C_2  and  O_3
REMARK    3  A    between atoms: O_3  and  C_4
REMARK    4  A    between atoms: C_4  and  C_6
REMARK    5  A    between atoms: C_7  and  O_8
REMARK                            x       y       z     vdW  Elec       q    Type
REMARK                         _______ _______ _______ _____ _____    ______ ____
ROOT
ATOM      1  C   UNL     1       8.468  -1.502  22.739  0.00  0.00    +0.138 A 
ATOM      2  C   UNL     1       7.457  -0.595  22.945  0.00  0.00    +0.134 A 
ATOM      3  N   UNL     1       7.523   0.698  22.556  0.00  0.00    -0.222 NA
ATOM      4  C   UNL     1       8.652   1.083  21.951  0.00  0.00    +0.216 A 
ATOM      5  N   UNL     1       8.744   2.396  21.549  0.00  0.00    -0.327 N 
ATOM      6  H   UNL     1       7.826   2.792  21.415  0.00  0.00    +0.145 HD
ATOM      7  H   UNL     1       9.406   2.477  20.788  0.00  0.00    +0.145 HD
ATOM      8  N   UNL     1       9.679   0.278  21.679  0.00  0.00    -0.179 NA
ATOM      9  C   UNL     1       9.574  -0.998  22.089  0.00  0.00    +0.231 A 
ENDROOT
BRANCH   1  10
ATOM     10  C   UNL     1       8.402  -2.904  23.157  0.00  0.00    +0.346 C 
ATOM     11  O   UNL     1       9.304  -3.425  23.798  0.00  0.00    -0.245 OA
BRANCH  10  12
ATOM     12  O   UNL     1       7.278  -3.507  22.706  0.00  0.00    -0.461 OA
BRANCH  12  14
ATOM     13  C   UNL     1       7.123  -5.691  21.677  0.00  0.00    +0.048 C 
ATOM     14  C   UNL     1       7.178  -4.914  22.979  0.00  0.00    +0.229 C 
ENDBRANCH  12  14
ENDBRANCH  10  12
ENDBRANCH   1  10
BRANCH   9  15
ATOM     15  O   UNL     1      10.674  -1.757  21.787  0.00  0.00    -0.492 OA
ATOM     16  H   UNL     1      10.392  -2.513  21.233  0.00  0.00    +0.294 HD
ENDBRANCH   9  15
TORSDOF 4
ENDMDL
MODEL 5
REMARK VINA RESULT:      -4.8      1.559      1.814
REMARK  Name = 
REMARK  5 active torsions:
REMARK  status: ('A' for Active; 'I' for Inactive)
REMARK    1  A    between atoms: C_1  and  C_2
REMARK    2  A    between atoms: C_2  and  O_3
REMARK    3  A    between atoms: O_3  and  C_4
REMARK    4  A    between atoms: C_4  and  C_6
REMARK    5  A    between atoms: C_7  and  O_8
REMARK                            x       y       z     vdW  Elec       q    Type
REMARK                         _______ _______ _______ _____ _____    ______ ____
ROOT
ATOM      1  C   UNL     1       8.418  -1.681  22.573  0.00  0.00    +0.138 A 
ATOM      2  C   UNL     1       9.620  -1.307  22.023  0.00  0.00    +0.134 A 
ATOM      3  N   UNL     1       9.916  -0.036  21.670  0.00  0.00    -0.222 NA
ATOM      4  C   UNL     1       8.960   0.878  21.869  0.00  0.00    +0.216 A 
ATOM      5  N   UNL     1       9.237   2.179  21.514  0.00  0.00    -0.327 N 
ATOM      6  H   UNL     1      10.233   2.342  21.510  0.00  0.00    +0.145 HD
ATOM      7  H   UNL     1       8.659   2.812  22.050  0.00  0.00    +0.145 HD
ATOM      8  N   UNL     1       7.773   0.626  22.419  0.00  0.00    -0.179 NA
ATOM      9  C   UNL     1       7.518  -0.652  22.751  0.00  0.00    +0.231 A 
ENDROOT
BRANCH   1  10
ATOM     10  C   UNL     1       8.091  -3.055  22.959  0.00  0.00    +0.346 C 
ATOM     11  O   UNL     1       8.696  -3.632  23.853  0.00  0.00    -0.245 OA
BRANCH  10  12
ATOM     12  O   UNL     1       7.108  -3.570  22.185  0.00  0.00    -0.461 OA
BRANCH  12  14
ATOM     13  C   UNL     1       6.770  -5.827  21.380  0.00  0.00    +0.048 C 
ATOM     14  C   UNL     1       6.648  -4.879  22.559  0.00  0.00    +0.229 C 
ENDBRANCH  12  14
ENDBRANCH  10  12
ENDBRANCH   1  10
BRANCH   9  15
ATOM     15  O   UNL     1       6.274  -0.833  23.295  0.00  0.00    -0.492 OA
ATOM     16  H   UNL     1       5.930  -1.705  23.012  0.00  0.00    +0.294 HD
ENDBRANCH   9  15
TORSDOF 4
ENDMDL
MODEL 6
REMARK VINA RESULT:      -4.8      3.559      5.388
REMARK  Name = 
REMARK  5 active torsions:
REMARK  status: ('A' for Active; 'I' for Inactive)
REMARK    1  A    between atoms: C_1  and  C_2
REMARK    2  A    between atoms: C_2  and  O_3
REMARK    3  A    between atoms: O_3  and  C_4
REMARK    4  A    between atoms: C_4  and  C_6
REMARK    5  A    between atoms: C_7  and  O_8
REMARK                            x       y       z     vdW  Elec       q    Type
REMARK                         _______ _______ _______ _____ _____    ______ ____
ROOT
ATOM      1  C   UNL     1       7.554  -3.423  22.825  0.00  0.00    +0.138 A 
ATOM      2  C   UNL     1       6.371  -3.145  22.183  0.00  0.00    +0.134 A 
ATOM      3  N   UNL     1       5.359  -4.033  22.065  0.00  0.00    -0.222 NA
ATOM      4  C   UNL     1       5.559  -5.242  22.602  0.00  0.00    +0.216 A 
ATOM      5  N   UNL     1       4.544  -6.165  22.491  0.00  0.00    -0.327 N 
ATOM      6  H   UNL     1       3.656  -5.704  22.364  0.00  0.00    +0.145 HD
ATOM      7  H   UNL     1       4.616  -6.847  23.234  0.00  0.00    +0.145 HD
ATOM      8  N   UNL     1       6.655  -5.604  23.267  0.00  0.00    -0.179 NA
ATOM      9  C   UNL     1       7.639  -4.692  23.357  0.00  0.00    +0.231 A 
ENDROOT
BRANCH   1  10
ATOM     10  C   UNL     1       8.653  -2.465  22.958  0.00  0.00    +0.346 C 
ATOM     11  O   UNL     1       9.240  -2.305  24.019  0.00  0.00    -0.245 OA
BRANCH  10  12
ATOM     12  O   UNL     1       8.870  -1.792  21.804  0.00  0.00    -0.461 OA
BRANCH  12  14
ATOM     13  C   UNL     1       9.228   0.578  21.470  0.00  0.00    +0.048 C 
ATOM     14  C   UNL     1       9.852  -0.745  21.874  0.00  0.00    +0.229 C 
ENDBRANCH  12  14
ENDBRANCH  10  12
ENDBRANCH   1  10
BRANCH   9  15
ATOM     15  O   UNL     1       8.737  -5.143  24.041  0.00  0.00    -0.492 OA
ATOM     16  H   UNL     1       8.770  -6.119  23.974  0.00  0.00    +0.294 HD
ENDBRANCH   9  15
TORSDOF 4
ENDMDL
MODEL 7
REMARK VINA RESULT:      -4.8      5.308      6.601
REMARK  Name = 
REMARK  5 active torsions:
REMARK  status: ('A' for Active; 'I' for Inactive)
REMARK    1  A    between atoms: C_1  and  C_2
REMARK    2  A    between atoms: C_2  and  O_3
REMARK    3  A    between atoms: O_3  and  C_4
REMARK    4  A    between atoms: C_4  and  C_6
REMARK    5  A    between atoms: C_7  and  O_8
REMARK                            x       y       z     vdW  Elec       q    Type
REMARK                         _______ _______ _______ _____ _____    ______ ____
ROOT
ATOM      1  C   UNL     1       7.218  -5.225  25.570  0.00  0.00    +0.138 A 
ATOM      2  C   UNL     1       5.989  -5.818  25.410  0.00  0.00    +0.134 A 
ATOM      3  N   UNL     1       5.357  -6.502  26.390  0.00  0.00    -0.222 NA
ATOM      4  C   UNL     1       5.997  -6.599  27.560  0.00  0.00    +0.216 A 
ATOM      5  N   UNL     1       5.375  -7.294  28.572  0.00  0.00    -0.327 N 
ATOM      6  H   UNL     1       4.376  -7.311  28.431  0.00  0.00    +0.145 HD
ATOM      7  H   UNL     1       5.717  -6.976  29.469  0.00  0.00    +0.145 HD
ATOM      8  N   UNL     1       7.177  -6.039  27.828  0.00  0.00    -0.179 NA
ATOM      9  C   UNL     1       7.772  -5.372  26.824  0.00  0.00    +0.231 A 
ENDROOT
BRANCH   1  10
ATOM     10  C   UNL     1       7.907  -4.480  24.514  0.00  0.00    +0.346 C 
ATOM     11  O   UNL     1       9.054  -4.748  24.184  0.00  0.00    -0.245 OA
BRANCH  10  12
ATOM     12  O   UNL     1       7.138  -3.480  24.026  0.00  0.00    -0.461 OA
BRANCH  12  14
ATOM     13  C   UNL     1       5.676  -3.169  22.123  0.00  0.00    +0.048 C 
ATOM     14  C   UNL     1       7.105  -3.367  22.594  0.00  0.00    +0.229 C 
ENDBRANCH  12  14
ENDBRANCH  10  12
ENDBRANCH   1  10
BRANCH   9  15
ATOM     15  O   UNL     1       8.986  -4.839  27.171  0.00  0.00    -0.492 OA
ATOM     16  H   UNL     1       9.304  -4.276  26.437  0.00  0.00    +0.294 HD
ENDBRANCH   9  15
TORSDOF 4
ENDMDL
MODEL 8
REMARK VINA RESULT:      -4.8      3.258      5.014
REMARK  Name = 
REMARK  5 active torsions:
REMARK  status: ('A' for Active; 'I' for Inactive)
REMARK    1  A    between atoms: C_1  and  C_2
REMARK    2  A    between atoms: C_2  and  O_3
REMARK    3  A    between atoms: O_3  and  C_4
REMARK    4  A    between atoms: C_4  and  C_6
REMARK    5  A    between atoms: C_7  and  O_8
REMARK                            x       y       z     vdW  Elec       q    Type
REMARK                         _______ _______ _______ _____ _____    ______ ____
ROOT
ATOM      1  C   UNL     1       8.976  -1.796  24.757  0.00  0.00    +0.138 A 
ATOM      2  C   UNL     1       8.455  -2.407  25.871  0.00  0.00    +0.134 A 
ATOM      3  N   UNL     1       8.680  -3.702  26.187  0.00  0.00    -0.222 NA
ATOM      4  C   UNL     1       9.447  -4.399  25.341  0.00  0.00    +0.216 A 
ATOM      5  N   UNL     1       9.688  -5.721  25.640  0.00  0.00    -0.327 N 
ATOM      6  H   UNL     1       9.580  -5.888  26.629  0.00  0.00    +0.145 HD
ATOM      7  H   UNL     1      10.550  -6.021  25.204  0.00  0.00    +0.145 HD
ATOM      8  N   UNL     1      10.022  -3.896  24.249  0.00  0.00    -0.179 NA
ATOM      9  C   UNL     1       9.767  -2.606  23.970  0.00  0.00    +0.231 A 
ENDROOT
BRANCH   1  10
ATOM     10  C   UNL     1       8.738  -0.394  24.409  0.00  0.00    +0.346 C 
ATOM     11  O   UNL     1       8.915   0.506  25.218  0.00  0.00    -0.245 OA
BRANCH  10  12
ATOM     12  O   UNL     1       8.272  -0.266  23.145  0.00  0.00    -0.461 OA
BRANCH  12  14
ATOM     13  C   UNL     1       9.763   1.168  21.889  0.00  0.00    +0.048 C 
ATOM     14  C   UNL     1       8.410   1.041  22.565  0.00  0.00    +0.229 C 
ENDBRANCH  12  14
ENDBRANCH  10  12
ENDBRANCH   1  10
BRANCH   9  15
ATOM     15  O   UNL     1      10.381  -2.167  22.826  0.00  0.00    -0.492 OA
ATOM     16  H   UNL     1       9.706  -2.068  22.125  0.00  0.00    +0.294 HD
ENDBRANCH   9  15
TORSDOF 4
ENDMDL
MODEL 9
REMARK VINA RESULT:      -4.8      1.771      2.240
REMARK  Name = 
REMARK  5 active torsions:
REMARK  status: ('A' for Active; 'I' for Inactive)
REMARK    1  A    between atoms: C_1  and  C_2
REMARK    2  A    between atoms: C_2  and  O_3
REMARK    3  A    between atoms: O_3  and  C_4
REMARK    4  A    between atoms: C_4  and  C_6
REMARK    5  A    between atoms: C_7  and  O_8
REMARK                            x       y       z     vdW  Elec       q    Type
REMARK                         _______ _______ _______ _____ _____    ______ ____
ROOT
ATOM      1  C   UNL     1       8.222  -1.743  22.547  0.00  0.00    +0.138 A 
ATOM      2  C   UNL     1       9.388  -1.463  21.878  0.00  0.00    +0.134 A 
ATOM      3  N   UNL     1       9.755  -0.216  21.508  0.00  0.00    -0.222 NA
ATOM      4  C   UNL     1       8.908   0.772  21.815  0.00  0.00    +0.216 A 
ATOM      5  N   UNL     1       9.258   2.051  21.445  0.00  0.00    -0.327 N 
ATOM      6  H   UNL     1      10.258   2.129  21.338  0.00  0.00    +0.145 HD
ATOM      7  H   UNL     1       8.797   2.722  22.045  0.00  0.00    +0.145 HD
ATOM      8  N   UNL     1       7.766   0.613  22.484  0.00  0.00    -0.179 NA
ATOM      9  C   UNL     1       7.437  -0.645  22.829  0.00  0.00    +0.231 A 
ENDROOT
BRANCH   1  10
ATOM     10  C   UNL     1       7.819  -3.092  22.953  0.00  0.00    +0.346 C 
ATOM     11  O   UNL     1       7.435  -3.919  22.138  0.00  0.00    -0.245 OA
BRANCH  10  12
ATOM     12  O   UNL     1       7.888  -3.250  24.295  0.00  0.00    -0.461 OA
BRANCH  12  14
ATOM     13  C   UNL     1       9.087  -5.194  25.095  0.00  0.00    +0.048 C 
ATOM     14  C   UNL     1       9.153  -3.707  24.800  0.00  0.00    +0.229 C 
ENDBRANCH  12  14
ENDBRANCH  10  12
ENDBRANCH   1  10
BRANCH   9  15
ATOM     15  O   UNL     1       6.246  -0.730  23.499  0.00  0.00    -0.492 OA
ATOM     16  H   UNL     1       6.303  -1.457  24.151  0.00  0.00    +0.294 HD
ENDBRANCH   9  15
TORSDOF 4
ENDMDL
