MODEL 1
REMARK VINA RESULT:      -6.1      0.000      0.000
REMARK  Name = 
REMARK  4 active torsions:
REMARK  status: ('A' for Active; 'I' for Inactive)
REMARK    1  A    between atoms: N_6  and  C1*_9
REMARK    2  A    between atoms: C3*_12  and  O3*_14
REMARK    3  A    between atoms: C4*_15  and  C5*_17
REMARK    4  A    between atoms: C5*_17  and  O5*_18
REMARK                            x       y       z     vdW  Elec       q    Type
REMARK                         _______ _______ _______ _____ _____    ______ ____
ROOT
ATOM      1  N   UNL     1       9.769  -5.697  25.403  0.00  0.00    -0.327 N 
ATOM      2  H   UNL     1       9.917  -6.154  24.513  0.00  0.00    +0.145 HD
ATOM      3  H   UNL     1       9.175  -6.202  26.048  0.00  0.00    +0.145 HD
ATOM      4  C   UNL     1       9.433  -4.392  25.283  0.00  0.00    +0.218 A 
ATOM      5  N   UNL     1       9.811  -3.765  24.144  0.00  0.00    -0.205 NA
ATOM      6  C   UNL     1       9.660  -2.490  24.114  0.00  0.00    +0.209 A 
ATOM      7  N   UNL     1       9.130  -1.768  25.130  0.00  0.00    -0.256 N 
ATOM      8  C   UNL     1       8.442  -2.495  26.073  0.00  0.00    +0.354 A 
ATOM      9  O   UNL     1       7.552  -1.987  26.752  0.00  0.00    -0.244 OA
ATOM     10  N   UNL     1       8.762  -3.813  26.216  0.00  0.00    -0.159 NA
ENDROOT
BRANCH   7  11
ATOM     11  C1* UNL     1       8.841  -0.351  24.987  0.00  0.00    +0.228 C 
ATOM     12  O4* UNL     1       8.287  -0.102  23.680  0.00  0.00    -0.348 OA
ATOM     13  C4* UNL     1       8.751   1.186  23.210  0.00  0.00    +0.175 C 
ATOM     14  C3* UNL     1       9.653   1.762  24.298  0.00  0.00    +0.150 C 
ATOM     15  C2* UNL     1      10.071   0.548  25.090  0.00  0.00    +0.088 C 
BRANCH  14  16
ATOM     16  O3* UNL     1       8.884   2.618  25.148  0.00  0.00    -0.389 OA
ATOM     17  H3* UNL     1       9.314   2.626  26.023  0.00  0.00    +0.210 HD
ENDBRANCH  14  16
BRANCH  13  18
ATOM     18  C5* UNL     1       9.470   0.961  21.877  0.00  0.00    +0.190 C 
BRANCH  18  19
ATOM     19  O5* UNL     1      10.138   2.144  21.444  0.00  0.00    -0.392 OA
ATOM     20  H5* UNL     1      10.458   2.585  22.253  0.00  0.00    +0.210 HD
ENDBRANCH  18  19
ENDBRANCH  13  18
ENDBRANCH   7  11
TORSDOF 4
ENDMDL
MODEL 2
REMARK VINA RESULT:      -6.0      2.004      2.124
REMARK  Name = 
REMARK  4 active torsions:
REMARK  status: ('A' for Active; 'I' for Inactive)
REMARK    1  A    between atoms: N_6  and  C1*_9
REMARK    2  A    between atoms: C3*_12  and  O3*_14
REMARK    3  A    between atoms: C4*_15  and  C5*_17
REMARK    4  A    between atoms: C5*_17  and  O5*_18
REMARK                            x       y       z     vdW  Elec       q    Type
REMARK                         _______ _______ _______ _____ _____    ______ ____
ROOT
ATOM      1  N   UNL     1       9.785  -5.765  25.582  0.00  0.00    -0.327 N 
ATOM      2  H   UNL     1      10.756  -5.924  25.351  0.00  0.00    +0.145 HD
ATOM      3  H   UNL     1       9.207  -6.595  25.585  0.00  0.00    +0.145 HD
ATOM      4  C   UNL     1       9.234  -4.738  24.894  0.00  0.00    +0.218 A 
ATOM      5  N   UNL     1      10.082  -3.794  24.421  0.00  0.00    -0.205 NA
ATOM      6  C   UNL     1       9.544  -2.732  23.937  0.00  0.00    +0.209 A 
ATOM      7  N   UNL     1       8.207  -2.531  23.857  0.00  0.00    -0.256 N 
ATOM      8  C   UNL     1       7.433  -3.657  24.004  0.00  0.00    +0.354 A 
ATOM      9  O   UNL     1       6.309  -3.733  23.513  0.00  0.00    -0.244 OA
ATOM     10  N   UNL     1       7.963  -4.708  24.695  0.00  0.00    -0.159 NA
ENDROOT
BRANCH   7  11
ATOM     11  C1* UNL     1       7.651  -1.381  23.163  0.00  0.00    +0.228 C 
ATOM     12  O4* UNL     1       8.561  -0.955  22.131  0.00  0.00    -0.348 OA
ATOM     13  C4* UNL     1       8.512   0.488  22.027  0.00  0.00    +0.175 C 
ATOM     14  C3* UNL     1       7.510   0.978  23.068  0.00  0.00    +0.150 C 
ATOM     15  C2* UNL     1       7.441  -0.160  24.056  0.00  0.00    +0.088 C 
BRANCH  14  16
ATOM     16  O3* UNL     1       6.225   1.131  22.457  0.00  0.00    -0.389 OA
ATOM     17  H3* UNL     1       5.674   0.380  22.744  0.00  0.00    +0.210 HD
ENDBRANCH  14  16
BRANCH  13  18
ATOM     18  C5* UNL     1       9.931   1.017  22.249  0.00  0.00    +0.190 C 
BRANCH  18  19
ATOM     19  O5* UNL     1      10.144   2.238  21.544  0.00  0.00    -0.392 OA
ATOM     20  H5* UNL     1      11.110   2.370  21.518  0.00  0.00    +0.210 HD
ENDBRANCH  18  19
ENDBRANCH  13  18
ENDBRANCH   7  11
TORSDOF 4
ENDMDL
MODEL 3
REMARK VINA RESULT:      -5.8      2.197      3.337
REMARK  Name = 
REMARK  4 active torsions:
REMARK  status: ('A' for Active; 'I' for Inactive)
REMARK    1  A    between atoms: N_6  and  C1*_9
REMARK    2  A    between atoms: C3*_12  and  O3*_14
REMARK    3  A    between atoms: C4*_15  and  C5*_17
REMARK    4  A    between atoms: C5*_17  and  O5*_18
REMARK                            x       y       z     vdW  Elec       q    Type
REMARK                         _______ _______ _______ _____ _____    ______ ____
ROOT
ATOM      1  N   UNL     1       6.733  -5.895  27.791  0.00  0.00    -0.327 N 
ATOM      2  H   UNL     1       6.257  -5.344  28.492  0.00  0.00    +0.145 HD
ATOM      3  H   UNL     1       7.247  -6.689  28.150  0.00  0.00    +0.145 HD
ATOM      4  C   UNL     1       7.452  -5.147  26.922  0.00  0.00    +0.218 A 
ATOM      5  N   UNL     1       7.073  -3.856  26.767  0.00  0.00    -0.205 NA
ATOM      6  C   UNL     1       7.632  -3.207  25.810  0.00  0.00    +0.209 A 
ATOM      7  N   UNL     1       8.575  -3.730  24.990  0.00  0.00    -0.256 N 
ATOM      8  C   UNL     1       9.163  -4.890  25.435  0.00  0.00    +0.354 A 
ATOM      9  O   UNL     1      10.293  -5.215  25.079  0.00  0.00    -0.244 OA
ATOM     10  N   UNL     1       8.459  -5.664  26.311  0.00  0.00    -0.159 NA
ENDROOT
BRANCH   7  11
ATOM     11  C1* UNL     1       9.283  -2.908  24.023  0.00  0.00    +0.228 C 
ATOM     12  O4* UNL     1       9.748  -1.703  24.663  0.00  0.00    -0.348 OA
ATOM     13  C4* UNL     1       9.671  -0.610  23.718  0.00  0.00    +0.175 C 
ATOM     14  C3* UNL     1       9.119  -1.181  22.416  0.00  0.00    +0.150 C 
ATOM     15  C2* UNL     1       8.420  -2.445  22.851  0.00  0.00    +0.088 C 
BRANCH  14  16
ATOM     16  O3* UNL     1      10.204  -1.534  21.553  0.00  0.00    -0.389 OA
ATOM     17  H3* UNL     1      10.249  -0.862  20.849  0.00  0.00    +0.210 HD
ENDBRANCH  14  16
BRANCH  13  18
ATOM     18  C5* UNL     1       8.784   0.474  24.335  0.00  0.00    +0.190 C 
BRANCH  18  19
ATOM     19  O5* UNL     1       9.564   1.457  25.014  0.00  0.00    -0.392 OA
ATOM     20  H5* UNL     1      10.418   1.495  24.545  0.00  0.00    +0.210 HD
ENDBRANCH  18  19
ENDBRANCH  13  18
ENDBRANCH   7  11
TORSDOF 4
ENDMDL
MODEL 4
REMARK VINA RESULT:      -5.7      2.712      5.218
REMARK  Name = 
REMARK  4 active torsions:
REMARK  status: ('A' for Active; 'I' for Inactive)
REMARK    1  A    between atoms: N_6  and  C1*_9
REMARK    2  A    between atoms: C3*_12  and  O3*_14
REMARK    3  A    between atoms: C4*_15  and  C5*_17
REMARK    4  A    between atoms: C5*_17  and  O5*_18
REMARK                            x       y       z     vdW  Elec       q    Type
REMARK                         _______ _______ _______ _____ _____    ______ ____
ROOT
ATOM      1  N   UNL     1       9.807   1.899  21.460  0.00  0.00    -0.327 N 
ATOM      2  H   UNL     1      10.197   1.686  20.552  0.00  0.00    +0.145 HD
ATOM      3  H   UNL     1      10.168   2.740  21.891  0.00  0.00    +0.145 HD
ATOM      4  C   UNL     1       9.795   0.837  22.298  0.00  0.00    +0.218 A 
ATOM      5  N   UNL     1       9.804  -0.392  21.729  0.00  0.00    -0.205 NA
ATOM      6  C   UNL     1       9.602  -1.388  22.514  0.00  0.00    +0.209 A 
ATOM      7  N   UNL     1       9.412  -1.272  23.850  0.00  0.00    -0.256 N 
ATOM      8  C   UNL     1       9.782  -0.065  24.394  0.00  0.00    +0.354 A 
ATOM      9  O   UNL     1      10.107   0.035  25.575  0.00  0.00    -0.244 OA
ATOM     10  N   UNL     1       9.801   1.024  23.571  0.00  0.00    -0.159 NA
ENDROOT
BRANCH   7  11
ATOM     11  C1* UNL     1       9.340  -2.439  24.713  0.00  0.00    +0.228 C 
ATOM     12  O4* UNL     1       9.450  -3.635  23.916  0.00  0.00    -0.348 OA
ATOM     13  C4* UNL     1       8.611  -4.663  24.492  0.00  0.00    +0.175 C 
ATOM     14  C3* UNL     1       7.938  -4.056  25.720  0.00  0.00    +0.150 C 
ATOM     15  C2* UNL     1       8.021  -2.571  25.471  0.00  0.00    +0.088 C 
BRANCH  14  16
ATOM     16  O3* UNL     1       8.707  -4.367  26.886  0.00  0.00    -0.389 OA
ATOM     17  H3* UNL     1       9.269  -3.595  27.080  0.00  0.00    +0.210 HD
ENDBRANCH  14  16
BRANCH  13  18
ATOM     18  C5* UNL     1       7.622  -5.113  23.414  0.00  0.00    +0.190 C 
BRANCH  18  19
ATOM     19  O5* UNL     1       7.529  -4.153  22.364  0.00  0.00    -0.392 OA
ATOM     20  H5* UNL     1       7.484  -3.281  22.798  0.00  0.00    +0.210 HD
ENDBRANCH  18  19
ENDBRANCH  13  18
ENDBRANCH   7  11
TORSDOF 4
ENDMDL
MODEL 5
REMARK VINA RESULT:      -5.7      2.452      2.660
REMARK  Name = 
REMARK  4 active torsions:
REMARK  status: ('A' for Active; 'I' for Inactive)
REMARK    1  A    between atoms: N_6  and  C1*_9
REMARK    2  A    between atoms: C3*_12  and  O3*_14
REMARK    3  A    between atoms: C4*_15  and  C5*_17
REMARK    4  A    between atoms: C5*_17  and  O5*_18
REMARK                            x       y       z     vdW  Elec       q    Type
REMARK                         _______ _______ _______ _____ _____    ______ ____
ROOT
ATOM      1  N   UNL     1       6.565  -6.316  21.844  0.00  0.00    -0.327 N 
ATOM      2  H   UNL     1       5.753  -6.175  21.258  0.00  0.00    +0.145 HD
ATOM      3  H   UNL     1       6.499  -7.099  22.482  0.00  0.00    +0.145 HD
ATOM      4  C   UNL     1       6.996  -5.181  22.441  0.00  0.00    +0.218 A 
ATOM      5  N   UNL     1       6.668  -4.012  21.842  0.00  0.00    -0.205 NA
ATOM      6  C   UNL     1       7.234  -2.954  22.301  0.00  0.00    +0.209 A 
ATOM      7  N   UNL     1       8.098  -2.951  23.344  0.00  0.00    -0.256 N 
ATOM      8  C   UNL     1       8.090  -4.087  24.118  0.00  0.00    +0.354 A 
ATOM      9  O   UNL     1       8.434  -4.063  25.297  0.00  0.00    -0.244 OA
ATOM     10  N   UNL     1       7.662  -5.247  23.540  0.00  0.00    -0.159 NA
ENDROOT
BRANCH   7  11
ATOM     11  C1* UNL     1       8.591  -1.711  23.919  0.00  0.00    +0.228 C 
ATOM     12  O4* UNL     1       7.985  -0.591  23.244  0.00  0.00    -0.348 OA
ATOM     13  C4* UNL     1       8.950   0.483  23.156  0.00  0.00    +0.175 C 
ATOM     14  C3* UNL     1      10.233  -0.012  23.816  0.00  0.00    +0.150 C 
ATOM     15  C2* UNL     1      10.098  -1.513  23.771  0.00  0.00    +0.088 C 
BRANCH  14  16
ATOM     16  O3* UNL     1      10.254   0.403  25.186  0.00  0.00    -0.389 OA
ATOM     17  H3* UNL     1       9.346   0.660  25.428  0.00  0.00    +0.210 HD
ENDBRANCH  14  16
BRANCH  13  18
ATOM     18  C5* UNL     1       9.120   0.834  21.676  0.00  0.00    +0.190 C 
BRANCH  18  19
ATOM     19  O5* UNL     1       9.919   2.003  21.509  0.00  0.00    -0.392 OA
ATOM     20  H5* UNL     1       9.832   2.258  20.572  0.00  0.00    +0.210 HD
ENDBRANCH  18  19
ENDBRANCH  13  18
ENDBRANCH   7  11
TORSDOF 4
ENDMDL
MODEL 6
REMARK VINA RESULT:      -5.6      3.067      5.754
REMARK  Name = 
REMARK  4 active torsions:
REMARK  status: ('A' for Active; 'I' for Inactive)
REMARK    1  A    between atoms: N_6  and  C1*_9
REMARK    2  A    between atoms: C3*_12  and  O3*_14
REMARK    3  A    between atoms: C4*_15  and  C5*_17
REMARK    4  A    between atoms: C5*_17  and  O5*_18
REMARK                            x       y       z     vdW  Elec       q    Type
REMARK                         _______ _______ _______ _____ _____    ______ ____
ROOT
ATOM      1  N   UNL     1       9.811   1.960  21.480  0.00  0.00    -0.327 N 
ATOM      2  H   UNL     1      10.820   1.923  21.527  0.00  0.00    +0.145 HD
ATOM      3  H   UNL     1       9.404   2.836  21.782  0.00  0.00    +0.145 HD
ATOM      4  C   UNL     1       9.211   0.879  22.028  0.00  0.00    +0.218 A 
ATOM      5  N   UNL     1       9.940  -0.260  22.091  0.00  0.00    -0.205 NA
ATOM      6  C   UNL     1       9.310  -1.326  22.433  0.00  0.00    +0.209 A 
ATOM      7  N   UNL     1       7.994  -1.357  22.752  0.00  0.00    -0.256 N 
ATOM      8  C   UNL     1       7.426  -0.135  23.024  0.00  0.00    +0.354 A 
ATOM      9  O   UNL     1       6.438  -0.033  23.748  0.00  0.00    -0.244 OA
ATOM     10  N   UNL     1       8.010   0.973  22.482  0.00  0.00    -0.159 NA
ENDROOT
BRANCH   7  11
ATOM     11  C1* UNL     1       7.367  -2.557  23.279  0.00  0.00    +0.228 C 
ATOM     12  O4* UNL     1       7.873  -2.825  24.602  0.00  0.00    -0.348 OA
ATOM     13  C4* UNL     1       7.968  -4.256  24.788  0.00  0.00    +0.175 C 
ATOM     14  C3* UNL     1       7.493  -4.909  23.493  0.00  0.00    +0.150 C 
ATOM     15  C2* UNL     1       7.656  -3.817  22.466  0.00  0.00    +0.088 C 
BRANCH  14  16
ATOM     16  O3* UNL     1       6.103  -5.229  23.604  0.00  0.00    -0.389 OA
ATOM     17  H3* UNL     1       6.001  -5.835  24.360  0.00  0.00    +0.210 HD
ENDBRANCH  14  16
BRANCH  13  18
ATOM     18  C5* UNL     1       9.422  -4.583  25.140  0.00  0.00    +0.190 C 
BRANCH  18  19
ATOM     19  O5* UNL     1       9.758  -5.916  24.764  0.00  0.00    -0.392 OA
ATOM     20  H5* UNL     1      10.719  -6.003  24.905  0.00  0.00    +0.210 HD
ENDBRANCH  18  19
ENDBRANCH  13  18
ENDBRANCH   7  11
TORSDOF 4
ENDMDL
MODEL 7
REMARK VINA RESULT:      -5.6      4.282      6.059
REMARK  Name = 
REMARK  4 active torsions:
REMARK  status: ('A' for Active; 'I' for Inactive)
REMARK    1  A    between atoms: N_6  and  C1*_9
REMARK    2  A    between atoms: C3*_12  and  O3*_14
REMARK    3  A    between atoms: C4*_15  and  C5*_17
REMARK    4  A    between atoms: C5*_17  and  O5*_18
REMARK                            x       y       z     vdW  Elec       q    Type
REMARK                         _______ _______ _______ _____ _____    ______ ____
ROOT
ATOM      1  N   UNL     1       2.839  -6.601  23.089  0.00  0.00    -0.327 N 
ATOM      2  H   UNL     1       2.570  -7.143  23.899  0.00  0.00    +0.145 HD
ATOM      3  H   UNL     1       2.591  -7.014  22.200  0.00  0.00    +0.145 HD
ATOM      4  C   UNL     1       4.121  -6.172  23.136  0.00  0.00    +0.218 A 
ATOM      5  N   UNL     1       4.686  -6.064  24.362  0.00  0.00    -0.205 NA
ATOM      6  C   UNL     1       5.829  -5.481  24.416  0.00  0.00    +0.209 A 
ATOM      7  N   UNL     1       6.489  -5.008  23.332  0.00  0.00    -0.256 N 
ATOM      8  C   UNL     1       6.042  -5.477  22.120  0.00  0.00    +0.354 A 
ATOM      9  O   UNL     1       6.779  -5.526  21.138  0.00  0.00    -0.244 OA
ATOM     10  N   UNL     1       4.751  -5.914  22.044  0.00  0.00    -0.159 NA
ENDROOT
BRANCH   7  11
ATOM     11  C1* UNL     1       7.845  -4.495  23.431  0.00  0.00    +0.228 C 
ATOM     12  O4* UNL     1       8.606  -5.316  24.338  0.00  0.00    -0.348 OA
ATOM     13  C4* UNL     1       9.532  -4.478  25.068  0.00  0.00    +0.175 C 
ATOM     14  C3* UNL     1       9.320  -3.047  24.580  0.00  0.00    +0.150 C 
ATOM     15  C2* UNL     1       7.933  -3.076  23.989  0.00  0.00    +0.088 C 
BRANCH  14  16
ATOM     16  O3* UNL     1      10.256  -2.757  23.537  0.00  0.00    -0.389 OA
ATOM     17  H3* UNL     1      10.665  -1.897  23.741  0.00  0.00    +0.210 HD
ENDBRANCH  14  16
BRANCH  13  18
ATOM     18  C5* UNL     1       9.247  -4.663  26.560  0.00  0.00    +0.190 C 
BRANCH  18  19
ATOM     19  O5* UNL     1       8.420  -5.801  26.792  0.00  0.00    -0.392 OA
ATOM     20  H5* UNL     1       7.799  -5.544  27.498  0.00  0.00    +0.210 HD
ENDBRANCH  18  19
ENDBRANCH  13  18
ENDBRANCH   7  11
TORSDOF 4
ENDMDL
MODEL 8
REMARK VINA RESULT:      -5.5      1.592      2.839
REMARK  Name = 
REMARK  4 active torsions:
REMARK  status: ('A' for Active; 'I' for Inactive)
REMARK    1  A    between atoms: N_6  and  C1*_9
REMARK    2  A    between atoms: C3*_12  and  O3*_14
REMARK    3  A    between atoms: C4*_15  and  C5*_17
REMARK    4  A    between atoms: C5*_17  and  O5*_18
REMARK                            x       y       z     vdW  Elec       q    Type
REMARK                         _______ _______ _______ _____ _____    ______ ____
ROOT
ATOM      1  N   UNL     1       8.170  -4.738  25.735  0.00  0.00    -0.327 N 
ATOM      2  H   UNL     1       7.980  -4.681  26.727  0.00  0.00    +0.145 HD
ATOM      3  H   UNL     1       8.695  -5.554  25.449  0.00  0.00    +0.145 HD
ATOM      4  C   UNL     1       8.656  -3.586  25.218  0.00  0.00    +0.218 A 
ATOM      5  N   UNL     1       8.365  -2.445  25.886  0.00  0.00    -0.205 NA
ATOM      6  C   UNL     1       8.663  -1.344  25.296  0.00  0.00    +0.209 A 
ATOM      7  N   UNL     1       9.263  -1.274  24.083  0.00  0.00    -0.256 N 
ATOM      8  C   UNL     1       9.852  -2.438  23.651  0.00  0.00    +0.354 A 
ATOM      9  O   UNL     1      10.787  -2.427  22.854  0.00  0.00    -0.244 OA
ATOM     10  N   UNL     1       9.379  -3.615  24.155  0.00  0.00    -0.159 NA
ENDROOT
BRANCH   7  11
ATOM     11  C1* UNL     1       9.715  -0.009  23.530  0.00  0.00    +0.228 C 
ATOM     12  O4* UNL     1       9.692   1.002  24.557  0.00  0.00    -0.348 OA
ATOM     13  C4* UNL     1       9.315   2.267  23.963  0.00  0.00    +0.175 C 
ATOM     14  C3* UNL     1       9.087   2.013  22.475  0.00  0.00    +0.150 C 
ATOM     15  C2* UNL     1       8.834   0.528  22.404  0.00  0.00    +0.088 C 
BRANCH  14  16
ATOM     16  O3* UNL     1      10.288   2.306  21.754  0.00  0.00    -0.389 OA
ATOM     17  H3* UNL     1      10.206   3.212  21.405  0.00  0.00    +0.210 HD
ENDBRANCH  14  16
BRANCH  13  18
ATOM     18  C5* UNL     1       8.067   2.769  24.694  0.00  0.00    +0.190 C 
BRANCH  18  19
ATOM     19  O5* UNL     1       8.039   2.310  26.044  0.00  0.00    -0.392 OA
ATOM     20  H5* UNL     1       8.861   1.801  26.173  0.00  0.00    +0.210 HD
ENDBRANCH  18  19
ENDBRANCH  13  18
ENDBRANCH   7  11
TORSDOF 4
ENDMDL
MODEL 9
REMARK VINA RESULT:      -5.4      3.927      6.005
REMARK  Name = 
REMARK  4 active torsions:
REMARK  status: ('A' for Active; 'I' for Inactive)
REMARK    1  A    between atoms: N_6  and  C1*_9
REMARK    2  A    between atoms: C3*_12  and  O3*_14
REMARK    3  A    between atoms: C4*_15  and  C5*_17
REMARK    4  A    between atoms: C5*_17  and  O5*_18
REMARK                            x       y       z     vdW  Elec       q    Type
REMARK                         _______ _______ _______ _____ _____    ______ ____
ROOT
ATOM      1  N   UNL     1      10.297  -1.052  22.625  0.00  0.00    -0.327 N 
ATOM      2  H   UNL     1       9.953  -0.728  21.731  0.00  0.00    +0.145 HD
ATOM      3  H   UNL     1      11.299  -1.188  22.671  0.00  0.00    +0.145 HD
ATOM      4  C   UNL     1       9.597  -2.098  23.120  0.00  0.00    +0.218 A 
ATOM      5  N   UNL     1       8.324  -2.244  22.683  0.00  0.00    -0.205 NA
ATOM      6  C   UNL     1       7.605  -3.117  23.293  0.00  0.00    +0.209 A 
ATOM      7  N   UNL     1       8.058  -3.895  24.305  0.00  0.00    -0.256 N 
ATOM      8  C   UNL     1       9.425  -3.954  24.435  0.00  0.00    +0.354 A 
ATOM      9  O   UNL     1       9.980  -4.920  24.954  0.00  0.00    -0.244 OA
ATOM     10  N   UNL     1      10.156  -2.911  23.946  0.00  0.00    -0.159 NA
ENDROOT
BRANCH   7  11
ATOM     11  C1* UNL     1       7.251  -4.971  24.856  0.00  0.00    +0.228 C 
ATOM     12  O4* UNL     1       6.403  -5.514  23.826  0.00  0.00    -0.348 OA
ATOM     13  C4* UNL     1       5.138  -5.899  24.413  0.00  0.00    +0.175 C 
ATOM     14  C3* UNL     1       5.213  -5.564  25.900  0.00  0.00    +0.150 C 
ATOM     15  C2* UNL     1       6.309  -4.531  25.975  0.00  0.00    +0.088 C 
BRANCH  14  16
ATOM     16  O3* UNL     1       5.629  -6.724  26.627  0.00  0.00    -0.389 OA
ATOM     17  H3* UNL     1       6.188  -7.258  26.033  0.00  0.00    +0.210 HD
ENDBRANCH  14  16
BRANCH  13  18
ATOM     18  C5* UNL     1       4.034  -5.141  23.671  0.00  0.00    +0.190 C 
BRANCH  18  19
ATOM     19  O5* UNL     1       4.483  -4.687  22.397  0.00  0.00    -0.392 OA
ATOM     20  H5* UNL     1       5.122  -3.972  22.574  0.00  0.00    +0.210 HD
ENDBRANCH  18  19
ENDBRANCH  13  18
ENDBRANCH   7  11
TORSDOF 4
ENDMDL
