MODEL 1
REMARK VINA RESULT:      -7.3      0.000      0.000
REMARK  Name = 
REMARK  5 active torsions:
REMARK  status: ('A' for Active; 'I' for Inactive)
REMARK    1  A    between atoms: C_3  and  C_4
REMARK    2  A    between atoms: C_4  and  C_5
REMARK    3  A    between atoms: C_18  and  O_19
REMARK    4  A    between atoms: O_19  and  C_20
REMARK    5  A    between atoms: C_22  and  C_27
REMARK                            x       y       z     vdW  Elec       q    Type
REMARK                         _______ _______ _______ _____ _____    ______ ____
ROOT
ATOM      1  F   UNL     1       9.292  -3.585  26.418  0.00  0.00    -0.201 F 
ATOM      2  C   UNL     1       8.118  -2.949  26.564  0.00  0.00    +0.170 A 
ATOM      3  C   UNL     1       8.068  -1.549  26.569  0.00  0.00    +0.178 A 
ATOM      4  C   UNL     1       6.863  -0.927  26.913  0.00  0.00    +0.063 A 
ATOM      5 BR   UNL     1       6.739   0.958  27.102  0.00  0.00    -0.046 Br
ATOM      6  C   UNL     1       5.712  -1.687  27.135  0.00  0.00    +0.019 A 
ATOM      7  C   UNL     1       5.753  -3.075  26.986  0.00  0.00    +0.008 A 
ATOM      8  C   UNL     1       6.962  -3.724  26.696  0.00  0.00    -0.003 A 
ENDROOT
BRANCH   3   9
ATOM      9  O   UNL     1       9.152  -0.753  26.290  0.00  0.00    -0.452 OA
BRANCH   9  10
ATOM     10  C   UNL     1       9.404  -0.348  24.999  0.00  0.00    +0.131 A 
ATOM     11  C   UNL     1       9.155  -1.091  23.845  0.00  0.00    +0.066 A 
ATOM     12  C   UNL     1       9.516  -0.579  22.597  0.00  0.00    +0.046 A 
ATOM     13 CL   UNL     1       9.170  -1.455  21.165  0.00  0.00    -0.083 Cl
ATOM     14  C   UNL     1      10.121   0.669  22.491  0.00  0.00    +0.039 A 
ATOM     15  C   UNL     1      10.276   1.450  23.633  0.00  0.00    +0.057 A 
ATOM     16  C   UNL     1       9.913   0.951  24.885  0.00  0.00    +0.065 A 
BRANCH  15  17
ATOM     17  C   UNL     1      10.797   2.768  23.522  0.00  0.00    +0.099 C 
ATOM     18  N   UNL     1      11.239   3.834  23.393  0.00  0.00    -0.191 NA
ENDBRANCH  15  17
ENDBRANCH   9  10
ENDBRANCH   3   9
BRANCH   8  19
ATOM     19  C   UNL     1       7.025  -5.216  26.496  0.00  0.00    +0.096 C 
BRANCH  19  20
ATOM     20  C   UNL     1       6.179  -5.531  25.297  0.00  0.00    +0.077 A 
ATOM     21  C   UNL     1       6.357  -5.092  23.950  0.00  0.00    +0.045 A 
ATOM     22  C   UNL     1       5.366  -5.747  23.241  0.00  0.00    +0.178 A 
ATOM     23  N   UNL     1       5.138  -5.667  21.921  0.00  0.00    -0.130 NA
ATOM     24  N   UNL     1       5.954  -4.896  21.228  0.00  0.00    -0.156 NA
ATOM     25  C   UNL     1       6.954  -4.222  21.853  0.00  0.00    +0.136 A 
ATOM     26  N   UNL     1       4.681  -6.498  24.141  0.00  0.00    -0.259 N 
ATOM     27  H   UNL     1       3.904  -7.116  23.949  0.00  0.00    +0.191 HD
ATOM     28  C   UNL     1       7.211  -4.266  23.220  0.00  0.00    +0.035 A 
ATOM     29  N   UNL     1       5.153  -6.397  25.403  0.00  0.00    -0.176 NA
ENDBRANCH  19  20
ENDBRANCH   8  19
TORSDOF 5
ENDMDL
MODEL 2
REMARK VINA RESULT:      -6.9      3.118      7.939
REMARK  Name = 
REMARK  5 active torsions:
REMARK  status: ('A' for Active; 'I' for Inactive)
REMARK    1  A    between atoms: C_3  and  C_4
REMARK    2  A    between atoms: C_4  and  C_5
REMARK    3  A    between atoms: C_18  and  O_19
REMARK    4  A    between atoms: O_19  and  C_20
REMARK    5  A    between atoms: C_22  and  C_27
REMARK                            x       y       z     vdW  Elec       q    Type
REMARK                         _______ _______ _______ _____ _____    ______ ____
ROOT
ATOM      1  F   UNL     1       6.813  -0.275  22.789  0.00  0.00    -0.201 F 
ATOM      2  C   UNL     1       7.963  -0.953  22.937  0.00  0.00    +0.170 A 
ATOM      3  C   UNL     1       8.005  -2.107  23.729  0.00  0.00    +0.178 A 
ATOM      4  C   UNL     1       9.252  -2.674  24.014  0.00  0.00    +0.063 A 
ATOM      5 BR   UNL     1       9.425  -4.143  25.205  0.00  0.00    -0.046 Br
ATOM      6  C   UNL     1      10.413  -2.163  23.427  0.00  0.00    +0.019 A 
ATOM      7  C   UNL     1      10.329  -1.098  22.529  0.00  0.00    +0.008 A 
ATOM      8  C   UNL     1       9.097  -0.479  22.271  0.00  0.00    -0.003 A 
ENDROOT
BRANCH   3   9
ATOM      9  O   UNL     1       6.888  -2.692  24.274  0.00  0.00    -0.452 OA
BRANCH   9  10
ATOM     10  C   UNL     1       6.361  -3.837  23.721  0.00  0.00    +0.131 A 
ATOM     11  C   UNL     1       6.503  -4.245  22.393  0.00  0.00    +0.066 A 
ATOM     12  C   UNL     1       5.865  -5.405  21.951  0.00  0.00    +0.046 A 
ATOM     13 CL   UNL     1       6.070  -5.949  20.338  0.00  0.00    -0.083 Cl
ATOM     14  C   UNL     1       5.087  -6.163  22.821  0.00  0.00    +0.039 A 
ATOM     15  C   UNL     1       5.030  -5.810  24.166  0.00  0.00    +0.057 A 
ATOM     16  C   UNL     1       5.671  -4.655  24.622  0.00  0.00    +0.065 A 
BRANCH  15  17
ATOM     17  C   UNL     1       4.325  -6.634  25.084  0.00  0.00    +0.099 C 
ATOM     18  N   UNL     1       3.746  -7.274  25.861  0.00  0.00    -0.191 NA
ENDBRANCH  15  17
ENDBRANCH   9  10
ENDBRANCH   3   9
BRANCH   8  19
ATOM     19  C   UNL     1       8.975   0.648  21.279  0.00  0.00    +0.096 C 
BRANCH  19  20
ATOM     20  C   UNL     1       9.069   1.927  22.060  0.00  0.00    +0.077 A 
ATOM     21  C   UNL     1       8.023   2.839  22.392  0.00  0.00    +0.045 A 
ATOM     22  C   UNL     1       8.632   3.784  23.196  0.00  0.00    +0.178 A 
ATOM     23  N   UNL     1       8.046   4.845  23.774  0.00  0.00    -0.130 NA
ATOM     24  N   UNL     1       6.752   4.988  23.563  0.00  0.00    -0.156 NA
ATOM     25  C   UNL     1       6.082   4.098  22.787  0.00  0.00    +0.136 A 
ATOM     26  N   UNL     1       9.936   3.420  23.299  0.00  0.00    -0.259 N 
ATOM     27  H   UNL     1      10.657   3.887  23.833  0.00  0.00    +0.191 HD
ATOM     28  C   UNL     1       6.657   2.998  22.158  0.00  0.00    +0.035 A 
ATOM     29  N   UNL     1      10.238   2.288  22.625  0.00  0.00    -0.176 NA
ENDBRANCH  19  20
ENDBRANCH   8  19
TORSDOF 5
ENDMDL
MODEL 3
REMARK VINA RESULT:      -6.8      3.351      5.011
REMARK  Name = 
REMARK  5 active torsions:
REMARK  status: ('A' for Active; 'I' for Inactive)
REMARK    1  A    between atoms: C_3  and  C_4
REMARK    2  A    between atoms: C_4  and  C_5
REMARK    3  A    between atoms: C_18  and  O_19
REMARK    4  A    between atoms: O_19  and  C_20
REMARK    5  A    between atoms: C_22  and  C_27
REMARK                            x       y       z     vdW  Elec       q    Type
REMARK                         _______ _______ _______ _____ _____    ______ ____
ROOT
ATOM      1  F   UNL     1       6.226  -1.655  23.278  0.00  0.00    -0.201 F 
ATOM      2  C   UNL     1       7.528  -1.377  23.451  0.00  0.00    +0.170 A 
ATOM      3  C   UNL     1       7.933  -0.081  23.796  0.00  0.00    +0.178 A 
ATOM      4  C   UNL     1       9.301   0.216  23.779  0.00  0.00    +0.063 A 
ATOM      5 BR   UNL     1       9.937   1.980  24.076  0.00  0.00    -0.046 Br
ATOM      6  C   UNL     1      10.240  -0.790  23.534  0.00  0.00    +0.019 A 
ATOM      7  C   UNL     1       9.817  -2.105  23.332  0.00  0.00    +0.008 A 
ATOM      8  C   UNL     1       8.450  -2.415  23.289  0.00  0.00    -0.003 A 
ENDROOT
BRANCH   3   9
ATOM      9  O   UNL     1       7.056   0.927  24.114  0.00  0.00    -0.452 OA
BRANCH   9  10
ATOM     10  C   UNL     1       6.501   0.996  25.371  0.00  0.00    +0.131 A 
ATOM     11  C   UNL     1       5.601   0.082  25.919  0.00  0.00    +0.066 A 
ATOM     12  C   UNL     1       5.070   0.307  27.191  0.00  0.00    +0.046 A 
ATOM     13 CL   UNL     1       4.003  -0.832  27.902  0.00  0.00    -0.083 Cl
ATOM     14  C   UNL     1       5.430   1.435  27.921  0.00  0.00    +0.039 A 
ATOM     15  C   UNL     1       6.404   2.291  27.414  0.00  0.00    +0.057 A 
ATOM     16  C   UNL     1       6.947   2.073  26.146  0.00  0.00    +0.065 A 
BRANCH  15  17
ATOM     17  C   UNL     1       6.856   3.389  28.196  0.00  0.00    +0.099 C 
ATOM     18  N   UNL     1       7.249   4.299  28.800  0.00  0.00    -0.191 NA
ENDBRANCH  15  17
ENDBRANCH   9  10
ENDBRANCH   3   9
BRANCH   8  19
ATOM     19  C   UNL     1       7.970  -3.831  23.108  0.00  0.00    +0.096 C 
BRANCH  19  20
ATOM     20  C   UNL     1       8.162  -4.528  24.423  0.00  0.00    +0.077 A 
ATOM     21  C   UNL     1       7.355  -4.439  25.597  0.00  0.00    +0.045 A 
ATOM     22  C   UNL     1       7.918  -5.349  26.472  0.00  0.00    +0.178 A 
ATOM     23  N   UNL     1       7.494  -5.638  27.713  0.00  0.00    -0.130 NA
ATOM     24  N   UNL     1       6.420  -4.998  28.131  0.00  0.00    -0.156 NA
ATOM     25  C   UNL     1       5.808  -4.090  27.328  0.00  0.00    +0.136 A 
ATOM     26  N   UNL     1       8.975  -5.904  25.824  0.00  0.00    -0.259 N 
ATOM     27  H   UNL     1       9.592  -6.623  26.175  0.00  0.00    +0.191 HD
ATOM     28  C   UNL     1       6.226  -3.752  26.045  0.00  0.00    +0.035 A 
ATOM     29  N   UNL     1       9.150  -5.433  24.570  0.00  0.00    -0.176 NA
ENDBRANCH  19  20
ENDBRANCH   8  19
TORSDOF 5
ENDMDL
MODEL 4
REMARK VINA RESULT:      -6.8      3.612      5.490
REMARK  Name = 
REMARK  5 active torsions:
REMARK  status: ('A' for Active; 'I' for Inactive)
REMARK    1  A    between atoms: C_3  and  C_4
REMARK    2  A    between atoms: C_4  and  C_5
REMARK    3  A    between atoms: C_18  and  O_19
REMARK    4  A    between atoms: O_19  and  C_20
REMARK    5  A    between atoms: C_22  and  C_27
REMARK                            x       y       z     vdW  Elec       q    Type
REMARK                         _______ _______ _______ _____ _____    ______ ____
ROOT
ATOM      1  F   UNL     1       6.202  -1.585  23.529  0.00  0.00    -0.201 F 
ATOM      2  C   UNL     1       7.512  -1.295  23.571  0.00  0.00    +0.170 A 
ATOM      3  C   UNL     1       7.939  -0.006  23.916  0.00  0.00    +0.178 A 
ATOM      4  C   UNL     1       9.294   0.309  23.764  0.00  0.00    +0.063 A 
ATOM      5 BR   UNL     1       9.941   2.071  24.053  0.00  0.00    -0.046 Br
ATOM      6  C   UNL     1      10.212  -0.674  23.385  0.00  0.00    +0.019 A 
ATOM      7  C   UNL     1       9.783  -1.987  23.183  0.00  0.00    +0.008 A 
ATOM      8  C   UNL     1       8.422  -2.314  23.276  0.00  0.00    -0.003 A 
ENDROOT
BRANCH   3   9
ATOM      9  O   UNL     1       7.091   0.979  24.361  0.00  0.00    -0.452 OA
BRANCH   9  10
ATOM     10  C   UNL     1       6.578   0.931  25.637  0.00  0.00    +0.131 A 
ATOM     11  C   UNL     1       7.295   1.142  26.816  0.00  0.00    +0.066 A 
ATOM     12  C   UNL     1       6.657   1.006  28.050  0.00  0.00    +0.046 A 
ATOM     13 CL   UNL     1       7.508   1.312  29.507  0.00  0.00    -0.083 Cl
ATOM     14  C   UNL     1       5.310   0.662  28.119  0.00  0.00    +0.039 A 
ATOM     15  C   UNL     1       4.575   0.552  26.943  0.00  0.00    +0.057 A 
ATOM     16  C   UNL     1       5.200   0.693  25.702  0.00  0.00    +0.065 A 
BRANCH  15  17
ATOM     17  C   UNL     1       3.177   0.305  27.004  0.00  0.00    +0.099 C 
ATOM     18  N   UNL     1       2.043   0.060  27.060  0.00  0.00    -0.191 NA
ENDBRANCH  15  17
ENDBRANCH   9  10
ENDBRANCH   3   9
BRANCH   8  19
ATOM     19  C   UNL     1       7.939  -3.730  23.097  0.00  0.00    +0.096 C 
BRANCH  19  20
ATOM     20  C   UNL     1       8.177  -4.439  24.398  0.00  0.00    +0.077 A 
ATOM     21  C   UNL     1       7.372  -4.417  25.577  0.00  0.00    +0.045 A 
ATOM     22  C   UNL     1       7.991  -5.310  26.433  0.00  0.00    +0.178 A 
ATOM     23  N   UNL     1       7.590  -5.644  27.670  0.00  0.00    -0.130 NA
ATOM     24  N   UNL     1       6.484  -5.072  28.104  0.00  0.00    -0.156 NA
ATOM     25  C   UNL     1       5.818  -4.186  27.321  0.00  0.00    +0.136 A 
ATOM     26  N   UNL     1       9.073  -5.792  25.769  0.00  0.00    -0.259 N 
ATOM     27  H   UNL     1       9.731  -6.483  26.104  0.00  0.00    +0.191 HD
ATOM     28  C   UNL     1       6.210  -3.802  26.042  0.00  0.00    +0.035 A 
ATOM     29  N   UNL     1       9.214  -5.290  24.524  0.00  0.00    -0.176 NA
ENDBRANCH  19  20
ENDBRANCH   8  19
TORSDOF 5
ENDMDL
MODEL 5
REMARK VINA RESULT:      -6.7      3.898      7.898
REMARK  Name = 
REMARK  5 active torsions:
REMARK  status: ('A' for Active; 'I' for Inactive)
REMARK    1  A    between atoms: C_3  and  C_4
REMARK    2  A    between atoms: C_4  and  C_5
REMARK    3  A    between atoms: C_18  and  O_19
REMARK    4  A    between atoms: O_19  and  C_20
REMARK    5  A    between atoms: C_22  and  C_27
REMARK                            x       y       z     vdW  Elec       q    Type
REMARK                         _______ _______ _______ _____ _____    ______ ____
ROOT
ATOM      1  F   UNL     1       8.171  -2.769  26.339  0.00  0.00    -0.201 F 
ATOM      2  C   UNL     1       7.816  -2.742  25.045  0.00  0.00    +0.170 A 
ATOM      3  C   UNL     1       7.526  -3.932  24.366  0.00  0.00    +0.178 A 
ATOM      4  C   UNL     1       7.348  -3.882  22.979  0.00  0.00    +0.063 A 
ATOM      5 BR   UNL     1       7.110  -5.461  21.952  0.00  0.00    -0.046 Br
ATOM      6  C   UNL     1       7.348  -2.655  22.310  0.00  0.00    +0.019 A 
ATOM      7  C   UNL     1       7.498  -1.468  23.029  0.00  0.00    +0.008 A 
ATOM      8  C   UNL     1       7.733  -1.498  24.411  0.00  0.00    -0.003 A 
ENDROOT
BRANCH   3   9
ATOM      9  O   UNL     1       7.445  -5.156  24.986  0.00  0.00    -0.452 OA
BRANCH   9  10
ATOM     10  C   UNL     1       6.370  -5.460  25.788  0.00  0.00    +0.131 A 
ATOM     11  C   UNL     1       5.036  -5.523  25.380  0.00  0.00    +0.066 A 
ATOM     12  C   UNL     1       4.036  -5.788  26.317  0.00  0.00    +0.046 A 
ATOM     13 CL   UNL     1       2.398  -5.921  25.825  0.00  0.00    -0.083 Cl
ATOM     14  C   UNL     1       4.352  -5.991  27.656  0.00  0.00    +0.039 A 
ATOM     15  C   UNL     1       5.689  -6.028  28.041  0.00  0.00    +0.057 A 
ATOM     16  C   UNL     1       6.700  -5.771  27.112  0.00  0.00    +0.065 A 
BRANCH  15  17
ATOM     17  C   UNL     1       6.029  -6.338  29.386  0.00  0.00    +0.099 C 
ATOM     18  N   UNL     1       6.296  -6.634  30.477  0.00  0.00    -0.191 NA
ENDBRANCH  15  17
ENDBRANCH   9  10
ENDBRANCH   3   9
BRANCH   8  19
ATOM     19  C   UNL     1       7.864  -0.230  25.215  0.00  0.00    +0.096 C 
BRANCH  19  20
ATOM     20  C   UNL     1       9.074   0.490  24.698  0.00  0.00    +0.077 A 
ATOM     21  C   UNL     1       9.201   1.868  24.349  0.00  0.00    +0.045 A 
ATOM     22  C   UNL     1      10.538   2.021  24.030  0.00  0.00    +0.178 A 
ATOM     23  N   UNL     1      11.148   3.156  23.653  0.00  0.00    -0.130 NA
ATOM     24  N   UNL     1      10.396   4.238  23.597  0.00  0.00    -0.156 NA
ATOM     25  C   UNL     1       9.073   4.169  23.899  0.00  0.00    +0.136 A 
ATOM     26  N   UNL     1      11.114   0.802  24.189  0.00  0.00    -0.259 N 
ATOM     27  H   UNL     1      12.089   0.570  24.057  0.00  0.00    +0.191 HD
ATOM     28  C   UNL     1       8.403   3.010  24.277  0.00  0.00    +0.035 A 
ATOM     29  N   UNL     1      10.254  -0.155  24.602  0.00  0.00    -0.176 NA
ENDBRANCH  19  20
ENDBRANCH   8  19
TORSDOF 5
ENDMDL
MODEL 6
REMARK VINA RESULT:      -6.6      3.620      7.535
REMARK  Name = 
REMARK  5 active torsions:
REMARK  status: ('A' for Active; 'I' for Inactive)
REMARK    1  A    between atoms: C_3  and  C_4
REMARK    2  A    between atoms: C_4  and  C_5
REMARK    3  A    between atoms: C_18  and  O_19
REMARK    4  A    between atoms: O_19  and  C_20
REMARK    5  A    between atoms: C_22  and  C_27
REMARK                            x       y       z     vdW  Elec       q    Type
REMARK                         _______ _______ _______ _____ _____    ______ ____
ROOT
ATOM      1  F   UNL     1       9.263  -4.398  25.355  0.00  0.00    -0.201 F 
ATOM      2  C   UNL     1       8.379  -4.014  24.420  0.00  0.00    +0.170 A 
ATOM      3  C   UNL     1       7.101  -4.587  24.379  0.00  0.00    +0.178 A 
ATOM      4  C   UNL     1       6.280  -4.305  23.281  0.00  0.00    +0.063 A 
ATOM      5 BR   UNL     1       4.598  -5.156  23.057  0.00  0.00    -0.046 Br
ATOM      6  C   UNL     1       6.686  -3.385  22.311  0.00  0.00    +0.019 A 
ATOM      7  C   UNL     1       7.907  -2.720  22.448  0.00  0.00    +0.008 A 
ATOM      8  C   UNL     1       8.770  -3.028  23.509  0.00  0.00    -0.003 A 
ENDROOT
BRANCH   3   9
ATOM      9  O   UNL     1       6.624  -5.442  25.342  0.00  0.00    -0.452 OA
BRANCH   9  10
ATOM     10  C   UNL     1       5.892  -4.959  26.402  0.00  0.00    +0.131 A 
ATOM     11  C   UNL     1       5.641  -3.614  26.677  0.00  0.00    +0.066 A 
ATOM     12  C   UNL     1       4.928  -3.261  27.824  0.00  0.00    +0.046 A 
ATOM     13 CL   UNL     1       4.564  -1.617  28.151  0.00  0.00    -0.083 Cl
ATOM     14  C   UNL     1       4.463  -4.238  28.700  0.00  0.00    +0.039 A 
ATOM     15  C   UNL     1       4.627  -5.580  28.371  0.00  0.00    +0.057 A 
ATOM     16  C   UNL     1       5.332  -5.946  27.222  0.00  0.00    +0.065 A 
BRANCH  15  17
ATOM     17  C   UNL     1       4.065  -6.586  29.203  0.00  0.00    +0.099 C 
ATOM     18  N   UNL     1       3.621  -7.438  29.855  0.00  0.00    -0.191 NA
ENDBRANCH  15  17
ENDBRANCH   9  10
ENDBRANCH   3   9
BRANCH   8  19
ATOM     19  C   UNL     1      10.075  -2.300  23.699  0.00  0.00    +0.096 C 
BRANCH  19  20
ATOM     20  C   UNL     1       9.743  -0.953  24.272  0.00  0.00    +0.077 A 
ATOM     21  C   UNL     1       9.754   0.315  23.617  0.00  0.00    +0.045 A 
ATOM     22  C   UNL     1       9.277   1.198  24.567  0.00  0.00    +0.178 A 
ATOM     23  N   UNL     1       9.088   2.519  24.413  0.00  0.00    -0.130 NA
ATOM     24  N   UNL     1       9.374   3.018  23.226  0.00  0.00    -0.156 NA
ATOM     25  C   UNL     1       9.844   2.213  22.239  0.00  0.00    +0.136 A 
ATOM     26  N   UNL     1       9.022   0.465  25.681  0.00  0.00    -0.259 N 
ATOM     27  H   UNL     1       8.644   0.802  26.556  0.00  0.00    +0.191 HD
ATOM     28  C   UNL     1      10.068   0.846  22.365  0.00  0.00    +0.035 A 
ATOM     29  N   UNL     1       9.287  -0.852  25.537  0.00  0.00    -0.176 NA
ENDBRANCH  19  20
ENDBRANCH   8  19
TORSDOF 5
ENDMDL
MODEL 7
REMARK VINA RESULT:      -6.6      3.405      8.105
REMARK  Name = 
REMARK  5 active torsions:
REMARK  status: ('A' for Active; 'I' for Inactive)
REMARK    1  A    between atoms: C_3  and  C_4
REMARK    2  A    between atoms: C_4  and  C_5
REMARK    3  A    between atoms: C_18  and  O_19
REMARK    4  A    between atoms: O_19  and  C_20
REMARK    5  A    between atoms: C_22  and  C_27
REMARK                            x       y       z     vdW  Elec       q    Type
REMARK                         _______ _______ _______ _____ _____    ______ ____
ROOT
ATOM      1  F   UNL     1       8.064  -2.908  26.395  0.00  0.00    -0.201 F 
ATOM      2  C   UNL     1       7.757  -2.882  25.088  0.00  0.00    +0.170 A 
ATOM      3  C   UNL     1       7.503  -4.075  24.399  0.00  0.00    +0.178 A 
ATOM      4  C   UNL     1       7.376  -4.025  23.006  0.00  0.00    +0.063 A 
ATOM      5 BR   UNL     1       7.191  -5.605  21.970  0.00  0.00    -0.046 Br
ATOM      6  C   UNL     1       7.390  -2.798  22.337  0.00  0.00    +0.019 A 
ATOM      7  C   UNL     1       7.503  -1.610  23.062  0.00  0.00    +0.008 A 
ATOM      8  C   UNL     1       7.687  -1.639  24.452  0.00  0.00    -0.003 A 
ENDROOT
BRANCH   3   9
ATOM      9  O   UNL     1       7.409  -5.299  25.014  0.00  0.00    -0.452 OA
BRANCH   9  10
ATOM     10  C   UNL     1       6.278  -5.640  25.719  0.00  0.00    +0.131 A 
ATOM     11  C   UNL     1       5.984  -5.260  27.029  0.00  0.00    +0.066 A 
ATOM     12  C   UNL     1       4.821  -5.727  27.643  0.00  0.00    +0.046 A 
ATOM     13 CL   UNL     1       4.418  -5.230  29.234  0.00  0.00    -0.083 Cl
ATOM     14  C   UNL     1       3.947  -6.568  26.962  0.00  0.00    +0.039 A 
ATOM     15  C   UNL     1       4.190  -6.863  25.624  0.00  0.00    +0.057 A 
ATOM     16  C   UNL     1       5.347  -6.396  24.996  0.00  0.00    +0.065 A 
BRANCH  15  17
ATOM     17  C   UNL     1       3.251  -7.635  24.888  0.00  0.00    +0.099 C 
ATOM     18  N   UNL     1       2.451  -8.247  24.310  0.00  0.00    -0.191 NA
ENDBRANCH  15  17
ENDBRANCH   9  10
ENDBRANCH   3   9
BRANCH   8  19
ATOM     19  C   UNL     1       7.776  -0.371  25.260  0.00  0.00    +0.096 C 
BRANCH  19  20
ATOM     20  C   UNL     1       8.996   0.364  24.785  0.00  0.00    +0.077 A 
ATOM     21  C   UNL     1       9.094   1.712  24.327  0.00  0.00    +0.045 A 
ATOM     22  C   UNL     1      10.446   1.905  24.110  0.00  0.00    +0.178 A 
ATOM     23  N   UNL     1      11.038   3.033  23.686  0.00  0.00    -0.130 NA
ATOM     24  N   UNL     1      10.247   4.067  23.471  0.00  0.00    -0.156 NA
ATOM     25  C   UNL     1       8.908   3.956  23.665  0.00  0.00    +0.136 A 
ATOM     26  N   UNL     1      11.057   0.733  24.424  0.00  0.00    -0.259 N 
ATOM     27  H   UNL     1      12.049   0.540  24.396  0.00  0.00    +0.191 HD
ATOM     28  C   UNL     1       8.256   2.802  24.087  0.00  0.00    +0.035 A 
ATOM     29  N   UNL     1      10.206  -0.227  24.847  0.00  0.00    -0.176 NA
ENDBRANCH  19  20
ENDBRANCH   8  19
TORSDOF 5
ENDMDL
MODEL 8
REMARK VINA RESULT:      -6.6      4.274      5.771
REMARK  Name = 
REMARK  5 active torsions:
REMARK  status: ('A' for Active; 'I' for Inactive)
REMARK    1  A    between atoms: C_3  and  C_4
REMARK    2  A    between atoms: C_4  and  C_5
REMARK    3  A    between atoms: C_18  and  O_19
REMARK    4  A    between atoms: O_19  and  C_20
REMARK    5  A    between atoms: C_22  and  C_27
REMARK                            x       y       z     vdW  Elec       q    Type
REMARK                         _______ _______ _______ _____ _____    ______ ____
ROOT
ATOM      1  F   UNL     1       8.754   0.407  20.810  0.00  0.00    -0.201 F 
ATOM      2  C   UNL     1       9.332   0.830  21.946  0.00  0.00    +0.170 A 
ATOM      3  C   UNL     1       9.115   2.136  22.404  0.00  0.00    +0.178 A 
ATOM      4  C   UNL     1       9.880   2.600  23.480  0.00  0.00    +0.063 A 
ATOM      5 BR   UNL     1       9.771   4.401  24.071  0.00  0.00    -0.046 Br
ATOM      6  C   UNL     1      10.756   1.740  24.149  0.00  0.00    +0.019 A 
ATOM      7  C   UNL     1      10.850   0.402  23.761  0.00  0.00    +0.008 A 
ATOM      8  C   UNL     1      10.135  -0.070  22.651  0.00  0.00    -0.003 A 
ENDROOT
BRANCH   3   9
ATOM      9  O   UNL     1       8.215   3.001  21.829  0.00  0.00    -0.452 OA
BRANCH   9  10
ATOM     10  C   UNL     1       7.028   3.293  22.461  0.00  0.00    +0.131 A 
ATOM     11  C   UNL     1       6.264   4.446  22.274  0.00  0.00    +0.066 A 
ATOM     12  C   UNL     1       5.105   4.640  23.027  0.00  0.00    +0.046 A 
ATOM     13 CL   UNL     1       4.126   6.025  22.774  0.00  0.00    -0.083 Cl
ATOM     14  C   UNL     1       4.700   3.694  23.963  0.00  0.00    +0.039 A 
ATOM     15  C   UNL     1       5.407   2.500  24.075  0.00  0.00    +0.057 A 
ATOM     16  C   UNL     1       6.565   2.291  23.322  0.00  0.00    +0.065 A 
BRANCH  15  17
ATOM     17  C   UNL     1       4.943   1.483  24.952  0.00  0.00    +0.099 C 
ATOM     18  N   UNL     1       4.568   0.623  25.636  0.00  0.00    -0.191 NA
ENDBRANCH  15  17
ENDBRANCH   9  10
ENDBRANCH   3   9
BRANCH   8  19
ATOM     19  C   UNL     1      10.193  -1.517  22.235  0.00  0.00    +0.096 C 
BRANCH  19  20
ATOM     20  C   UNL     1       9.490  -2.305  23.301  0.00  0.00    +0.077 A 
ATOM     21  C   UNL     1       8.091  -2.368  23.576  0.00  0.00    +0.045 A 
ATOM     22  C   UNL     1       7.980  -3.307  24.585  0.00  0.00    +0.178 A 
ATOM     23  N   UNL     1       6.847  -3.725  25.171  0.00  0.00    -0.130 NA
ATOM     24  N   UNL     1       5.724  -3.195  24.726  0.00  0.00    -0.156 NA
ATOM     25  C   UNL     1       5.751  -2.267  23.735  0.00  0.00    +0.136 A 
ATOM     26  N   UNL     1       9.240  -3.734  24.854  0.00  0.00    -0.259 N 
ATOM     27  H   UNL     1       9.512  -4.437  25.528  0.00  0.00    +0.191 HD
ATOM     28  C   UNL     1       6.904  -1.797  23.115  0.00  0.00    +0.035 A 
ATOM     29  N   UNL     1      10.186  -3.151  24.086  0.00  0.00    -0.176 NA
ENDBRANCH  19  20
ENDBRANCH   8  19
TORSDOF 5
ENDMDL
MODEL 9
REMARK VINA RESULT:      -6.6      3.437      8.480
REMARK  Name = 
REMARK  5 active torsions:
REMARK  status: ('A' for Active; 'I' for Inactive)
REMARK    1  A    between atoms: C_3  and  C_4
REMARK    2  A    between atoms: C_4  and  C_5
REMARK    3  A    between atoms: C_18  and  O_19
REMARK    4  A    between atoms: O_19  and  C_20
REMARK    5  A    between atoms: C_22  and  C_27
REMARK                            x       y       z     vdW  Elec       q    Type
REMARK                         _______ _______ _______ _____ _____    ______ ____
ROOT
ATOM      1  F   UNL     1       6.794   1.592  24.946  0.00  0.00    -0.201 F 
ATOM      2  C   UNL     1       7.477   1.279  23.832  0.00  0.00    +0.170 A 
ATOM      3  C   UNL     1       8.291   0.139  23.800  0.00  0.00    +0.178 A 
ATOM      4  C   UNL     1       9.130  -0.049  22.697  0.00  0.00    +0.063 A 
ATOM      5 BR   UNL     1      10.382  -1.475  22.635  0.00  0.00    -0.046 Br
ATOM      6  C   UNL     1       9.071   0.822  21.606  0.00  0.00    +0.019 A 
ATOM      7  C   UNL     1       8.150   1.872  21.601  0.00  0.00    +0.008 A 
ATOM      8  C   UNL     1       7.338   2.112  22.718  0.00  0.00    -0.003 A 
ENDROOT
BRANCH   3   9
ATOM      9  O   UNL     1       8.336  -0.787  24.814  0.00  0.00    -0.452 OA
BRANCH   9  10
ATOM     10  C   UNL     1       7.578  -1.933  24.745  0.00  0.00    +0.131 A 
ATOM     11  C   UNL     1       6.664  -2.250  23.739  0.00  0.00    +0.066 A 
ATOM     12  C   UNL     1       5.917  -3.427  23.825  0.00  0.00    +0.046 A 
ATOM     13 CL   UNL     1       4.828  -3.858  22.573  0.00  0.00    -0.083 Cl
ATOM     14  C   UNL     1       6.074  -4.290  24.905  0.00  0.00    +0.039 A 
ATOM     15  C   UNL     1       7.057  -4.022  25.853  0.00  0.00    +0.057 A 
ATOM     16  C   UNL     1       7.816  -2.852  25.774  0.00  0.00    +0.065 A 
BRANCH  15  17
ATOM     17  C   UNL     1       7.298  -4.949  26.902  0.00  0.00    +0.099 C 
ATOM     18  N   UNL     1       7.455  -5.699  27.775  0.00  0.00    -0.191 NA
ENDBRANCH  15  17
ENDBRANCH   9  10
ENDBRANCH   3   9
BRANCH   8  19
ATOM     19  C   UNL     1       6.312   3.215  22.723  0.00  0.00    +0.096 C 
BRANCH  19  20
ATOM     20  C   UNL     1       7.067   4.511  22.787  0.00  0.00    +0.077 A 
ATOM     21  C   UNL     1       7.764   5.075  23.897  0.00  0.00    +0.045 A 
ATOM     22  C   UNL     1       8.357   6.216  23.389  0.00  0.00    +0.178 A 
ATOM     23  N   UNL     1       9.138   7.080  24.056  0.00  0.00    -0.130 NA
ATOM     24  N   UNL     1       9.376   6.800  25.323  0.00  0.00    -0.156 NA
ATOM     25  C   UNL     1       8.832   5.694  25.894  0.00  0.00    +0.136 A 
ATOM     26  N   UNL     1       8.005   6.281  22.079  0.00  0.00    -0.259 N 
ATOM     27  H   UNL     1       8.288   6.984  21.410  0.00  0.00    +0.191 HD
ATOM     28  C   UNL     1       8.005   4.786  25.241  0.00  0.00    +0.035 A 
ATOM     29  N   UNL     1       7.225   5.255  21.674  0.00  0.00    -0.176 NA
ENDBRANCH  19  20
ENDBRANCH   8  19
TORSDOF 5
ENDMDL
