MODEL 1
REMARK VINA RESULT:      -5.6      0.000      0.000
REMARK  Name = 
REMARK  15 active torsions:
REMARK  status: ('A' for Active; 'I' for Inactive)
REMARK    1  A    between atoms: C_2  and  C_3
REMARK    2  A    between atoms: C_2  and  C_4
REMARK    3  A    between atoms: C_2  and  C_18
REMARK    4  A    between atoms: C_5  and  C_6
REMARK    5  A    between atoms: C_5  and  C_7
REMARK    6  A    between atoms: C_8  and  C_9
REMARK    7  A    between atoms: C_9  and  N_11
REMARK    8  A    between atoms: C_9  and  C_12
REMARK    9  A    between atoms: C_12  and  C_14
REMARK   10  A    between atoms: C_12  and  C_15
REMARK   11  A    between atoms: C_15  and  O_16
REMARK   12  A    between atoms: C_18  and  C_20
REMARK   13  A    between atoms: C_18  and  O_27
REMARK   14  A    between atoms: C_20  and  C_21
REMARK   15  A    between atoms: O_27  and  C_28
REMARK                            x       y       z     vdW  Elec       q    Type
REMARK                         _______ _______ _______ _____ _____    ______ ____
ROOT
ATOM      1  C   UNL     1       6.773  -1.182  23.302  0.00  0.00    -0.018 C 
ATOM      2  C   UNL     1       6.687  -0.465  24.448  0.00  0.00    -0.054 C 
ATOM      3  C   UNL     1       7.003  -1.026  25.812  0.00  0.00    +0.043 C 
ENDROOT
BRANCH   1   4
ATOM      4  C   UNL     1       7.390  -2.564  23.125  0.00  0.00    +0.038 C 
ATOM      5  C   UNL     1       6.345  -3.597  23.596  0.00  0.00    +0.014 C 
BRANCH   4   6
ATOM      6  C   UNL     1       8.741  -2.828  23.861  0.00  0.00    +0.129 C 
BRANCH   6   7
ATOM      7  O   UNL     1       8.916  -4.258  23.937  0.00  0.00    -0.379 OA
ATOM      8  C   UNL     1       9.497  -4.739  25.137  0.00  0.00    +0.194 C 
ENDBRANCH   6   7
BRANCH   6   9
ATOM      9  C   UNL     1       9.974  -2.123  23.238  0.00  0.00    +0.067 C 
BRANCH   9  10
ATOM     10  C   UNL     1      10.029  -0.606  23.162  0.00  0.00    -0.045 A 
ATOM     11  C   UNL     1      10.315   0.107  24.340  0.00  0.00    +0.004 A 
ATOM     12  C   UNL     1      10.469   1.496  24.322  0.00  0.00    +0.000 A 
ATOM     13  C   UNL     1      10.320   2.199  23.131  0.00  0.00    +0.000 A 
ATOM     14  C   UNL     1      10.004   1.514  21.963  0.00  0.00    +0.000 A 
ATOM     15  C   UNL     1       9.861   0.125  21.980  0.00  0.00    +0.004 A 
ENDBRANCH   9  10
ENDBRANCH   6   9
ENDBRANCH   4   6
ENDBRANCH   1   4
BRANCH   2  16
ATOM     16  C   UNL     1       6.337   0.959  24.377  0.00  0.00    +0.000 C 
ATOM     17  C   UNL     1       6.596   1.797  23.354  0.00  0.00    -0.008 C 
BRANCH  17  18
ATOM     18  C   UNL     1       6.125   3.228  23.299  0.00  0.00    +0.087 C 
BRANCH  18  19
ATOM     19  N   UNL     1       5.383   3.390  22.037  0.00  0.00    -0.323 NA
ATOM     20  H   UNL     1       4.408   3.131  22.188  0.00  0.00    +0.119 HD
ATOM     21  H   UNL     1       5.365   4.377  21.777  0.00  0.00    +0.119 HD
ENDBRANCH  18  19
BRANCH  18  22
ATOM     22  C   UNL     1       7.250   4.282  23.393  0.00  0.00    +0.115 C 
ATOM     23  C   UNL     1       7.787   4.580  24.797  0.00  0.00    +0.021 C 
BRANCH  22  24
ATOM     24  C   UNL     1       6.855   5.550  22.664  0.00  0.00    +0.309 C 
ATOM     25  O   UNL     1       6.048   6.353  23.115  0.00  0.00    -0.251 OA
BRANCH  24  26
ATOM     26  O   UNL     1       7.472   5.761  21.483  0.00  0.00    -0.480 OA
ATOM     27  H   UNL     1       8.065   5.040  21.193  0.00  0.00    +0.295 HD
ENDBRANCH  24  26
ENDBRANCH  22  24
ENDBRANCH  18  22
ENDBRANCH  17  18
ENDBRANCH   2  16
TORSDOF 11
ENDMDL
MODEL 2
REMARK VINA RESULT:      -5.5      2.075      6.515
REMARK  Name = 
REMARK  15 active torsions:
REMARK  status: ('A' for Active; 'I' for Inactive)
REMARK    1  A    between atoms: C_2  and  C_3
REMARK    2  A    between atoms: C_2  and  C_4
REMARK    3  A    between atoms: C_2  and  C_18
REMARK    4  A    between atoms: C_5  and  C_6
REMARK    5  A    between atoms: C_5  and  C_7
REMARK    6  A    between atoms: C_8  and  C_9
REMARK    7  A    between atoms: C_9  and  N_11
REMARK    8  A    between atoms: C_9  and  C_12
REMARK    9  A    between atoms: C_12  and  C_14
REMARK   10  A    between atoms: C_12  and  C_15
REMARK   11  A    between atoms: C_15  and  O_16
REMARK   12  A    between atoms: C_18  and  C_20
REMARK   13  A    between atoms: C_18  and  O_27
REMARK   14  A    between atoms: C_20  and  C_21
REMARK   15  A    between atoms: O_27  and  C_28
REMARK                            x       y       z     vdW  Elec       q    Type
REMARK                         _______ _______ _______ _____ _____    ______ ____
ROOT
ATOM      1  C   UNL     1       7.685   2.305  25.338  0.00  0.00    -0.018 C 
ATOM      2  C   UNL     1       6.896   1.679  24.433  0.00  0.00    -0.054 C 
ATOM      3  C   UNL     1       6.367   2.339  23.184  0.00  0.00    +0.043 C 
ENDROOT
BRANCH   1   4
ATOM      4  C   UNL     1       8.357   3.665  25.187  0.00  0.00    +0.038 C 
ATOM      5  C   UNL     1       7.259   4.739  25.332  0.00  0.00    +0.014 C 
BRANCH   4   6
ATOM      6  C   UNL     1       9.149   3.914  23.865  0.00  0.00    +0.129 C 
BRANCH   6   7
ATOM      7  O   UNL     1       9.504   5.312  23.835  0.00  0.00    -0.379 OA
ATOM      8  C   UNL     1      10.889   5.587  23.710  0.00  0.00    +0.194 C 
ENDBRANCH   6   7
BRANCH   6   9
ATOM      9  C   UNL     1      10.380   2.995  23.657  0.00  0.00    +0.067 C 
BRANCH   9  10
ATOM     10  C   UNL     1      10.205   1.605  23.069  0.00  0.00    -0.045 A 
ATOM     11  C   UNL     1      10.572   0.499  23.858  0.00  0.00    +0.004 A 
ATOM     12  C   UNL     1      10.353  -0.807  23.413  0.00  0.00    +0.000 A 
ATOM     13  C   UNL     1       9.781  -1.033  22.166  0.00  0.00    +0.000 A 
ATOM     14  C   UNL     1       9.442   0.047  21.359  0.00  0.00    +0.000 A 
ATOM     15  C   UNL     1       9.652   1.352  21.807  0.00  0.00    +0.004 A 
ENDBRANCH   9  10
ENDBRANCH   6   9
ENDBRANCH   4   6
ENDBRANCH   1   4
BRANCH   2  16
ATOM     16  C   UNL     1       6.585   0.256  24.619  0.00  0.00    +0.000 C 
ATOM     17  C   UNL     1       6.480  -0.675  23.649  0.00  0.00    -0.008 C 
BRANCH  17  18
ATOM     18  C   UNL     1       6.253  -2.142  23.913  0.00  0.00    +0.087 C 
BRANCH  18  19
ATOM     19  N   UNL     1       6.741  -2.416  25.275  0.00  0.00    -0.323 NA
ATOM     20  H   UNL     1       7.073  -1.546  25.692  0.00  0.00    +0.119 HD
ATOM     21  H   UNL     1       5.963  -2.720  25.861  0.00  0.00    +0.119 HD
ENDBRANCH  18  19
BRANCH  18  22
ATOM     22  C   UNL     1       6.933  -3.091  22.903  0.00  0.00    +0.115 C 
ATOM     23  C   UNL     1       6.034  -3.675  21.807  0.00  0.00    +0.021 C 
BRANCH  22  24
ATOM     24  C   UNL     1       7.706  -4.174  23.627  0.00  0.00    +0.309 C 
ATOM     25  O   UNL     1       8.905  -4.091  23.862  0.00  0.00    -0.251 OA
BRANCH  24  26
ATOM     26  O   UNL     1       6.983  -5.240  24.029  0.00  0.00    -0.480 OA
ATOM     27  H   UNL     1       7.273  -5.640  24.872  0.00  0.00    +0.295 HD
ENDBRANCH  24  26
ENDBRANCH  22  24
ENDBRANCH  18  22
ENDBRANCH  17  18
ENDBRANCH   2  16
TORSDOF 11
ENDMDL
MODEL 3
REMARK VINA RESULT:      -5.5      3.874      7.821
REMARK  Name = 
REMARK  15 active torsions:
REMARK  status: ('A' for Active; 'I' for Inactive)
REMARK    1  A    between atoms: C_2  and  C_3
REMARK    2  A    between atoms: C_2  and  C_4
REMARK    3  A    between atoms: C_2  and  C_18
REMARK    4  A    between atoms: C_5  and  C_6
REMARK    5  A    between atoms: C_5  and  C_7
REMARK    6  A    between atoms: C_8  and  C_9
REMARK    7  A    between atoms: C_9  and  N_11
REMARK    8  A    between atoms: C_9  and  C_12
REMARK    9  A    between atoms: C_12  and  C_14
REMARK   10  A    between atoms: C_12  and  C_15
REMARK   11  A    between atoms: C_15  and  O_16
REMARK   12  A    between atoms: C_18  and  C_20
REMARK   13  A    between atoms: C_18  and  O_27
REMARK   14  A    between atoms: C_20  and  C_21
REMARK   15  A    between atoms: O_27  and  C_28
REMARK                            x       y       z     vdW  Elec       q    Type
REMARK                         _______ _______ _______ _____ _____    ______ ____
ROOT
ATOM      1  C   UNL     1       9.002  -1.772  25.350  0.00  0.00    -0.018 C 
ATOM      2  C   UNL     1       7.734  -1.581  25.787  0.00  0.00    -0.054 C 
ATOM      3  C   UNL     1       6.867  -0.423  25.361  0.00  0.00    +0.043 C 
ENDROOT
BRANCH   1   4
ATOM      4  C   UNL     1       9.708  -1.028  24.223  0.00  0.00    +0.038 C 
ATOM      5  C   UNL     1      10.187   0.323  24.795  0.00  0.00    +0.014 C 
BRANCH   4   6
ATOM      6  C   UNL     1       8.881  -0.773  22.924  0.00  0.00    +0.129 C 
BRANCH   6   7
ATOM      7  O   UNL     1       9.566   0.251  22.173  0.00  0.00    -0.379 OA
ATOM      8  C   UNL     1       8.731   1.193  21.522  0.00  0.00    +0.194 C 
ENDBRANCH   6   7
BRANCH   6   9
ATOM      9  C   UNL     1       8.602  -2.035  22.068  0.00  0.00    +0.067 C 
BRANCH   9  10
ATOM     10  C   UNL     1       7.465  -2.972  22.437  0.00  0.00    -0.045 A 
ATOM     11  C   UNL     1       7.783  -4.298  22.782  0.00  0.00    +0.004 A 
ATOM     12  C   UNL     1       6.795  -5.186  23.218  0.00  0.00    +0.000 A 
ATOM     13  C   UNL     1       5.470  -4.770  23.298  0.00  0.00    +0.000 A 
ATOM     14  C   UNL     1       5.132  -3.473  22.929  0.00  0.00    +0.000 A 
ATOM     15  C   UNL     1       6.121  -2.584  22.504  0.00  0.00    +0.004 A 
ENDBRANCH   9  10
ENDBRANCH   6   9
ENDBRANCH   4   6
ENDBRANCH   1   4
BRANCH   2  16
ATOM     16  C   UNL     1       7.123  -2.583  26.670  0.00  0.00    +0.000 C 
ATOM     17  C   UNL     1       7.149  -3.920  26.503  0.00  0.00    -0.008 C 
BRANCH  17  18
ATOM     18  C   UNL     1       6.586  -4.903  27.497  0.00  0.00    +0.087 C 
BRANCH  18  19
ATOM     19  N   UNL     1       7.601  -5.952  27.691  0.00  0.00    -0.323 NA
ATOM     20  H   UNL     1       8.449  -5.529  28.069  0.00  0.00    +0.119 HD
ATOM     21  H   UNL     1       7.283  -6.607  28.406  0.00  0.00    +0.119 HD
ENDBRANCH  18  19
BRANCH  18  22
ATOM     22  C   UNL     1       5.239  -5.537  27.086  0.00  0.00    +0.115 C 
ATOM     23  C   UNL     1       4.150  -4.570  26.608  0.00  0.00    +0.021 C 
BRANCH  22  24
ATOM     24  C   UNL     1       4.730  -6.460  28.173  0.00  0.00    +0.309 C 
ATOM     25  O   UNL     1       3.773  -6.185  28.886  0.00  0.00    -0.251 OA
BRANCH  24  26
ATOM     26  O   UNL     1       5.385  -7.633  28.298  0.00  0.00    -0.480 OA
ATOM     27  H   UNL     1       5.029  -8.233  28.983  0.00  0.00    +0.295 HD
ENDBRANCH  24  26
ENDBRANCH  22  24
ENDBRANCH  18  22
ENDBRANCH  17  18
ENDBRANCH   2  16
TORSDOF 11
ENDMDL
MODEL 4
REMARK VINA RESULT:      -5.4      2.837      5.013
REMARK  Name = 
REMARK  15 active torsions:
REMARK  status: ('A' for Active; 'I' for Inactive)
REMARK    1  A    between atoms: C_2  and  C_3
REMARK    2  A    between atoms: C_2  and  C_4
REMARK    3  A    between atoms: C_2  and  C_18
REMARK    4  A    between atoms: C_5  and  C_6
REMARK    5  A    between atoms: C_5  and  C_7
REMARK    6  A    between atoms: C_8  and  C_9
REMARK    7  A    between atoms: C_9  and  N_11
REMARK    8  A    between atoms: C_9  and  C_12
REMARK    9  A    between atoms: C_12  and  C_14
REMARK   10  A    between atoms: C_12  and  C_15
REMARK   11  A    between atoms: C_15  and  O_16
REMARK   12  A    between atoms: C_18  and  C_20
REMARK   13  A    between atoms: C_18  and  O_27
REMARK   14  A    between atoms: C_20  and  C_21
REMARK   15  A    between atoms: O_27  and  C_28
REMARK                            x       y       z     vdW  Elec       q    Type
REMARK                         _______ _______ _______ _____ _____    ______ ____
ROOT
ATOM      1  C   UNL     1       7.318  -1.610  24.887  0.00  0.00    -0.018 C 
ATOM      2  C   UNL     1       7.325  -1.262  23.578  0.00  0.00    -0.054 C 
ATOM      3  C   UNL     1       6.511  -1.964  22.520  0.00  0.00    +0.043 C 
ENDROOT
BRANCH   1   4
ATOM      4  C   UNL     1       6.369  -2.585  25.574  0.00  0.00    +0.038 C 
ATOM      5  C   UNL     1       5.414  -1.753  26.455  0.00  0.00    +0.014 C 
BRANCH   4   6
ATOM      6  C   UNL     1       7.022  -3.707  26.441  0.00  0.00    +0.129 C 
BRANCH   6   7
ATOM      7  O   UNL     1       6.208  -3.865  27.622  0.00  0.00    -0.379 OA
ATOM      8  C   UNL     1       5.894  -5.202  27.972  0.00  0.00    +0.194 C 
ENDBRANCH   6   7
BRANCH   6   9
ATOM      9  C   UNL     1       7.249  -5.053  25.705  0.00  0.00    +0.067 C 
BRANCH   9  10
ATOM     10  C   UNL     1       6.726  -5.249  24.292  0.00  0.00    -0.045 A 
ATOM     11  C   UNL     1       7.658  -5.294  23.240  0.00  0.00    +0.004 A 
ATOM     12  C   UNL     1       7.253  -5.560  21.929  0.00  0.00    +0.000 A 
ATOM     13  C   UNL     1       5.907  -5.768  21.644  0.00  0.00    +0.000 A 
ATOM     14  C   UNL     1       4.968  -5.695  22.666  0.00  0.00    +0.000 A 
ATOM     15  C   UNL     1       5.375  -5.439  23.977  0.00  0.00    +0.004 A 
ENDBRANCH   9  10
ENDBRANCH   6   9
ENDBRANCH   4   6
ENDBRANCH   1   4
BRANCH   2  16
ATOM     16  C   UNL     1       8.105  -0.093  23.153  0.00  0.00    +0.000 C 
ATOM     17  C   UNL     1       7.616   1.054  22.642  0.00  0.00    -0.008 C 
BRANCH  17  18
ATOM     18  C   UNL     1       8.463   2.258  22.315  0.00  0.00    +0.087 C 
BRANCH  18  19
ATOM     19  N   UNL     1       9.541   1.797  21.424  0.00  0.00    -0.323 NA
ATOM     20  H   UNL     1      10.384   2.340  21.611  0.00  0.00    +0.119 HD
ATOM     21  H   UNL     1       9.783   0.832  21.652  0.00  0.00    +0.119 HD
ENDBRANCH  18  19
BRANCH  18  22
ATOM     22  C   UNL     1       9.060   2.980  23.542  0.00  0.00    +0.115 C 
ATOM     23  C   UNL     1       8.678   4.454  23.716  0.00  0.00    +0.021 C 
BRANCH  22  24
ATOM     24  C   UNL     1      10.560   2.780  23.600  0.00  0.00    +0.309 C 
ATOM     25  O   UNL     1      11.360   3.617  23.201  0.00  0.00    -0.251 OA
BRANCH  24  26
ATOM     26  O   UNL     1      10.974   1.620  24.151  0.00  0.00    -0.480 OA
ATOM     27  H   UNL     1      10.808   0.824  23.608  0.00  0.00    +0.295 HD
ENDBRANCH  24  26
ENDBRANCH  22  24
ENDBRANCH  18  22
ENDBRANCH  17  18
ENDBRANCH   2  16
TORSDOF 11
ENDMDL
MODEL 5
REMARK VINA RESULT:      -5.4      2.328      6.729
REMARK  Name = 
REMARK  15 active torsions:
REMARK  status: ('A' for Active; 'I' for Inactive)
REMARK    1  A    between atoms: C_2  and  C_3
REMARK    2  A    between atoms: C_2  and  C_4
REMARK    3  A    between atoms: C_2  and  C_18
REMARK    4  A    between atoms: C_5  and  C_6
REMARK    5  A    between atoms: C_5  and  C_7
REMARK    6  A    between atoms: C_8  and  C_9
REMARK    7  A    between atoms: C_9  and  N_11
REMARK    8  A    between atoms: C_9  and  C_12
REMARK    9  A    between atoms: C_12  and  C_14
REMARK   10  A    between atoms: C_12  and  C_15
REMARK   11  A    between atoms: C_15  and  O_16
REMARK   12  A    between atoms: C_18  and  C_20
REMARK   13  A    between atoms: C_18  and  O_27
REMARK   14  A    between atoms: C_20  and  C_21
REMARK   15  A    between atoms: O_27  and  C_28
REMARK                            x       y       z     vdW  Elec       q    Type
REMARK                         _______ _______ _______ _____ _____    ______ ____
ROOT
ATOM      1  C   UNL     1       6.309   0.967  23.208  0.00  0.00    -0.018 C 
ATOM      2  C   UNL     1       6.484  -0.029  24.109  0.00  0.00    -0.054 C 
ATOM      3  C   UNL     1       6.901   0.199  25.540  0.00  0.00    +0.043 C 
ENDROOT
BRANCH   1   4
ATOM      4  C   UNL     1       6.276   2.465  23.489  0.00  0.00    +0.038 C 
ATOM      5  C   UNL     1       4.794   2.886  23.564  0.00  0.00    +0.014 C 
BRANCH   4   6
ATOM      6  C   UNL     1       7.022   3.386  22.472  0.00  0.00    +0.129 C 
BRANCH   6   7
ATOM      7  O   UNL     1       6.464   4.710  22.603  0.00  0.00    -0.379 OA
ATOM      8  C   UNL     1       7.275   5.765  22.117  0.00  0.00    +0.194 C 
ENDBRANCH   6   7
BRANCH   6   9
ATOM      9  C   UNL     1       8.567   3.389  22.603  0.00  0.00    +0.067 C 
BRANCH   9  10
ATOM     10  C   UNL     1       9.317   2.087  22.828  0.00  0.00    -0.045 A 
ATOM     11  C   UNL     1       9.860   1.846  24.103  0.00  0.00    +0.004 A 
ATOM     12  C   UNL     1      10.483   0.631  24.403  0.00  0.00    +0.000 A 
ATOM     13  C   UNL     1      10.591  -0.357  23.430  0.00  0.00    +0.000 A 
ATOM     14  C   UNL     1      10.088  -0.123  22.155  0.00  0.00    +0.000 A 
ATOM     15  C   UNL     1       9.457   1.086  21.859  0.00  0.00    +0.004 A 
ENDBRANCH   9  10
ENDBRANCH   6   9
ENDBRANCH   4   6
ENDBRANCH   1   4
BRANCH   2  16
ATOM     16  C   UNL     1       6.188  -1.412  23.712  0.00  0.00    +0.000 C 
ATOM     17  C   UNL     1       6.805  -2.118  22.744  0.00  0.00    -0.008 C 
BRANCH  17  18
ATOM     18  C   UNL     1       6.521  -3.568  22.449  0.00  0.00    +0.087 C 
BRANCH  18  19
ATOM     19  N   UNL     1       5.713  -3.608  21.218  0.00  0.00    -0.323 NA
ATOM     20  H   UNL     1       4.724  -3.648  21.469  0.00  0.00    +0.119 HD
ATOM     21  H   UNL     1       5.828  -2.733  20.706  0.00  0.00    +0.119 HD
ENDBRANCH  18  19
BRANCH  18  22
ATOM     22  C   UNL     1       5.800  -4.328  23.583  0.00  0.00    +0.115 C 
ATOM     23  C   UNL     1       6.694  -5.092  24.566  0.00  0.00    +0.021 C 
BRANCH  22  24
ATOM     24  C   UNL     1       4.705  -5.211  23.021  0.00  0.00    +0.309 C 
ATOM     25  O   UNL     1       3.536  -4.854  22.942  0.00  0.00    -0.251 OA
BRANCH  24  26
ATOM     26  O   UNL     1       5.100  -6.423  22.580  0.00  0.00    -0.480 OA
ATOM     27  H   UNL     1       5.805  -6.405  21.902  0.00  0.00    +0.295 HD
ENDBRANCH  24  26
ENDBRANCH  22  24
ENDBRANCH  18  22
ENDBRANCH  17  18
ENDBRANCH   2  16
TORSDOF 11
ENDMDL
MODEL 6
REMARK VINA RESULT:      -5.4      2.721      4.942
REMARK  Name = 
REMARK  15 active torsions:
REMARK  status: ('A' for Active; 'I' for Inactive)
REMARK    1  A    between atoms: C_2  and  C_3
REMARK    2  A    between atoms: C_2  and  C_4
REMARK    3  A    between atoms: C_2  and  C_18
REMARK    4  A    between atoms: C_5  and  C_6
REMARK    5  A    between atoms: C_5  and  C_7
REMARK    6  A    between atoms: C_8  and  C_9
REMARK    7  A    between atoms: C_9  and  N_11
REMARK    8  A    between atoms: C_9  and  C_12
REMARK    9  A    between atoms: C_12  and  C_14
REMARK   10  A    between atoms: C_12  and  C_15
REMARK   11  A    between atoms: C_15  and  O_16
REMARK   12  A    between atoms: C_18  and  C_20
REMARK   13  A    between atoms: C_18  and  O_27
REMARK   14  A    between atoms: C_20  and  C_21
REMARK   15  A    between atoms: O_27  and  C_28
REMARK                            x       y       z     vdW  Elec       q    Type
REMARK                         _______ _______ _______ _____ _____    ______ ____
ROOT
ATOM      1  C   UNL     1       8.708  -3.176  25.180  0.00  0.00    -0.018 C 
ATOM      2  C   UNL     1       8.692  -1.842  25.414  0.00  0.00    -0.054 C 
ATOM      3  C   UNL     1       8.506  -1.234  26.781  0.00  0.00    +0.043 C 
ENDROOT
BRANCH   1   4
ATOM      4  C   UNL     1       8.765  -4.292  26.217  0.00  0.00    +0.038 C 
ATOM      5  C   UNL     1       9.908  -5.243  25.805  0.00  0.00    +0.014 C 
BRANCH   4   6
ATOM      6  C   UNL     1       7.459  -5.119  26.432  0.00  0.00    +0.129 C 
BRANCH   6   7
ATOM      7  O   UNL     1       7.243  -5.219  27.854  0.00  0.00    -0.379 OA
ATOM      8  C   UNL     1       6.110  -5.974  28.248  0.00  0.00    +0.194 C 
ENDBRANCH   6   7
BRANCH   6   9
ATOM      9  C   UNL     1       6.210  -4.573  25.690  0.00  0.00    +0.067 C 
BRANCH   9  10
ATOM     10  C   UNL     1       6.201  -4.486  24.173  0.00  0.00    -0.045 A 
ATOM     11  C   UNL     1       6.696  -5.581  23.442  0.00  0.00    +0.004 A 
ATOM     12  C   UNL     1       6.633  -5.603  22.046  0.00  0.00    +0.000 A 
ATOM     13  C   UNL     1       6.092  -4.523  21.355  0.00  0.00    +0.000 A 
ATOM     14  C   UNL     1       5.628  -3.418  22.060  0.00  0.00    +0.000 A 
ATOM     15  C   UNL     1       5.682  -3.402  23.455  0.00  0.00    +0.004 A 
ENDBRANCH   9  10
ENDBRANCH   6   9
ENDBRANCH   4   6
ENDBRANCH   1   4
BRANCH   2  16
ATOM     16  C   UNL     1       8.939  -0.918  24.300  0.00  0.00    +0.000 C 
ATOM     17  C   UNL     1       8.043  -0.523  23.373  0.00  0.00    -0.008 C 
BRANCH  17  18
ATOM     18  C   UNL     1       8.332   0.506  22.309  0.00  0.00    +0.087 C 
BRANCH  18  19
ATOM     19  N   UNL     1       9.482   0.012  21.532  0.00  0.00    -0.323 NA
ATOM     20  H   UNL     1       9.214  -0.845  21.048  0.00  0.00    +0.119 HD
ATOM     21  H   UNL     1       9.708   0.681  20.796  0.00  0.00    +0.119 HD
ENDBRANCH  18  19
BRANCH  18  22
ATOM     22  C   UNL     1       8.622   1.925  22.845  0.00  0.00    +0.115 C 
ATOM     23  C   UNL     1       7.828   3.069  22.205  0.00  0.00    +0.021 C 
BRANCH  22  24
ATOM     24  C   UNL     1      10.111   2.203  22.836  0.00  0.00    +0.309 C 
ATOM     25  O   UNL     1      10.815   2.092  23.831  0.00  0.00    -0.251 OA
BRANCH  24  26
ATOM     26  O   UNL     1      10.631   2.562  21.644  0.00  0.00    -0.480 OA
ATOM     27  H   UNL     1      11.607   2.600  21.615  0.00  0.00    +0.295 HD
ENDBRANCH  24  26
ENDBRANCH  22  24
ENDBRANCH  18  22
ENDBRANCH  17  18
ENDBRANCH   2  16
TORSDOF 11
ENDMDL
MODEL 7
REMARK VINA RESULT:      -5.4      3.328      5.946
REMARK  Name = 
REMARK  15 active torsions:
REMARK  status: ('A' for Active; 'I' for Inactive)
REMARK    1  A    between atoms: C_2  and  C_3
REMARK    2  A    between atoms: C_2  and  C_4
REMARK    3  A    between atoms: C_2  and  C_18
REMARK    4  A    between atoms: C_5  and  C_6
REMARK    5  A    between atoms: C_5  and  C_7
REMARK    6  A    between atoms: C_8  and  C_9
REMARK    7  A    between atoms: C_9  and  N_11
REMARK    8  A    between atoms: C_9  and  C_12
REMARK    9  A    between atoms: C_12  and  C_14
REMARK   10  A    between atoms: C_12  and  C_15
REMARK   11  A    between atoms: C_15  and  O_16
REMARK   12  A    between atoms: C_18  and  C_20
REMARK   13  A    between atoms: C_18  and  O_27
REMARK   14  A    between atoms: C_20  and  C_21
REMARK   15  A    between atoms: O_27  and  C_28
REMARK                            x       y       z     vdW  Elec       q    Type
REMARK                         _______ _______ _______ _____ _____    ______ ____
ROOT
ATOM      1  C   UNL     1       6.649  -3.872  26.419  0.00  0.00    -0.018 C 
ATOM      2  C   UNL     1       7.740  -3.996  25.626  0.00  0.00    -0.054 C 
ATOM      3  C   UNL     1       8.454  -5.301  25.382  0.00  0.00    +0.043 C 
ENDROOT
BRANCH   1   4
ATOM      4  C   UNL     1       5.817  -4.998  27.022  0.00  0.00    +0.038 C 
ATOM      5  C   UNL     1       6.680  -5.675  28.107  0.00  0.00    +0.014 C 
BRANCH   4   6
ATOM      6  C   UNL     1       5.286  -6.085  26.035  0.00  0.00    +0.129 C 
BRANCH   6   7
ATOM      7  O   UNL     1       4.586  -7.072  26.819  0.00  0.00    -0.379 OA
ATOM      8  C   UNL     1       3.225  -6.781  27.092  0.00  0.00    +0.194 C 
ENDBRANCH   6   7
BRANCH   6   9
ATOM      9  C   UNL     1       4.418  -5.542  24.870  0.00  0.00    +0.067 C 
BRANCH   9  10
ATOM     10  C   UNL     1       5.074  -5.085  23.578  0.00  0.00    -0.045 A 
ATOM     11  C   UNL     1       4.915  -3.741  23.192  0.00  0.00    +0.004 A 
ATOM     12  C   UNL     1       5.564  -3.234  22.064  0.00  0.00    +0.000 A 
ATOM     13  C   UNL     1       6.369  -4.064  21.290  0.00  0.00    +0.000 A 
ATOM     14  C   UNL     1       6.511  -5.403  21.637  0.00  0.00    +0.000 A 
ATOM     15  C   UNL     1       5.870  -5.906  22.770  0.00  0.00    +0.004 A 
ENDBRANCH   9  10
ENDBRANCH   6   9
ENDBRANCH   4   6
ENDBRANCH   1   4
BRANCH   2  16
ATOM     16  C   UNL     1       8.230  -2.820  24.895  0.00  0.00    +0.000 C 
ATOM     17  C   UNL     1       7.588  -1.644  24.746  0.00  0.00    -0.008 C 
BRANCH  17  18
ATOM     18  C   UNL     1       8.186  -0.439  24.066  0.00  0.00    +0.087 C 
BRANCH  18  19
ATOM     19  N   UNL     1       7.434  -0.231  22.817  0.00  0.00    -0.323 NA
ATOM     20  H   UNL     1       7.855  -0.793  22.076  0.00  0.00    +0.119 HD
ATOM     21  H   UNL     1       6.486  -0.592  22.925  0.00  0.00    +0.119 HD
ENDBRANCH  18  19
BRANCH  18  22
ATOM     22  C   UNL     1       9.696  -0.552  23.765  0.00  0.00    +0.115 C 
ATOM     23  C   UNL     1      10.624   0.337  24.601  0.00  0.00    +0.021 C 
BRANCH  22  24
ATOM     24  C   UNL     1       9.957  -0.395  22.282  0.00  0.00    +0.309 C 
ATOM     25  O   UNL     1      10.045   0.697  21.733  0.00  0.00    -0.251 OA
BRANCH  24  26
ATOM     26  O   UNL     1      10.117  -1.543  21.591  0.00  0.00    -0.480 OA
ATOM     27  H   UNL     1      11.022  -1.911  21.608  0.00  0.00    +0.295 HD
ENDBRANCH  24  26
ENDBRANCH  22  24
ENDBRANCH  18  22
ENDBRANCH  17  18
ENDBRANCH   2  16
TORSDOF 11
ENDMDL
MODEL 8
REMARK VINA RESULT:      -5.4      2.427      6.561
REMARK  Name = 
REMARK  15 active torsions:
REMARK  status: ('A' for Active; 'I' for Inactive)
REMARK    1  A    between atoms: C_2  and  C_3
REMARK    2  A    between atoms: C_2  and  C_4
REMARK    3  A    between atoms: C_2  and  C_18
REMARK    4  A    between atoms: C_5  and  C_6
REMARK    5  A    between atoms: C_5  and  C_7
REMARK    6  A    between atoms: C_8  and  C_9
REMARK    7  A    between atoms: C_9  and  N_11
REMARK    8  A    between atoms: C_9  and  C_12
REMARK    9  A    between atoms: C_12  and  C_14
REMARK   10  A    between atoms: C_12  and  C_15
REMARK   11  A    between atoms: C_15  and  O_16
REMARK   12  A    between atoms: C_18  and  C_20
REMARK   13  A    between atoms: C_18  and  O_27
REMARK   14  A    between atoms: C_20  and  C_21
REMARK   15  A    between atoms: O_27  and  C_28
REMARK                            x       y       z     vdW  Elec       q    Type
REMARK                         _______ _______ _______ _____ _____    ______ ____
ROOT
ATOM      1  C   UNL     1       6.423   0.500  24.365  0.00  0.00    -0.018 C 
ATOM      2  C   UNL     1       6.441  -0.765  24.847  0.00  0.00    -0.054 C 
ATOM      3  C   UNL     1       6.923  -1.128  26.229  0.00  0.00    +0.043 C 
ENDROOT
BRANCH   1   4
ATOM      4  C   UNL     1       6.658   1.787  25.148  0.00  0.00    +0.038 C 
ATOM      5  C   UNL     1       5.400   2.664  24.980  0.00  0.00    +0.014 C 
BRANCH   4   6
ATOM      6  C   UNL     1       7.922   2.620  24.765  0.00  0.00    +0.129 C 
BRANCH   6   7
ATOM      7  O   UNL     1       7.965   3.762  25.646  0.00  0.00    -0.379 OA
ATOM      8  C   UNL     1       8.656   4.894  25.144  0.00  0.00    +0.194 C 
ENDBRANCH   6   7
BRANCH   6   9
ATOM      9  C   UNL     1       9.255   1.827  24.772  0.00  0.00    +0.067 C 
BRANCH   9  10
ATOM     10  C   UNL     1       9.520   0.771  23.713  0.00  0.00    -0.045 A 
ATOM     11  C   UNL     1       9.966  -0.495  24.134  0.00  0.00    +0.004 A 
ATOM     12  C   UNL     1      10.143  -1.538  23.221  0.00  0.00    +0.000 A 
ATOM     13  C   UNL     1       9.895  -1.330  21.868  0.00  0.00    +0.000 A 
ATOM     14  C   UNL     1       9.486  -0.076  21.429  0.00  0.00    +0.000 A 
ATOM     15  C   UNL     1       9.300   0.962  22.343  0.00  0.00    +0.004 A 
ENDBRANCH   9  10
ENDBRANCH   6   9
ENDBRANCH   4   6
ENDBRANCH   1   4
BRANCH   2  16
ATOM     16  C   UNL     1       5.899  -1.853  24.022  0.00  0.00    +0.000 C 
ATOM     17  C   UNL     1       6.407  -2.304  22.858  0.00  0.00    -0.008 C 
BRANCH  17  18
ATOM     18  C   UNL     1       5.859  -3.491  22.105  0.00  0.00    +0.087 C 
BRANCH  18  19
ATOM     19  N   UNL     1       4.620  -3.900  22.788  0.00  0.00    -0.323 NA
ATOM     20  H   UNL     1       4.540  -3.390  23.668  0.00  0.00    +0.119 HD
ATOM     21  H   UNL     1       3.814  -3.613  22.232  0.00  0.00    +0.119 HD
ENDBRANCH  18  19
BRANCH  18  22
ATOM     22  C   UNL     1       6.828  -4.689  21.997  0.00  0.00    +0.115 C 
ATOM     23  C   UNL     1       6.329  -5.895  21.194  0.00  0.00    +0.021 C 
BRANCH  22  24
ATOM     24  C   UNL     1       7.326  -5.096  23.368  0.00  0.00    +0.309 C 
ATOM     25  O   UNL     1       8.501  -5.008  23.703  0.00  0.00    -0.251 OA
BRANCH  24  26
ATOM     26  O   UNL     1       6.383  -5.544  24.223  0.00  0.00    -0.480 OA
ATOM     27  H   UNL     1       6.712  -5.772  25.116  0.00  0.00    +0.295 HD
ENDBRANCH  24  26
ENDBRANCH  22  24
ENDBRANCH  18  22
ENDBRANCH  17  18
ENDBRANCH   2  16
TORSDOF 11
ENDMDL
MODEL 9
REMARK VINA RESULT:      -5.4      3.284      6.072
REMARK  Name = 
REMARK  15 active torsions:
REMARK  status: ('A' for Active; 'I' for Inactive)
REMARK    1  A    between atoms: C_2  and  C_3
REMARK    2  A    between atoms: C_2  and  C_4
REMARK    3  A    between atoms: C_2  and  C_18
REMARK    4  A    between atoms: C_5  and  C_6
REMARK    5  A    between atoms: C_5  and  C_7
REMARK    6  A    between atoms: C_8  and  C_9
REMARK    7  A    between atoms: C_9  and  N_11
REMARK    8  A    between atoms: C_9  and  C_12
REMARK    9  A    between atoms: C_12  and  C_14
REMARK   10  A    between atoms: C_12  and  C_15
REMARK   11  A    between atoms: C_15  and  O_16
REMARK   12  A    between atoms: C_18  and  C_20
REMARK   13  A    between atoms: C_18  and  O_27
REMARK   14  A    between atoms: C_20  and  C_21
REMARK   15  A    between atoms: O_27  and  C_28
REMARK                            x       y       z     vdW  Elec       q    Type
REMARK                         _______ _______ _______ _____ _____    ______ ____
ROOT
ATOM      1  C   UNL     1       7.032  -3.762  23.098  0.00  0.00    -0.018 C 
ATOM      2  C   UNL     1       8.190  -3.754  23.800  0.00  0.00    -0.054 C 
ATOM      3  C   UNL     1       8.659  -4.904  24.656  0.00  0.00    +0.043 C 
ENDROOT
BRANCH   1   4
ATOM      4  C   UNL     1       6.113  -4.954  22.852  0.00  0.00    +0.038 C 
ATOM      5  C   UNL     1       6.424  -5.489  21.439  0.00  0.00    +0.014 C 
BRANCH   4   6
ATOM      6  C   UNL     1       4.579  -4.695  22.979  0.00  0.00    +0.129 C 
BRANCH   6   7
ATOM      7  O   UNL     1       3.906  -5.920  22.620  0.00  0.00    -0.379 OA
ATOM      8  C   UNL     1       2.544  -6.002  23.002  0.00  0.00    +0.194 C 
ENDBRANCH   6   7
BRANCH   6   9
ATOM      9  C   UNL     1       4.117  -4.159  24.359  0.00  0.00    +0.067 C 
BRANCH   9  10
ATOM     10  C   UNL     1       4.807  -4.627  25.629  0.00  0.00    -0.045 A 
ATOM     11  C   UNL     1       4.710  -5.988  25.975  0.00  0.00    +0.004 A 
ATOM     12  C   UNL     1       5.395  -6.501  27.080  0.00  0.00    +0.000 A 
ATOM     13  C   UNL     1       6.173  -5.661  27.870  0.00  0.00    +0.000 A 
ATOM     14  C   UNL     1       6.254  -4.308  27.563  0.00  0.00    +0.000 A 
ATOM     15  C   UNL     1       5.578  -3.798  26.453  0.00  0.00    +0.004 A 
ENDBRANCH   9  10
ENDBRANCH   6   9
ENDBRANCH   4   6
ENDBRANCH   1   4
BRANCH   2  16
ATOM     16  C   UNL     1       9.090  -2.600  23.681  0.00  0.00    +0.000 C 
ATOM     17  C   UNL     1       8.879  -1.364  24.176  0.00  0.00    -0.008 C 
BRANCH  17  18
ATOM     18  C   UNL     1       9.887  -0.246  24.104  0.00  0.00    +0.087 C 
BRANCH  18  19
ATOM     19  N   UNL     1      10.162   0.178  25.487  0.00  0.00    -0.323 NA
ATOM     20  H   UNL     1       9.438   0.832  25.786  0.00  0.00    +0.119 HD
ATOM     21  H   UNL     1      10.079  -0.624  26.112  0.00  0.00    +0.119 HD
ENDBRANCH  18  19
BRANCH  18  22
ATOM     22  C   UNL     1       9.447   0.966  23.254  0.00  0.00    +0.115 C 
ATOM     23  C   UNL     1       9.790   0.910  21.761  0.00  0.00    +0.021 C 
BRANCH  22  24
ATOM     24  C   UNL     1       9.915   2.259  23.888  0.00  0.00    +0.309 C 
ATOM     25  O   UNL     1      11.006   2.762  23.648  0.00  0.00    -0.251 OA
BRANCH  24  26
ATOM     26  O   UNL     1       9.038   2.851  24.725  0.00  0.00    -0.480 OA
ATOM     27  H   UNL     1       8.225   2.337  24.900  0.00  0.00    +0.295 HD
ENDBRANCH  24  26
ENDBRANCH  22  24
ENDBRANCH  18  22
ENDBRANCH  17  18
ENDBRANCH   2  16
TORSDOF 11
ENDMDL
