MODEL 1
REMARK VINA RESULT:      -7.4      0.000      0.000
REMARK  Name = 
REMARK  10 active torsions:
REMARK  status: ('A' for Active; 'I' for Inactive)
REMARK    1  A    between atoms: C_1  and  C_2
REMARK    2  A    between atoms: C_2  and  O_3
REMARK    3  A    between atoms: O_3  and  C_4
REMARK    4  A    between atoms: C_5  and  O_6
REMARK    5  A    between atoms: O_6  and  C_7
REMARK    6  A    between atoms: C_7  and  C_8
REMARK    7  A    between atoms: C_10  and  C_13
REMARK    8  A    between atoms: C_15  and  C_18
REMARK    9  A    between atoms: CA_20  and  C_24
REMARK   10  A    between atoms: C_24  and  O_25
REMARK                            x       y       z     vdW  Elec       q    Type
REMARK                         _______ _______ _______ _____ _____    ______ ____
ROOT
ATOM      1  C   UNL     1       9.263  -0.445  23.529  0.00  0.00    +0.109 A 
ATOM      2  S   UNL     1       9.584  -0.488  21.832  0.00  0.00    -0.075 S 
ATOM      3  C   UNL     1       9.808   1.204  21.820  0.00  0.00    +0.077 A 
ATOM      4  C   UNL     1       9.647   1.718  23.094  0.00  0.00    +0.097 A 
ATOM      5  N   UNL     1       9.338   0.765  24.061  0.00  0.00    -0.238 NA
ENDROOT
BRANCH   1   9
ATOM      6  C   UNL     1       8.346  -4.119  25.619  0.00  0.00    +0.162 A 
ATOM      7  C   UNL     1       8.515  -2.925  26.331  0.00  0.00    +0.050 A 
ATOM      8  C   UNL     1       8.795  -1.720  25.678  0.00  0.00    +0.014 A 
ATOM      9  C   UNL     1       8.911  -1.671  24.284  0.00  0.00    +0.011 A 
ATOM     10  C   UNL     1       8.707  -2.871  23.572  0.00  0.00    +0.060 A 
ATOM     11  C   UNL     1       8.438  -4.093  24.216  0.00  0.00    +0.163 A 
BRANCH   6  12
ATOM     12  O   UNL     1       8.106  -5.191  26.443  0.00  0.00    -0.489 OA
BRANCH  12  14
ATOM     13  C   UNL     1       5.791  -5.818  26.460  0.00  0.00    +0.048 C 
ATOM     14  C   UNL     1       6.927  -5.184  27.243  0.00  0.00    +0.226 C 
ENDBRANCH  12  14
ENDBRANCH   6  12
BRANCH  11  15
ATOM     15  O   UNL     1       8.285  -5.274  23.544  0.00  0.00    -0.489 OA
BRANCH  15  16
ATOM     16  C   UNL     1       7.023  -5.671  23.022  0.00  0.00    +0.226 C 
ATOM     17  C   UNL     1       7.069  -5.726  21.506  0.00  0.00    +0.048 C 
ENDBRANCH  15  16
ENDBRANCH  11  15
ENDBRANCH   1   9
BRANCH   4  18
ATOM     18  C   UNL     1       9.809   3.140  23.400  0.00  0.00    +0.091 A 
ATOM     19  C   UNL     1       8.711   3.920  23.761  0.00  0.00    +0.030 A 
ATOM     20  C   UNL     1       8.909   5.259  24.104  0.00  0.00    +0.004 A 
ATOM     21  C   UNL     1      10.191   5.790  24.072  0.00  0.00    +0.035 A 
ATOM     22  CA  UNL     1      11.224   4.953  23.684  0.00  0.00    +0.148 A 
ATOM     23  N   UNL     1      11.073   3.640  23.344  0.00  0.00    -0.239 NA
BRANCH  22  24
ATOM     24  C   UNL     1      12.624   5.472  23.618  0.00  0.00    +0.355 C 
ATOM     25  OXT UNL     1      13.434   5.188  22.756  0.00  0.00    -0.243 OA
BRANCH  24  26
ATOM     26  O   UNL     1      12.868   6.307  24.658  0.00  0.00    -0.476 OA
ATOM     27  H   UNL     1      12.132   6.958  24.720  0.00  0.00    +0.295 HD
ENDBRANCH  24  26
ENDBRANCH  22  24
ENDBRANCH   4  18
TORSDOF 8
ENDMDL
MODEL 2
REMARK VINA RESULT:      -6.9      2.126      9.218
REMARK  Name = 
REMARK  10 active torsions:
REMARK  status: ('A' for Active; 'I' for Inactive)
REMARK    1  A    between atoms: C_1  and  C_2
REMARK    2  A    between atoms: C_2  and  O_3
REMARK    3  A    between atoms: O_3  and  C_4
REMARK    4  A    between atoms: C_5  and  O_6
REMARK    5  A    between atoms: O_6  and  C_7
REMARK    6  A    between atoms: C_7  and  C_8
REMARK    7  A    between atoms: C_10  and  C_13
REMARK    8  A    between atoms: C_15  and  C_18
REMARK    9  A    between atoms: CA_20  and  C_24
REMARK   10  A    between atoms: C_24  and  O_25
REMARK                            x       y       z     vdW  Elec       q    Type
REMARK                         _______ _______ _______ _____ _____    ______ ____
ROOT
ATOM      1  C   UNL     1       8.034   0.976  23.954  0.00  0.00    +0.109 A 
ATOM      2  S   UNL     1       6.421   1.142  24.549  0.00  0.00    -0.075 S 
ATOM      3  C   UNL     1       6.167  -0.535  24.363  0.00  0.00    +0.077 A 
ATOM      4  C   UNL     1       7.311  -1.142  23.878  0.00  0.00    +0.097 A 
ATOM      5  N   UNL     1       8.371  -0.268  23.650  0.00  0.00    -0.238 NA
ENDROOT
BRANCH   1   9
ATOM      6  C   UNL     1      10.537   4.484  23.594  0.00  0.00    +0.162 A 
ATOM      7  C   UNL     1      11.096   3.205  23.484  0.00  0.00    +0.050 A 
ATOM      8  C   UNL     1      10.305   2.054  23.579  0.00  0.00    +0.014 A 
ATOM      9  C   UNL     1       8.924   2.149  23.784  0.00  0.00    +0.011 A 
ATOM     10  C   UNL     1       8.366   3.441  23.860  0.00  0.00    +0.060 A 
ATOM     11  C   UNL     1       9.149   4.608  23.780  0.00  0.00    +0.163 A 
BRANCH   6  12
ATOM     12  O   UNL     1      11.482   5.477  23.500  0.00  0.00    -0.489 OA
BRANCH  12  14
ATOM     13  C   UNL     1      13.342   5.713  22.004  0.00  0.00    +0.048 C 
ATOM     14  C   UNL     1      12.844   5.106  23.303  0.00  0.00    +0.226 C 
ENDBRANCH  12  14
ENDBRANCH   6  12
BRANCH  11  15
ATOM     15  O   UNL     1       8.630   5.867  23.900  0.00  0.00    -0.489 OA
BRANCH  15  16
ATOM     16  C   UNL     1       7.323   6.177  23.430  0.00  0.00    +0.226 C 
ATOM     17  C   UNL     1       7.349   6.458  21.939  0.00  0.00    +0.048 C 
ENDBRANCH  15  16
ENDBRANCH  11  15
ENDBRANCH   1   9
BRANCH   4  18
ATOM     18  C   UNL     1       7.404  -2.584  23.645  0.00  0.00    +0.091 A 
ATOM     19  C   UNL     1       6.985  -3.138  22.436  0.00  0.00    +0.030 A 
ATOM     20  C   UNL     1       7.142  -4.510  22.223  0.00  0.00    +0.004 A 
ATOM     21  C   UNL     1       7.703  -5.295  23.220  0.00  0.00    +0.035 A 
ATOM     22  CA  UNL     1       8.076  -4.670  24.398  0.00  0.00    +0.148 A 
ATOM     23  N   UNL     1       7.942  -3.334  24.644  0.00  0.00    -0.239 NA
BRANCH  22  24
ATOM     24  C   UNL     1       8.675  -5.467  25.511  0.00  0.00    +0.355 C 
ATOM     25  OXT UNL     1       8.090  -5.799  26.525  0.00  0.00    -0.243 OA
BRANCH  24  26
ATOM     26  O   UNL     1       9.968  -5.769  25.235  0.00  0.00    -0.476 OA
ATOM     27  H   UNL     1      10.039  -6.740  25.085  0.00  0.00    +0.295 HD
ENDBRANCH  24  26
ENDBRANCH  22  24
ENDBRANCH   4  18
TORSDOF 8
ENDMDL
MODEL 3
REMARK VINA RESULT:      -6.7      1.641      2.029
REMARK  Name = 
REMARK  10 active torsions:
REMARK  status: ('A' for Active; 'I' for Inactive)
REMARK    1  A    between atoms: C_1  and  C_2
REMARK    2  A    between atoms: C_2  and  O_3
REMARK    3  A    between atoms: O_3  and  C_4
REMARK    4  A    between atoms: C_5  and  O_6
REMARK    5  A    between atoms: O_6  and  C_7
REMARK    6  A    between atoms: C_7  and  C_8
REMARK    7  A    between atoms: C_10  and  C_13
REMARK    8  A    between atoms: C_15  and  C_18
REMARK    9  A    between atoms: CA_20  and  C_24
REMARK   10  A    between atoms: C_24  and  O_25
REMARK                            x       y       z     vdW  Elec       q    Type
REMARK                         _______ _______ _______ _____ _____    ______ ____
ROOT
ATOM      1  C   UNL     1       9.363  -0.244  23.581  0.00  0.00    +0.109 A 
ATOM      2  S   UNL     1       9.506  -0.215  21.860  0.00  0.00    -0.075 S 
ATOM      3  C   UNL     1       9.885   1.449  21.909  0.00  0.00    +0.077 A 
ATOM      4  C   UNL     1       9.903   1.898  23.216  0.00  0.00    +0.097 A 
ATOM      5  N   UNL     1       9.605   0.921  24.162  0.00  0.00    -0.238 NA
ENDROOT
BRANCH   1   9
ATOM      6  C   UNL     1       8.341  -3.937  25.586  0.00  0.00    +0.162 A 
ATOM      7  C   UNL     1       8.526  -2.761  26.324  0.00  0.00    +0.050 A 
ATOM      8  C   UNL     1       8.839  -1.550  25.698  0.00  0.00    +0.014 A 
ATOM      9  C   UNL     1       8.975  -1.477  24.307  0.00  0.00    +0.011 A 
ATOM     10  C   UNL     1       8.755  -2.658  23.570  0.00  0.00    +0.060 A 
ATOM     11  C   UNL     1       8.452  -3.887  24.185  0.00  0.00    +0.163 A 
BRANCH   6  12
ATOM     12  O   UNL     1       8.067  -5.020  26.386  0.00  0.00    -0.489 OA
BRANCH  12  14
ATOM     13  C   UNL     1       5.706  -5.441  26.430  0.00  0.00    +0.048 C 
ATOM     14  C   UNL     1       6.914  -4.975  27.222  0.00  0.00    +0.226 C 
ENDBRANCH  12  14
ENDBRANCH   6  12
BRANCH  11  15
ATOM     15  O   UNL     1       8.283  -5.050  23.488  0.00  0.00    -0.489 OA
BRANCH  15  16
ATOM     16  C   UNL     1       7.008  -5.435  22.986  0.00  0.00    +0.226 C 
ATOM     17  C   UNL     1       7.121  -5.884  21.541  0.00  0.00    +0.048 C 
ENDBRANCH  15  16
ENDBRANCH  11  15
ENDBRANCH   1   9
BRANCH   4  18
ATOM     18  C   UNL     1      10.228   3.280  23.573  0.00  0.00    +0.091 A 
ATOM     19  C   UNL     1      11.440   3.850  23.187  0.00  0.00    +0.030 A 
ATOM     20  C   UNL     1      11.694   5.189  23.493  0.00  0.00    +0.004 A 
ATOM     21  C   UNL     1      10.739   5.924  24.181  0.00  0.00    +0.035 A 
ATOM     22  CA  UNL     1       9.568   5.278  24.545  0.00  0.00    +0.148 A 
ATOM     23  N   UNL     1       9.282   3.974  24.262  0.00  0.00    -0.239 NA
BRANCH  22  24
ATOM     24  C   UNL     1       8.510   6.016  25.298  0.00  0.00    +0.355 C 
ATOM     25  OXT UNL     1       7.614   6.663  24.789  0.00  0.00    -0.243 OA
BRANCH  24  26
ATOM     26  O   UNL     1       8.686   5.865  26.634  0.00  0.00    -0.476 OA
ATOM     27  H   UNL     1       7.870   5.468  27.017  0.00  0.00    +0.295 HD
ENDBRANCH  24  26
ENDBRANCH  22  24
ENDBRANCH   4  18
TORSDOF 8
ENDMDL
MODEL 4
REMARK VINA RESULT:      -6.6      2.312      9.431
REMARK  Name = 
REMARK  10 active torsions:
REMARK  status: ('A' for Active; 'I' for Inactive)
REMARK    1  A    between atoms: C_1  and  C_2
REMARK    2  A    between atoms: C_2  and  O_3
REMARK    3  A    between atoms: O_3  and  C_4
REMARK    4  A    between atoms: C_5  and  O_6
REMARK    5  A    between atoms: O_6  and  C_7
REMARK    6  A    between atoms: C_7  and  C_8
REMARK    7  A    between atoms: C_10  and  C_13
REMARK    8  A    between atoms: C_15  and  C_18
REMARK    9  A    between atoms: CA_20  and  C_24
REMARK   10  A    between atoms: C_24  and  O_25
REMARK                            x       y       z     vdW  Elec       q    Type
REMARK                         _______ _______ _______ _____ _____    ______ ____
ROOT
ATOM      1  C   UNL     1       8.154   0.899  24.077  0.00  0.00    +0.109 A 
ATOM      2  S   UNL     1       6.535   1.022  24.668  0.00  0.00    -0.075 S 
ATOM      3  C   UNL     1       6.345  -0.669  24.533  0.00  0.00    +0.077 A 
ATOM      4  C   UNL     1       7.512  -1.246  24.068  0.00  0.00    +0.097 A 
ATOM      5  N   UNL     1       8.537  -0.340  23.812  0.00  0.00    -0.238 NA
ENDROOT
BRANCH   1   9
ATOM      6  C   UNL     1      10.543   4.475  23.629  0.00  0.00    +0.162 A 
ATOM      7  C   UNL     1      11.096   3.218  23.352  0.00  0.00    +0.050 A 
ATOM      8  C   UNL     1      10.339   2.047  23.472  0.00  0.00    +0.014 A 
ATOM      9  C   UNL     1       8.998   2.100  23.871  0.00  0.00    +0.011 A 
ATOM     10  C   UNL     1       8.442   3.371  24.115  0.00  0.00    +0.060 A 
ATOM     11  C   UNL     1       9.193   4.556  24.012  0.00  0.00    +0.163 A 
BRANCH   6  12
ATOM     12  O   UNL     1      11.455   5.492  23.477  0.00  0.00    -0.489 OA
BRANCH  12  14
ATOM     13  C   UNL     1      13.354   5.742  22.034  0.00  0.00    +0.048 C 
ATOM     14  C   UNL     1      12.832   5.157  23.333  0.00  0.00    +0.226 C 
ENDBRANCH  12  14
ENDBRANCH   6  12
BRANCH  11  15
ATOM     15  O   UNL     1       8.681   5.793  24.291  0.00  0.00    -0.489 OA
BRANCH  15  16
ATOM     16  C   UNL     1       8.527   6.777  23.276  0.00  0.00    +0.226 C 
ATOM     17  C   UNL     1       7.548   6.300  22.219  0.00  0.00    +0.048 C 
ENDBRANCH  15  16
ENDBRANCH  11  15
ENDBRANCH   1   9
BRANCH   4  18
ATOM     18  C   UNL     1       7.659  -2.691  23.878  0.00  0.00    +0.091 A 
ATOM     19  C   UNL     1       8.462  -3.443  24.735  0.00  0.00    +0.030 A 
ATOM     20  C   UNL     1       8.534  -4.827  24.563  0.00  0.00    +0.004 A 
ATOM     21  C   UNL     1       7.812  -5.426  23.540  0.00  0.00    +0.035 A 
ATOM     22  CA  UNL     1       7.053  -4.605  22.722  0.00  0.00    +0.148 A 
ATOM     23  N   UNL     1       6.954  -3.251  22.858  0.00  0.00    -0.239 NA
BRANCH  22  24
ATOM     24  C   UNL     1       6.265  -5.193  21.597  0.00  0.00    +0.355 C 
ATOM     25  OXT UNL     1       5.831  -4.567  20.648  0.00  0.00    -0.243 OA
BRANCH  24  26
ATOM     26  O   UNL     1       6.098  -6.526  21.781  0.00  0.00    -0.476 OA
ATOM     27  H   UNL     1       6.979  -6.935  21.945  0.00  0.00    +0.295 HD
ENDBRANCH  24  26
ENDBRANCH  22  24
ENDBRANCH   4  18
TORSDOF 8
ENDMDL
MODEL 5
REMARK VINA RESULT:      -6.5      1.817      9.070
REMARK  Name = 
REMARK  10 active torsions:
REMARK  status: ('A' for Active; 'I' for Inactive)
REMARK    1  A    between atoms: C_1  and  C_2
REMARK    2  A    between atoms: C_2  and  O_3
REMARK    3  A    between atoms: O_3  and  C_4
REMARK    4  A    between atoms: C_5  and  O_6
REMARK    5  A    between atoms: O_6  and  C_7
REMARK    6  A    between atoms: C_7  and  C_8
REMARK    7  A    between atoms: C_10  and  C_13
REMARK    8  A    between atoms: C_15  and  C_18
REMARK    9  A    between atoms: CA_20  and  C_24
REMARK   10  A    between atoms: C_24  and  O_25
REMARK                            x       y       z     vdW  Elec       q    Type
REMARK                         _______ _______ _______ _____ _____    ______ ____
ROOT
ATOM      1  C   UNL     1       9.106   1.367  23.367  0.00  0.00    +0.109 A 
ATOM      2  S   UNL     1       9.821   0.879  21.873  0.00  0.00    -0.075 S 
ATOM      3  C   UNL     1       9.288  -0.723  22.127  0.00  0.00    +0.077 A 
ATOM      4  C   UNL     1       8.585  -0.810  23.314  0.00  0.00    +0.097 A 
ATOM      5  N   UNL     1       8.486   0.391  24.012  0.00  0.00    -0.238 NA
ENDROOT
BRANCH   1   9
ATOM      6  C   UNL     1       9.494   5.478  24.651  0.00  0.00    +0.162 A 
ATOM      7  C   UNL     1       8.429   4.693  25.111  0.00  0.00    +0.050 A 
ATOM      8  C   UNL     1       8.290   3.355  24.724  0.00  0.00    +0.014 A 
ATOM      9  C   UNL     1       9.220   2.758  23.865  0.00  0.00    +0.011 A 
ATOM     10  C   UNL     1      10.307   3.546  23.435  0.00  0.00    +0.060 A 
ATOM     11  C   UNL     1      10.453   4.896  23.803  0.00  0.00    +0.163 A 
BRANCH   6  12
ATOM     12  O   UNL     1       9.435   6.767  25.123  0.00  0.00    -0.489 OA
BRANCH  12  14
ATOM     13  C   UNL     1      11.317   7.107  26.572  0.00  0.00    +0.048 C 
ATOM     14  C   UNL     1       9.805   7.015  26.477  0.00  0.00    +0.226 C 
ENDBRANCH  12  14
ENDBRANCH   6  12
BRANCH  11  15
ATOM     15  O   UNL     1      11.475   5.687  23.356  0.00  0.00    -0.489 OA
BRANCH  15  16
ATOM     16  C   UNL     1      12.794   5.178  23.205  0.00  0.00    +0.226 C 
ATOM     17  C   UNL     1      13.443   5.747  21.957  0.00  0.00    +0.048 C 
ENDBRANCH  15  16
ENDBRANCH  11  15
ENDBRANCH   1   9
BRANCH   4  18
ATOM     18  C   UNL     1       7.979  -2.057  23.784  0.00  0.00    +0.091 A 
ATOM     19  C   UNL     1       6.625  -2.315  23.574  0.00  0.00    +0.030 A 
ATOM     20  C   UNL     1       6.092  -3.539  23.982  0.00  0.00    +0.004 A 
ATOM     21  C   UNL     1       6.916  -4.472  24.595  0.00  0.00    +0.035 A 
ATOM     22  CA  UNL     1       8.246  -4.132  24.783  0.00  0.00    +0.148 A 
ATOM     23  N   UNL     1       8.806  -2.948  24.396  0.00  0.00    -0.239 NA
BRANCH  22  24
ATOM     24  C   UNL     1       9.178  -5.091  25.448  0.00  0.00    +0.355 C 
ATOM     25  OXT UNL     1      10.333  -5.282  25.120  0.00  0.00    -0.243 OA
BRANCH  24  26
ATOM     26  O   UNL     1       8.554  -5.724  26.472  0.00  0.00    -0.476 OA
ATOM     27  H   UNL     1       8.660  -6.696  26.353  0.00  0.00    +0.295 HD
ENDBRANCH  24  26
ENDBRANCH  22  24
ENDBRANCH   4  18
TORSDOF 8
ENDMDL
MODEL 6
REMARK VINA RESULT:      -6.5      1.478      2.132
REMARK  Name = 
REMARK  10 active torsions:
REMARK  status: ('A' for Active; 'I' for Inactive)
REMARK    1  A    between atoms: C_1  and  C_2
REMARK    2  A    between atoms: C_2  and  O_3
REMARK    3  A    between atoms: O_3  and  C_4
REMARK    4  A    between atoms: C_5  and  O_6
REMARK    5  A    between atoms: O_6  and  C_7
REMARK    6  A    between atoms: C_7  and  C_8
REMARK    7  A    between atoms: C_10  and  C_13
REMARK    8  A    between atoms: C_15  and  C_18
REMARK    9  A    between atoms: CA_20  and  C_24
REMARK   10  A    between atoms: C_24  and  O_25
REMARK                            x       y       z     vdW  Elec       q    Type
REMARK                         _______ _______ _______ _____ _____    ______ ____
ROOT
ATOM      1  C   UNL     1       8.552  -0.135  23.322  0.00  0.00    +0.109 A 
ATOM      2  S   UNL     1       9.583  -0.366  21.955  0.00  0.00    -0.075 S 
ATOM      3  C   UNL     1      10.054   1.274  22.020  0.00  0.00    +0.077 A 
ATOM      4  C   UNL     1       9.427   1.911  23.074  0.00  0.00    +0.097 A 
ATOM      5  N   UNL     1       8.573   1.095  23.811  0.00  0.00    -0.238 NA
ENDROOT
BRANCH   1   9
ATOM      6  C   UNL     1       6.146  -3.289  25.045  0.00  0.00    +0.162 A 
ATOM      7  C   UNL     1       5.683  -2.577  23.931  0.00  0.00    +0.050 A 
ATOM      8  C   UNL     1       6.450  -1.564  23.344  0.00  0.00    +0.014 A 
ATOM      9  C   UNL     1       7.711  -1.234  23.854  0.00  0.00    +0.011 A 
ATOM     10  C   UNL     1       8.183  -1.978  24.954  0.00  0.00    +0.060 A 
ATOM     11  C   UNL     1       7.418  -2.990  25.564  0.00  0.00    +0.163 A 
BRANCH   6  12
ATOM     12  O   UNL     1       5.237  -4.219  25.486  0.00  0.00    -0.489 OA
BRANCH  12  14
ATOM     13  C   UNL     1       5.063  -6.267  24.249  0.00  0.00    +0.048 C 
ATOM     14  C   UNL     1       4.445  -4.908  24.522  0.00  0.00    +0.226 C 
ENDBRANCH  12  14
ENDBRANCH   6  12
BRANCH  11  15
ATOM     15  O   UNL     1       7.841  -3.688  26.660  0.00  0.00    -0.489 OA
BRANCH  15  16
ATOM     16  C   UNL     1       8.268  -5.041  26.558  0.00  0.00    +0.226 C 
ATOM     17  C   UNL     1       9.269  -5.198  25.428  0.00  0.00    +0.048 C 
ENDBRANCH  15  16
ENDBRANCH  11  15
ENDBRANCH   1   9
BRANCH   4  18
ATOM     18  C   UNL     1       9.659   3.320  23.398  0.00  0.00    +0.091 A 
ATOM     19  C   UNL     1       8.601   4.150  23.765  0.00  0.00    +0.030 A 
ATOM     20  C   UNL     1       8.865   5.473  24.126  0.00  0.00    +0.004 A 
ATOM     21  C   UNL     1      10.172   5.939  24.103  0.00  0.00    +0.035 A 
ATOM     22  CA  UNL     1      11.163   5.056  23.708  0.00  0.00    +0.148 A 
ATOM     23  N   UNL     1      10.948   3.756  23.352  0.00  0.00    -0.239 NA
BRANCH  22  24
ATOM     24  C   UNL     1      12.587   5.504  23.653  0.00  0.00    +0.355 C 
ATOM     25  OXT UNL     1      13.394   5.165  22.808  0.00  0.00    -0.243 OA
BRANCH  24  26
ATOM     26  O   UNL     1      12.859   6.345  24.682  0.00  0.00    -0.476 OA
ATOM     27  H   UNL     1      13.262   7.167  24.319  0.00  0.00    +0.295 HD
ENDBRANCH  24  26
ENDBRANCH  22  24
ENDBRANCH   4  18
TORSDOF 8
ENDMDL
MODEL 7
REMARK VINA RESULT:      -6.5      2.253      9.186
REMARK  Name = 
REMARK  10 active torsions:
REMARK  status: ('A' for Active; 'I' for Inactive)
REMARK    1  A    between atoms: C_1  and  C_2
REMARK    2  A    between atoms: C_2  and  O_3
REMARK    3  A    between atoms: O_3  and  C_4
REMARK    4  A    between atoms: C_5  and  O_6
REMARK    5  A    between atoms: O_6  and  C_7
REMARK    6  A    between atoms: C_7  and  C_8
REMARK    7  A    between atoms: C_10  and  C_13
REMARK    8  A    between atoms: C_15  and  C_18
REMARK    9  A    between atoms: CA_20  and  C_24
REMARK   10  A    between atoms: C_24  and  O_25
REMARK                            x       y       z     vdW  Elec       q    Type
REMARK                         _______ _______ _______ _____ _____    ______ ____
ROOT
ATOM      1  C   UNL     1       8.953   0.930  23.339  0.00  0.00    +0.109 A 
ATOM      2  S   UNL     1       9.638   0.837  21.756  0.00  0.00    -0.075 S 
ATOM      3  C   UNL     1       9.452  -0.860  21.762  0.00  0.00    +0.077 A 
ATOM      4  C   UNL     1       8.869  -1.273  22.945  0.00  0.00    +0.097 A 
ATOM      5  N   UNL     1       8.588  -0.241  23.837  0.00  0.00    -0.238 NA
ENDROOT
BRANCH   1   9
ATOM      6  C   UNL     1       8.590   4.783  25.270  0.00  0.00    +0.162 A 
ATOM      7  C   UNL     1       7.875   3.680  25.754  0.00  0.00    +0.050 A 
ATOM      8  C   UNL     1       7.988   2.419  25.159  0.00  0.00    +0.014 A 
ATOM      9  C   UNL     1       8.828   2.221  24.057  0.00  0.00    +0.011 A 
ATOM     10  C   UNL     1       9.569   3.328  23.596  0.00  0.00    +0.060 A 
ATOM     11  C   UNL     1       9.455   4.605  24.176  0.00  0.00    +0.163 A 
BRANCH   6  12
ATOM     12  O   UNL     1       8.321   5.931  25.973  0.00  0.00    -0.489 OA
BRANCH  12  14
ATOM     13  C   UNL     1       6.437   6.930  27.071  0.00  0.00    +0.048 C 
ATOM     14  C   UNL     1       7.084   6.600  25.739  0.00  0.00    +0.226 C 
ENDBRANCH  12  14
ENDBRANCH   6  12
BRANCH  11  15
ATOM     15  O   UNL     1      10.131   5.699  23.711  0.00  0.00    -0.489 OA
BRANCH  15  16
ATOM     16  C   UNL     1      11.550   5.707  23.611  0.00  0.00    +0.226 C 
ATOM     17  C   UNL     1      12.160   6.476  24.768  0.00  0.00    +0.048 C 
ENDBRANCH  15  16
ENDBRANCH  11  15
ENDBRANCH   1   9
BRANCH   4  18
ATOM     18  C   UNL     1       8.556  -2.676  23.226  0.00  0.00    +0.091 A 
ATOM     19  C   UNL     1       9.103  -3.319  24.335  0.00  0.00    +0.030 A 
ATOM     20  C   UNL     1       8.738  -4.639  24.607  0.00  0.00    +0.004 A 
ATOM     21  C   UNL     1       7.846  -5.288  23.765  0.00  0.00    +0.035 A 
ATOM     22  CA  UNL     1       7.363  -4.584  22.674  0.00  0.00    +0.148 A 
ATOM     23  N   UNL     1       7.692  -3.293  22.376  0.00  0.00    -0.239 NA
BRANCH  22  24
ATOM     24  C   UNL     1       6.409  -5.234  21.726  0.00  0.00    +0.355 C 
ATOM     25  OXT UNL     1       5.823  -4.665  20.825  0.00  0.00    -0.243 OA
BRANCH  24  26
ATOM     26  O   UNL     1       6.283  -6.554  22.012  0.00  0.00    -0.476 OA
ATOM     27  H   UNL     1       5.979  -7.025  21.202  0.00  0.00    +0.295 HD
ENDBRANCH  24  26
ENDBRANCH  22  24
ENDBRANCH   4  18
TORSDOF 8
ENDMDL
MODEL 8
REMARK VINA RESULT:      -6.5      1.912      2.888
REMARK  Name = 
REMARK  10 active torsions:
REMARK  status: ('A' for Active; 'I' for Inactive)
REMARK    1  A    between atoms: C_1  and  C_2
REMARK    2  A    between atoms: C_2  and  O_3
REMARK    3  A    between atoms: O_3  and  C_4
REMARK    4  A    between atoms: C_5  and  O_6
REMARK    5  A    between atoms: O_6  and  C_7
REMARK    6  A    between atoms: C_7  and  C_8
REMARK    7  A    between atoms: C_10  and  C_13
REMARK    8  A    between atoms: C_15  and  C_18
REMARK    9  A    between atoms: CA_20  and  C_24
REMARK   10  A    between atoms: C_24  and  O_25
REMARK                            x       y       z     vdW  Elec       q    Type
REMARK                         _______ _______ _______ _____ _____    ______ ____
ROOT
ATOM      1  C   UNL     1       8.135  -0.726  22.601  0.00  0.00    +0.109 A 
ATOM      2  S   UNL     1       9.692  -0.504  21.886  0.00  0.00    -0.075 S 
ATOM      3  C   UNL     1       9.474   1.189  21.911  0.00  0.00    +0.077 A 
ATOM      4  C   UNL     1       8.250   1.507  22.470  0.00  0.00    +0.097 A 
ATOM      5  N   UNL     1       7.496   0.403  22.861  0.00  0.00    -0.238 NA
ENDROOT
BRANCH   1   9
ATOM      6  C   UNL     1       6.633  -4.679  23.508  0.00  0.00    +0.162 A 
ATOM      7  C   UNL     1       5.779  -3.704  22.978  0.00  0.00    +0.050 A 
ATOM      8  C   UNL     1       6.244  -2.423  22.659  0.00  0.00    +0.014 A 
ATOM      9  C   UNL     1       7.586  -2.078  22.859  0.00  0.00    +0.011 A 
ATOM     10  C   UNL     1       8.445  -3.076  23.362  0.00  0.00    +0.060 A 
ATOM     11  C   UNL     1       7.990  -4.364  23.700  0.00  0.00    +0.163 A 
BRANCH   6  12
ATOM     12  O   UNL     1       5.979  -5.857  23.777  0.00  0.00    -0.489 OA
BRANCH  12  14
ATOM     13  C   UNL     1       5.520  -6.087  26.120  0.00  0.00    +0.048 C 
ATOM     14  C   UNL     1       4.930  -5.849  24.741  0.00  0.00    +0.226 C 
ENDBRANCH  12  14
ENDBRANCH   6  12
BRANCH  11  15
ATOM     15  O   UNL     1       8.800  -5.327  24.233  0.00  0.00    -0.489 OA
BRANCH  15  16
ATOM     16  C   UNL     1       9.665  -5.046  25.327  0.00  0.00    +0.226 C 
ATOM     17  C   UNL     1       8.863  -4.590  26.533  0.00  0.00    +0.048 C 
ENDBRANCH  15  16
ENDBRANCH  11  15
ENDBRANCH   1   9
BRANCH   4  18
ATOM     18  C   UNL     1       7.797   2.887  22.651  0.00  0.00    +0.091 A 
ATOM     19  C   UNL     1       6.470   3.238  22.410  0.00  0.00    +0.030 A 
ATOM     20  C   UNL     1       6.056   4.550  22.650  0.00  0.00    +0.004 A 
ATOM     21  C   UNL     1       6.975   5.481  23.115  0.00  0.00    +0.035 A 
ATOM     22  CA  UNL     1       8.279   5.055  23.311  0.00  0.00    +0.148 A 
ATOM     23  N   UNL     1       8.721   3.783  23.092  0.00  0.00    -0.239 NA
BRANCH  22  24
ATOM     24  C   UNL     1       9.314   6.015  23.799  0.00  0.00    +0.355 C 
ATOM     25  OXT UNL     1       9.191   6.742  24.767  0.00  0.00    -0.243 OA
BRANCH  24  26
ATOM     26  O   UNL     1      10.415   5.966  23.009  0.00  0.00    -0.476 OA
ATOM     27  H   UNL     1      10.182   5.505  22.171  0.00  0.00    +0.295 HD
ENDBRANCH  24  26
ENDBRANCH  22  24
ENDBRANCH   4  18
TORSDOF 8
ENDMDL
MODEL 9
REMARK VINA RESULT:      -6.5      2.024      2.170
REMARK  Name = 
REMARK  10 active torsions:
REMARK  status: ('A' for Active; 'I' for Inactive)
REMARK    1  A    between atoms: C_1  and  C_2
REMARK    2  A    between atoms: C_2  and  O_3
REMARK    3  A    between atoms: O_3  and  C_4
REMARK    4  A    between atoms: C_5  and  O_6
REMARK    5  A    between atoms: O_6  and  C_7
REMARK    6  A    between atoms: C_7  and  C_8
REMARK    7  A    between atoms: C_10  and  C_13
REMARK    8  A    between atoms: C_15  and  C_18
REMARK    9  A    between atoms: CA_20  and  C_24
REMARK   10  A    between atoms: C_24  and  O_25
REMARK                            x       y       z     vdW  Elec       q    Type
REMARK                         _______ _______ _______ _____ _____    ______ ____
ROOT
ATOM      1  C   UNL     1       8.271  -0.125  23.942  0.00  0.00    +0.109 A 
ATOM      2  S   UNL     1       9.887  -0.724  23.831  0.00  0.00    -0.075 S 
ATOM      3  C   UNL     1      10.481   0.869  23.683  0.00  0.00    +0.077 A 
ATOM      4  C   UNL     1       9.439   1.776  23.741  0.00  0.00    +0.097 A 
ATOM      5  N   UNL     1       8.182   1.195  23.890  0.00  0.00    -0.238 NA
ENDROOT
BRANCH   1   9
ATOM      6  C   UNL     1       4.977  -2.917  24.174  0.00  0.00    +0.162 A 
ATOM      7  C   UNL     1       5.310  -2.125  25.280  0.00  0.00    +0.050 A 
ATOM      8  C   UNL     1       6.360  -1.201  25.225  0.00  0.00    +0.014 A 
ATOM      9  C   UNL     1       7.110  -1.039  24.055  0.00  0.00    +0.011 A 
ATOM     10  C   UNL     1       6.747  -1.815  22.937  0.00  0.00    +0.060 A 
ATOM     11  C   UNL     1       5.702  -2.758  22.980  0.00  0.00    +0.163 A 
BRANCH   6  12
ATOM     12  O   UNL     1       3.938  -3.775  24.439  0.00  0.00    -0.489 OA
BRANCH  12  14
ATOM     13  C   UNL     1       4.777  -5.784  25.447  0.00  0.00    +0.048 C 
ATOM     14  C   UNL     1       3.962  -4.519  25.654  0.00  0.00    +0.226 C 
ENDBRANCH  12  14
ENDBRANCH   6  12
BRANCH  11  15
ATOM     15  O   UNL     1       5.368  -3.553  21.919  0.00  0.00    -0.489 OA
BRANCH  15  16
ATOM     16  C   UNL     1       6.314  -4.437  21.329  0.00  0.00    +0.226 C 
ATOM     17  C   UNL     1       6.821  -5.433  22.355  0.00  0.00    +0.048 C 
ENDBRANCH  15  16
ENDBRANCH  11  15
ENDBRANCH   1   9
BRANCH   4  18
ATOM     18  C   UNL     1       9.645   3.224  23.671  0.00  0.00    +0.091 A 
ATOM     19  C   UNL     1       8.561   4.100  23.708  0.00  0.00    +0.030 A 
ATOM     20  C   UNL     1       8.796   5.476  23.699  0.00  0.00    +0.004 A 
ATOM     21  C   UNL     1      10.101   5.946  23.645  0.00  0.00    +0.035 A 
ATOM     22  CA  UNL     1      11.120   5.009  23.592  0.00  0.00    +0.148 A 
ATOM     23  N   UNL     1      10.933   3.657  23.602  0.00  0.00    -0.239 NA
BRANCH  22  24
ATOM     24  C   UNL     1      12.544   5.456  23.520  0.00  0.00    +0.355 C 
ATOM     25  OXT UNL     1      13.322   5.167  22.631  0.00  0.00    -0.243 OA
BRANCH  24  26
ATOM     26  O   UNL     1      12.852   6.229  24.590  0.00  0.00    -0.476 OA
ATOM     27  H   UNL     1      13.269   5.663  25.280  0.00  0.00    +0.295 HD
ENDBRANCH  24  26
ENDBRANCH  22  24
ENDBRANCH   4  18
TORSDOF 8
ENDMDL
