MODEL 1
REMARK VINA RESULT:      -3.8      0.000      0.000
REMARK  Name = 
REMARK  2 active torsions:
REMARK  status: ('A' for Active; 'I' for Inactive)
REMARK    1  A    between atoms: O_1  and  C_2
REMARK    2  A    between atoms: C_2  and  C_3
REMARK                            x       y       z     vdW  Elec       q    Type
REMARK                         _______ _______ _______ _____ _____    ______ ____
ROOT
ATOM      1  C   UNL     1      10.035   0.489  22.985  0.00  0.00    -0.004 A 
ATOM      2  C   UNL     1      10.062  -0.184  24.203  0.00  0.00    +0.116 A 
ATOM      3  N   UNL     1       9.816  -1.506  24.353  0.00  0.00    -0.263 NA
ATOM      4  C   UNL     1       9.523  -2.197  23.231  0.00  0.00    +0.111 A 
ATOM      5  C   UNL     1       9.457  -1.626  21.972  0.00  0.00    +0.020 A 
ATOM      6  C   UNL     1       9.710  -0.262  21.852  0.00  0.00    +0.009 A 
ENDROOT
BRANCH   1   7
ATOM      7  C   UNL     1      10.275   1.968  22.933  0.00  0.00    +0.192 C 
BRANCH   7   8
ATOM      8  O   UNL     1      10.317   2.431  21.589  0.00  0.00    -0.390 OA
ATOM      9  H   UNL     1      10.397   3.399  21.629  0.00  0.00    +0.210 HD
ENDBRANCH   7   8
ENDBRANCH   1   7
TORSDOF 2
ENDMDL
MODEL 2
REMARK VINA RESULT:      -3.8      6.180      7.143
REMARK  Name = 
REMARK  2 active torsions:
REMARK  status: ('A' for Active; 'I' for Inactive)
REMARK    1  A    between atoms: O_1  and  C_2
REMARK    2  A    between atoms: C_2  and  C_3
REMARK                            x       y       z     vdW  Elec       q    Type
REMARK                         _______ _______ _______ _____ _____    ______ ____
ROOT
ATOM      1  C   UNL     1      11.957   5.855  23.768  0.00  0.00    -0.004 A 
ATOM      2  C   UNL     1      10.611   5.500  23.765  0.00  0.00    +0.116 A 
ATOM      3  N   UNL     1       9.711   5.903  24.691  0.00  0.00    -0.263 NA
ATOM      4  C   UNL     1      10.175   6.700  25.678  0.00  0.00    +0.111 A 
ATOM      5  C   UNL     1      11.494   7.103  25.783  0.00  0.00    +0.020 A 
ATOM      6  C   UNL     1      12.396   6.667  24.817  0.00  0.00    +0.009 A 
ENDROOT
BRANCH   1   7
ATOM      7  C   UNL     1      12.883   5.314  22.721  0.00  0.00    +0.192 C 
BRANCH   7   8
ATOM      8  O   UNL     1      14.179   5.080  23.258  0.00  0.00    -0.390 OA
ATOM      9  H   UNL     1      14.762   5.766  22.894  0.00  0.00    +0.210 HD
ENDBRANCH   7   8
ENDBRANCH   1   7
TORSDOF 2
ENDMDL
MODEL 3
REMARK VINA RESULT:      -3.8      0.963      1.697
REMARK  Name = 
REMARK  2 active torsions:
REMARK  status: ('A' for Active; 'I' for Inactive)
REMARK    1  A    between atoms: O_1  and  C_2
REMARK    2  A    between atoms: C_2  and  C_3
REMARK                            x       y       z     vdW  Elec       q    Type
REMARK                         _______ _______ _______ _____ _____    ______ ____
ROOT
ATOM      1  C   UNL     1       9.968   0.523  23.110  0.00  0.00    -0.004 A 
ATOM      2  C   UNL     1      10.048  -0.356  22.033  0.00  0.00    +0.116 A 
ATOM      3  N   UNL     1       9.987  -1.703  22.138  0.00  0.00    -0.263 NA
ATOM      4  C   UNL     1       9.842  -2.206  23.383  0.00  0.00    +0.111 A 
ATOM      5  C   UNL     1       9.766  -1.426  24.523  0.00  0.00    +0.020 A 
ATOM      6  C   UNL     1       9.837  -0.043  24.382  0.00  0.00    +0.009 A 
ENDROOT
BRANCH   1   7
ATOM      7  C   UNL     1      10.096   2.001  22.892  0.00  0.00    +0.192 C 
BRANCH   7   8
ATOM      8  O   UNL     1      10.183   2.305  21.505  0.00  0.00    -0.390 OA
ATOM      9  H   UNL     1       9.325   2.682  21.248  0.00  0.00    +0.210 HD
ENDBRANCH   7   8
ENDBRANCH   1   7
TORSDOF 2
ENDMDL
MODEL 4
REMARK VINA RESULT:      -3.7      2.292      3.331
REMARK  Name = 
REMARK  2 active torsions:
REMARK  status: ('A' for Active; 'I' for Inactive)
REMARK    1  A    between atoms: O_1  and  C_2
REMARK    2  A    between atoms: C_2  and  C_3
REMARK                            x       y       z     vdW  Elec       q    Type
REMARK                         _______ _______ _______ _____ _____    ______ ____
ROOT
ATOM      1  C   UNL     1       9.968  -0.433  22.816  0.00  0.00    -0.004 A 
ATOM      2  C   UNL     1      10.411  -0.004  24.064  0.00  0.00    +0.116 A 
ATOM      3  N   UNL     1      10.657   1.286  24.387  0.00  0.00    -0.263 NA
ATOM      4  C   UNL     1      10.458   2.201  23.415  0.00  0.00    +0.111 A 
ATOM      5  C   UNL     1      10.033   1.884  22.136  0.00  0.00    +0.020 A 
ATOM      6  C   UNL     1       9.792   0.547  21.834  0.00  0.00    +0.009 A 
ENDROOT
BRANCH   1   7
ATOM      7  C   UNL     1       9.770  -1.894  22.545  0.00  0.00    +0.192 C 
BRANCH   7   8
ATOM      8  O   UNL     1      10.269  -2.683  23.617  0.00  0.00    -0.390 OA
ATOM      9  H   UNL     1      10.082  -2.194  24.435  0.00  0.00    +0.210 HD
ENDBRANCH   7   8
ENDBRANCH   1   7
TORSDOF 2
ENDMDL
MODEL 5
REMARK VINA RESULT:      -3.7      3.887      4.977
REMARK  Name = 
REMARK  2 active torsions:
REMARK  status: ('A' for Active; 'I' for Inactive)
REMARK    1  A    between atoms: O_1  and  C_2
REMARK    2  A    between atoms: C_2  and  C_3
REMARK                            x       y       z     vdW  Elec       q    Type
REMARK                         _______ _______ _______ _____ _____    ______ ____
ROOT
ATOM      1  C   UNL     1       9.036  -3.847  24.377  0.00  0.00    -0.004 A 
ATOM      2  C   UNL     1       7.924  -4.027  23.559  0.00  0.00    +0.116 A 
ATOM      3  N   UNL     1       7.609  -3.233  22.509  0.00  0.00    -0.263 NA
ATOM      4  C   UNL     1       8.443  -2.200  22.261  0.00  0.00    +0.111 A 
ATOM      5  C   UNL     1       9.568  -1.922  23.018  0.00  0.00    +0.020 A 
ATOM      6  C   UNL     1       9.861  -2.755  24.094  0.00  0.00    +0.009 A 
ENDROOT
BRANCH   1   7
ATOM      7  C   UNL     1       9.269  -4.756  25.546  0.00  0.00    +0.192 C 
BRANCH   7   8
ATOM      8  O   UNL     1      10.434  -5.547  25.353  0.00  0.00    -0.390 OA
ATOM      9  H   UNL     1      10.159  -6.475  25.435  0.00  0.00    +0.210 HD
ENDBRANCH   7   8
ENDBRANCH   1   7
TORSDOF 2
ENDMDL
MODEL 6
REMARK VINA RESULT:      -3.5      4.554      5.592
REMARK  Name = 
REMARK  2 active torsions:
REMARK  status: ('A' for Active; 'I' for Inactive)
REMARK    1  A    between atoms: O_1  and  C_2
REMARK    2  A    between atoms: C_2  and  C_3
REMARK                            x       y       z     vdW  Elec       q    Type
REMARK                         _______ _______ _______ _____ _____    ______ ____
ROOT
ATOM      1  C   UNL     1       7.416  -4.011  22.869  0.00  0.00    -0.004 A 
ATOM      2  C   UNL     1       6.492  -3.535  21.942  0.00  0.00    +0.116 A 
ATOM      3  N   UNL     1       5.812  -4.314  21.070  0.00  0.00    -0.263 NA
ATOM      4  C   UNL     1       6.067  -5.639  21.117  0.00  0.00    +0.111 A 
ATOM      5  C   UNL     1       6.975  -6.216  21.987  0.00  0.00    +0.020 A 
ATOM      6  C   UNL     1       7.662  -5.387  22.869  0.00  0.00    +0.009 A 
ENDROOT
BRANCH   1   7
ATOM      7  C   UNL     1       8.153  -3.057  23.760  0.00  0.00    +0.192 C 
BRANCH   7   8
ATOM      8  O   UNL     1       9.479  -3.508  24.004  0.00  0.00    -0.390 OA
ATOM      9  H   UNL     1       9.693  -3.266  24.920  0.00  0.00    +0.210 HD
ENDBRANCH   7   8
ENDBRANCH   1   7
TORSDOF 2
ENDMDL
MODEL 7
REMARK VINA RESULT:      -3.5      2.504      3.437
REMARK  Name = 
REMARK  2 active torsions:
REMARK  status: ('A' for Active; 'I' for Inactive)
REMARK    1  A    between atoms: O_1  and  C_2
REMARK    2  A    between atoms: C_2  and  C_3
REMARK                            x       y       z     vdW  Elec       q    Type
REMARK                         _______ _______ _______ _____ _____    ______ ____
ROOT
ATOM      1  C   UNL     1       8.780  -2.631  22.950  0.00  0.00    -0.004 A 
ATOM      2  C   UNL     1       9.678  -2.962  23.962  0.00  0.00    +0.116 A 
ATOM      3  N   UNL     1       9.579  -4.061  24.743  0.00  0.00    -0.263 NA
ATOM      4  C   UNL     1       8.528  -4.876  24.511  0.00  0.00    +0.111 A 
ATOM      5  C   UNL     1       7.570  -4.636  23.541  0.00  0.00    +0.020 A 
ATOM      6  C   UNL     1       7.697  -3.493  22.757  0.00  0.00    +0.009 A 
ENDROOT
BRANCH   1   7
ATOM      7  C   UNL     1       8.953  -1.362  22.171  0.00  0.00    +0.192 C 
BRANCH   7   8
ATOM      8  O   UNL     1      10.113  -1.421  21.351  0.00  0.00    -0.390 OA
ATOM      9  H   UNL     1      10.697  -0.700  21.640  0.00  0.00    +0.210 HD
ENDBRANCH   7   8
ENDBRANCH   1   7
TORSDOF 2
ENDMDL
MODEL 8
REMARK VINA RESULT:      -3.5      5.596      6.589
REMARK  Name = 
REMARK  2 active torsions:
REMARK  status: ('A' for Active; 'I' for Inactive)
REMARK    1  A    between atoms: O_1  and  C_2
REMARK    2  A    between atoms: C_2  and  C_3
REMARK                            x       y       z     vdW  Elec       q    Type
REMARK                         _______ _______ _______ _____ _____    ______ ____
ROOT
ATOM      1  C   UNL     1       8.067  -4.938  25.461  0.00  0.00    -0.004 A 
ATOM      2  C   UNL     1       7.906  -5.344  26.783  0.00  0.00    +0.116 A 
ATOM      3  N   UNL     1       6.764  -5.860  27.292  0.00  0.00    -0.263 NA
ATOM      4  C   UNL     1       5.721  -5.975  26.442  0.00  0.00    +0.111 A 
ATOM      5  C   UNL     1       5.767  -5.591  25.113  0.00  0.00    +0.020 A 
ATOM      6  C   UNL     1       6.956  -5.059  24.621  0.00  0.00    +0.009 A 
ENDROOT
BRANCH   1   7
ATOM      7  C   UNL     1       9.361  -4.333  25.008  0.00  0.00    +0.192 C 
BRANCH   7   8
ATOM      8  O   UNL     1      10.418  -5.283  25.071  0.00  0.00    -0.390 OA
ATOM      9  H   UNL     1      11.069  -4.935  25.702  0.00  0.00    +0.210 HD
ENDBRANCH   7   8
ENDBRANCH   1   7
TORSDOF 2
ENDMDL
MODEL 9
REMARK VINA RESULT:      -3.5      4.630      5.467
REMARK  Name = 
REMARK  2 active torsions:
REMARK  status: ('A' for Active; 'I' for Inactive)
REMARK    1  A    between atoms: O_1  and  C_2
REMARK    2  A    between atoms: C_2  and  C_3
REMARK                            x       y       z     vdW  Elec       q    Type
REMARK                         _______ _______ _______ _____ _____    ______ ____
ROOT
ATOM      1  C   UNL     1       8.356  -4.631  24.310  0.00  0.00    -0.004 A 
ATOM      2  C   UNL     1       8.349  -3.242  24.219  0.00  0.00    +0.116 A 
ATOM      3  N   UNL     1       7.757  -2.543  23.223  0.00  0.00    -0.263 NA
ATOM      4  C   UNL     1       7.142  -3.264  22.262  0.00  0.00    +0.111 A 
ATOM      5  C   UNL     1       7.100  -4.647  22.247  0.00  0.00    +0.020 A 
ATOM      6  C   UNL     1       7.723  -5.337  23.283  0.00  0.00    +0.009 A 
ENDROOT
BRANCH   1   7
ATOM      7  C   UNL     1       9.083  -5.311  25.431  0.00  0.00    +0.192 C 
BRANCH   7   8
ATOM      8  O   UNL     1      10.469  -5.436  25.137  0.00  0.00    -0.390 OA
ATOM      9  H   UNL     1      10.847  -6.020  25.815  0.00  0.00    +0.210 HD
ENDBRANCH   7   8
ENDBRANCH   1   7
TORSDOF 2
ENDMDL
