MODEL 1
REMARK VINA RESULT:      -8.2      0.000      0.000
REMARK  Name = 
REMARK  6 active torsions:
REMARK  status: ('A' for Active; 'I' for Inactive)
REMARK    1  A    between atoms: C_2  and  N_3
REMARK    2  A    between atoms: N_5  and  C_18
REMARK    3  A    between atoms: C_7  and  C_9
REMARK    4  A    between atoms: C_20  and  C_24
REMARK    5  A    between atoms: C_26  and  S_30
REMARK    6  A    between atoms: S_30  and  C_31
REMARK                            x       y       z     vdW  Elec       q    Type
REMARK                         _______ _______ _______ _____ _____    ______ ____
ROOT
ATOM      1  C   UNL     1       7.819   2.603  25.141  0.00  0.00    +0.077 C 
ATOM      2  C   UNL     1       8.079   3.220  23.749  0.00  0.00    +0.057 C 
ATOM      3  C   UNL     1       8.234   2.007  22.804  0.00  0.00    +0.116 C 
ATOM      4  N   UNL     1       7.707   0.857  23.539  0.00  0.00    -0.313 N 
ATOM      5  C   UNL     1       7.149   1.252  24.829  0.00  0.00    +0.125 C 
ENDROOT
BRANCH   2   6
ATOM      6  C   UNL     1       9.279   4.152  23.749  0.00  0.00    -0.003 A 
ATOM      7  C   UNL     1       9.114   5.517  24.017  0.00  0.00    +0.130 A 
ATOM      8  F   UNL     1       7.886   6.010  24.233  0.00  0.00    -0.205 F 
ATOM      9  C   UNL     1      10.198   6.389  24.080  0.00  0.00    +0.080 A 
ATOM     10  C   UNL     1      11.477   5.890  23.874  0.00  0.00    +0.161 A 
ATOM     11  F   UNL     1      12.527   6.719  23.957  0.00  0.00    -0.202 F 
ATOM     12  C   UNL     1      11.671   4.544  23.594  0.00  0.00    +0.159 A 
ATOM     13  F   UNL     1      12.907   4.065  23.400  0.00  0.00    -0.202 F 
ATOM     14  C   UNL     1      10.584   3.674  23.525  0.00  0.00    +0.048 A 
ENDBRANCH   2   6
BRANCH   4  15
ATOM     15  C   UNL     1       8.228  -0.402  23.316  0.00  0.00    +0.125 A 
ATOM     16  N   UNL     1       9.555  -0.536  23.162  0.00  0.00    -0.221 NA
ATOM     17  C   UNL     1      10.031  -1.770  22.943  0.00  0.00    +0.223 A 
ATOM     18  N   UNL     1       9.314  -2.897  22.864  0.00  0.00    -0.235 NA
ATOM     19  C   UNL     1       7.982  -2.756  23.002  0.00  0.00    +0.076 A 
ATOM     20  C   UNL     1       7.406  -1.512  23.218  0.00  0.00    +0.072 A 
BRANCH  19  21
ATOM     21  C   UNL     1       7.183  -4.000  22.903  0.00  0.00    +0.002 A 
ATOM     22  C   UNL     1       7.118  -4.743  21.707  0.00  0.00    +0.010 A 
ATOM     23  C   UNL     1       6.393  -5.936  21.616  0.00  0.00    +0.002 A 
ATOM     24  C   UNL     1       5.703  -6.416  22.724  0.00  0.00    +0.027 A 
ATOM     25  C   UNL     1       5.730  -5.686  23.914  0.00  0.00    +0.088 A 
ATOM     26  C   UNL     1       6.462  -4.494  24.008  0.00  0.00    +0.037 A 
BRANCH  25  27
ATOM     27  S   UNL     1       4.917  -6.341  25.354  0.00  0.00    -0.006 S 
ATOM     28  O   UNL     1       5.904  -6.426  26.416  0.00  0.00    -0.170 OA
ATOM     29  O   UNL     1       4.180  -7.518  24.936  0.00  0.00    -0.170 OA
ATOM     30  C   UNL     1       3.740  -5.092  25.792  0.00  0.00    +0.200 C 
ENDBRANCH  25  27
ENDBRANCH  19  21
ENDBRANCH   4  15
BRANCH   1  31
ATOM     31  N   UNL     1       7.023   3.465  26.027  0.00  0.00    -0.325 NA
ATOM     32  H   UNL     1       6.370   2.889  26.560  0.00  0.00    +0.119 HD
ATOM     33  H   UNL     1       7.631   3.899  26.725  0.00  0.00    +0.119 HD
ENDBRANCH   1  31
TORSDOF 5
ENDMDL
MODEL 2
REMARK VINA RESULT:      -8.1      2.363      3.931
REMARK  Name = 
REMARK  6 active torsions:
REMARK  status: ('A' for Active; 'I' for Inactive)
REMARK    1  A    between atoms: C_2  and  N_3
REMARK    2  A    between atoms: N_5  and  C_18
REMARK    3  A    between atoms: C_7  and  C_9
REMARK    4  A    between atoms: C_20  and  C_24
REMARK    5  A    between atoms: C_26  and  S_30
REMARK    6  A    between atoms: S_30  and  C_31
REMARK                            x       y       z     vdW  Elec       q    Type
REMARK                         _______ _______ _______ _____ _____    ______ ____
ROOT
ATOM      1  C   UNL     1       8.950  -0.075  22.217  0.00  0.00    +0.077 C 
ATOM      2  C   UNL     1       9.925   0.451  23.295  0.00  0.00    +0.057 C 
ATOM      3  C   UNL     1      10.188  -0.764  24.213  0.00  0.00    +0.116 C 
ATOM      4  N   UNL     1       9.722  -1.935  23.470  0.00  0.00    -0.313 N 
ATOM      5  C   UNL     1       9.271  -1.578  22.128  0.00  0.00    +0.125 C 
ENDROOT
BRANCH   2   6
ATOM      6  C   UNL     1       9.372   1.661  24.027  0.00  0.00    -0.003 A 
ATOM      7  C   UNL     1       9.865   2.943  23.748  0.00  0.00    +0.130 A 
ATOM      8  F   UNL     1      10.857   3.096  22.859  0.00  0.00    -0.205 F 
ATOM      9  C   UNL     1       9.342   4.080  24.359  0.00  0.00    +0.080 A 
ATOM     10  C   UNL     1       8.304   3.939  25.270  0.00  0.00    +0.161 A 
ATOM     11  F   UNL     1       7.780   5.030  25.845  0.00  0.00    -0.202 F 
ATOM     12  C   UNL     1       7.803   2.680  25.577  0.00  0.00    +0.159 A 
ATOM     13  F   UNL     1       6.798   2.548  26.453  0.00  0.00    -0.202 F 
ATOM     14  C   UNL     1       8.332   1.543  24.968  0.00  0.00    +0.048 A 
ENDBRANCH   2   6
BRANCH   4  15
ATOM     15  C   UNL     1       9.220  -3.028  24.149  0.00  0.00    +0.125 A 
ATOM     16  N   UNL     1      10.067  -3.993  24.541  0.00  0.00    -0.221 NA
ATOM     17  C   UNL     1       9.550  -5.042  25.196  0.00  0.00    +0.223 A 
ATOM     18  N   UNL     1       8.261  -5.231  25.505  0.00  0.00    -0.235 NA
ATOM     19  C   UNL     1       7.413  -4.269  25.095  0.00  0.00    +0.076 A 
ATOM     20  C   UNL     1       7.864  -3.156  24.401  0.00  0.00    +0.072 A 
BRANCH  19  21
ATOM     21  C   UNL     1       5.984  -4.480  25.426  0.00  0.00    +0.002 A 
ATOM     22  C   UNL     1       5.357  -3.780  26.476  0.00  0.00    +0.010 A 
ATOM     23  C   UNL     1       4.000  -3.950  26.772  0.00  0.00    +0.002 A 
ATOM     24  C   UNL     1       3.232  -4.837  26.026  0.00  0.00    +0.027 A 
ATOM     25  C   UNL     1       3.835  -5.562  24.997  0.00  0.00    +0.088 A 
ATOM     26  C   UNL     1       5.192  -5.388  24.695  0.00  0.00    +0.037 A 
BRANCH  25  27
ATOM     27  S   UNL     1       2.835  -6.635  23.988  0.00  0.00    -0.006 S 
ATOM     28  O   UNL     1       3.176  -8.004  24.329  0.00  0.00    -0.170 OA
ATOM     29  O   UNL     1       2.943  -6.165  22.620  0.00  0.00    -0.170 OA
ATOM     30  C   UNL     1       1.179  -6.325  24.538  0.00  0.00    +0.200 C 
ENDBRANCH  25  27
ENDBRANCH  19  21
ENDBRANCH   4  15
BRANCH   1  31
ATOM     31  N   UNL     1       9.061   0.629  20.931  0.00  0.00    -0.325 NA
ATOM     32  H   UNL     1       8.139   0.684  20.496  0.00  0.00    +0.119 HD
ATOM     33  H   UNL     1       9.342   1.599  21.090  0.00  0.00    +0.119 HD
ENDBRANCH   1  31
TORSDOF 5
ENDMDL
MODEL 3
REMARK VINA RESULT:      -8.1      1.912      3.120
REMARK  Name = 
REMARK  6 active torsions:
REMARK  status: ('A' for Active; 'I' for Inactive)
REMARK    1  A    between atoms: C_2  and  N_3
REMARK    2  A    between atoms: N_5  and  C_18
REMARK    3  A    between atoms: C_7  and  C_9
REMARK    4  A    between atoms: C_20  and  C_24
REMARK    5  A    between atoms: C_26  and  S_30
REMARK    6  A    between atoms: S_30  and  C_31
REMARK                            x       y       z     vdW  Elec       q    Type
REMARK                         _______ _______ _______ _____ _____    ______ ____
ROOT
ATOM      1  C   UNL     1       9.522   1.379  22.643  0.00  0.00    +0.077 C 
ATOM      2  C   UNL     1      10.049   1.958  23.975  0.00  0.00    +0.057 C 
ATOM      3  C   UNL     1       9.918   0.799  24.987  0.00  0.00    +0.116 C 
ATOM      4  N   UNL     1       9.720  -0.410  24.187  0.00  0.00    -0.313 N 
ATOM      5  C   UNL     1       9.805  -0.130  22.757  0.00  0.00    +0.125 C 
ENDROOT
BRANCH   2   6
ATOM      6  C   UNL     1       9.305   3.217  24.388  0.00  0.00    -0.003 A 
ATOM      7  C   UNL     1       9.794   4.478  24.024  0.00  0.00    +0.130 A 
ATOM      8  F   UNL     1      10.945   4.577  23.344  0.00  0.00    -0.205 F 
ATOM      9  C   UNL     1       9.107   5.649  24.337  0.00  0.00    +0.080 A 
ATOM     10  C   UNL     1       7.906   5.563  25.028  0.00  0.00    +0.161 A 
ATOM     11  F   UNL     1       7.229   6.684  25.312  0.00  0.00    -0.202 F 
ATOM     12  C   UNL     1       7.404   4.327  25.413  0.00  0.00    +0.159 A 
ATOM     13  F   UNL     1       6.241   4.246  26.075  0.00  0.00    -0.202 F 
ATOM     14  C   UNL     1       8.094   3.157  25.103  0.00  0.00    +0.048 A 
ENDBRANCH   2   6
BRANCH   4  15
ATOM     15  C   UNL     1       8.969  -1.455  24.690  0.00  0.00    +0.125 A 
ATOM     16  N   UNL     1       8.894  -1.618  26.020  0.00  0.00    -0.221 NA
ATOM     17  C   UNL     1       8.161  -2.642  26.478  0.00  0.00    +0.223 A 
ATOM     18  N   UNL     1       7.484  -3.530  25.738  0.00  0.00    -0.235 NA
ATOM     19  C   UNL     1       7.575  -3.372  24.404  0.00  0.00    +0.076 A 
ATOM     20  C   UNL     1       8.325  -2.346  23.847  0.00  0.00    +0.072 A 
BRANCH  19  21
ATOM     21  C   UNL     1       6.837  -4.360  23.583  0.00  0.00    +0.002 A 
ATOM     22  C   UNL     1       7.403  -4.927  22.422  0.00  0.00    +0.010 A 
ATOM     23  C   UNL     1       6.724  -5.884  21.661  0.00  0.00    +0.002 A 
ATOM     24  C   UNL     1       5.451  -6.296  22.037  0.00  0.00    +0.027 A 
ATOM     25  C   UNL     1       4.857  -5.732  23.167  0.00  0.00    +0.088 A 
ATOM     26  C   UNL     1       5.539  -4.777  23.935  0.00  0.00    +0.037 A 
BRANCH  25  27
ATOM     27  S   UNL     1       3.263  -6.319  23.697  0.00  0.00    -0.006 S 
ATOM     28  O   UNL     1       3.423  -7.695  24.132  0.00  0.00    -0.170 OA
ATOM     29  O   UNL     1       2.311  -5.980  22.657  0.00  0.00    -0.170 OA
ATOM     30  C   UNL     1       2.888  -5.330  25.118  0.00  0.00    +0.200 C 
ENDBRANCH  25  27
ENDBRANCH  19  21
ENDBRANCH   4  15
BRANCH   1  31
ATOM     31  N   UNL     1      10.120   2.003  21.453  0.00  0.00    -0.325 NA
ATOM     32  H   UNL     1      11.074   1.658  21.335  0.00  0.00    +0.119 HD
ATOM     33  H   UNL     1       9.619   1.701  20.615  0.00  0.00    +0.119 HD
ENDBRANCH   1  31
TORSDOF 5
ENDMDL
MODEL 4
REMARK VINA RESULT:      -8.0      2.807      4.239
REMARK  Name = 
REMARK  6 active torsions:
REMARK  status: ('A' for Active; 'I' for Inactive)
REMARK    1  A    between atoms: C_2  and  N_3
REMARK    2  A    between atoms: N_5  and  C_18
REMARK    3  A    between atoms: C_7  and  C_9
REMARK    4  A    between atoms: C_20  and  C_24
REMARK    5  A    between atoms: C_26  and  S_30
REMARK    6  A    between atoms: S_30  and  C_31
REMARK                            x       y       z     vdW  Elec       q    Type
REMARK                         _______ _______ _______ _____ _____    ______ ____
ROOT
ATOM      1  C   UNL     1       8.999   0.168  22.405  0.00  0.00    +0.077 C 
ATOM      2  C   UNL     1       9.958   0.776  23.453  0.00  0.00    +0.057 C 
ATOM      3  C   UNL     1      10.286  -0.392  24.409  0.00  0.00    +0.116 C 
ATOM      4  N   UNL     1       9.869  -1.609  23.713  0.00  0.00    -0.313 N 
ATOM      5  C   UNL     1       9.389  -1.320  22.365  0.00  0.00    +0.125 C 
ENDROOT
BRANCH   2   6
ATOM      6  C   UNL     1       9.356   1.985  24.149  0.00  0.00    -0.003 A 
ATOM      7  C   UNL     1       9.814   3.274  23.849  0.00  0.00    +0.130 A 
ATOM      8  F   UNL     1      10.816   3.439  22.974  0.00  0.00    -0.205 F 
ATOM      9  C   UNL     1       9.246   4.408  24.426  0.00  0.00    +0.080 A 
ATOM     10  C   UNL     1       8.197   4.254  25.322  0.00  0.00    +0.161 A 
ATOM     11  F   UNL     1       7.631   5.342  25.864  0.00  0.00    -0.202 F 
ATOM     12  C   UNL     1       7.730   2.988  25.649  0.00  0.00    +0.159 A 
ATOM     13  F   UNL     1       6.714   2.843  26.511  0.00  0.00    -0.202 F 
ATOM     14  C   UNL     1       8.303   1.855  25.075  0.00  0.00    +0.048 A 
ENDBRANCH   2   6
BRANCH   4  15
ATOM     15  C   UNL     1       9.425  -2.700  24.435  0.00  0.00    +0.125 A 
ATOM     16  N   UNL     1      10.106  -3.853  24.351  0.00  0.00    -0.221 NA
ATOM     17  C   UNL     1       9.649  -4.895  25.061  0.00  0.00    +0.223 A 
ATOM     18  N   UNL     1       8.573  -4.904  25.857  0.00  0.00    -0.235 NA
ATOM     19  C   UNL     1       7.883  -3.750  25.925  0.00  0.00    +0.076 A 
ATOM     20  C   UNL     1       8.280  -2.628  25.212  0.00  0.00    +0.072 A 
BRANCH  19  21
ATOM     21  C   UNL     1       6.684  -3.760  26.796  0.00  0.00    +0.002 A 
ATOM     22  C   UNL     1       5.878  -2.615  26.958  0.00  0.00    +0.010 A 
ATOM     23  C   UNL     1       4.727  -2.628  27.752  0.00  0.00    +0.002 A 
ATOM     24  C   UNL     1       4.354  -3.792  28.416  0.00  0.00    +0.027 A 
ATOM     25  C   UNL     1       5.148  -4.932  28.293  0.00  0.00    +0.088 A 
ATOM     26  C   UNL     1       6.299  -4.923  27.492  0.00  0.00    +0.037 A 
BRANCH  25  27
ATOM     27  S   UNL     1       4.627  -6.444  29.075  0.00  0.00    -0.006 S 
ATOM     28  O   UNL     1       4.421  -6.162  30.484  0.00  0.00    -0.170 OA
ATOM     29  O   UNL     1       5.545  -7.485  28.656  0.00  0.00    -0.170 OA
ATOM     30  C   UNL     1       3.049  -6.786  28.343  0.00  0.00    +0.200 C 
ENDBRANCH  25  27
ENDBRANCH  19  21
ENDBRANCH   4  15
BRANCH   1  31
ATOM     31  N   UNL     1       9.065   0.831  21.094  0.00  0.00    -0.325 NA
ATOM     32  H   UNL     1       8.143   0.804  20.656  0.00  0.00    +0.119 HD
ATOM     33  H   UNL     1       9.275   1.823  21.218  0.00  0.00    +0.119 HD
ENDBRANCH   1  31
TORSDOF 5
ENDMDL
MODEL 5
REMARK VINA RESULT:      -8.0      6.046      9.853
REMARK  Name = 
REMARK  6 active torsions:
REMARK  status: ('A' for Active; 'I' for Inactive)
REMARK    1  A    between atoms: C_2  and  N_3
REMARK    2  A    between atoms: N_5  and  C_18
REMARK    3  A    between atoms: C_7  and  C_9
REMARK    4  A    between atoms: C_20  and  C_24
REMARK    5  A    between atoms: C_26  and  S_30
REMARK    6  A    between atoms: S_30  and  C_31
REMARK                            x       y       z     vdW  Elec       q    Type
REMARK                         _______ _______ _______ _____ _____    ______ ____
ROOT
ATOM      1  C   UNL     1       7.496  -4.097  25.763  0.00  0.00    +0.077 C 
ATOM      2  C   UNL     1       7.182  -4.782  24.414  0.00  0.00    +0.057 C 
ATOM      3  C   UNL     1       7.966  -3.963  23.366  0.00  0.00    +0.116 C 
ATOM      4  N   UNL     1       8.931  -3.164  24.122  0.00  0.00    -0.313 N 
ATOM      5  C   UNL     1       8.886  -3.473  25.547  0.00  0.00    +0.125 C 
ENDROOT
BRANCH   2   6
ATOM      6  C   UNL     1       5.689  -4.855  24.142  0.00  0.00    -0.003 A 
ATOM      7  C   UNL     1       5.176  -5.824  23.269  0.00  0.00    +0.130 A 
ATOM      8  F   UNL     1       6.011  -6.664  22.641  0.00  0.00    -0.205 F 
ATOM      9  C   UNL     1       3.808  -5.954  23.040  0.00  0.00    +0.080 A 
ATOM     10  C   UNL     1       2.930  -5.102  23.696  0.00  0.00    +0.161 A 
ATOM     11  F   UNL     1       1.611  -5.237  23.497  0.00  0.00    -0.202 F 
ATOM     12  C   UNL     1       3.410  -4.123  24.556  0.00  0.00    +0.159 A 
ATOM     13  F   UNL     1       2.560  -3.305  25.191  0.00  0.00    -0.202 F 
ATOM     14  C   UNL     1       4.780  -3.991  24.780  0.00  0.00    +0.048 A 
ENDBRANCH   2   6
BRANCH   4  15
ATOM     15  C   UNL     1       9.324  -1.927  23.647  0.00  0.00    +0.125 A 
ATOM     16  N   UNL     1      10.149  -1.872  22.590  0.00  0.00    -0.221 NA
ATOM     17  C   UNL     1      10.516  -0.658  22.155  0.00  0.00    +0.223 A 
ATOM     18  N   UNL     1      10.140   0.519  22.669  0.00  0.00    -0.235 NA
ATOM     19  C   UNL     1       9.325   0.458  23.740  0.00  0.00    +0.076 A 
ATOM     20  C   UNL     1       8.908  -0.758  24.262  0.00  0.00    +0.072 A 
BRANCH  19  21
ATOM     21  C   UNL     1       8.916   1.759  24.318  0.00  0.00    +0.002 A 
ATOM     22  C   UNL     1       7.954   1.841  25.346  0.00  0.00    +0.010 A 
ATOM     23  C   UNL     1       7.588   3.064  25.920  0.00  0.00    +0.002 A 
ATOM     24  C   UNL     1       8.171   4.244  25.472  0.00  0.00    +0.027 A 
ATOM     25  C   UNL     1       9.107   4.193  24.438  0.00  0.00    +0.088 A 
ATOM     26  C   UNL     1       9.480   2.968  23.867  0.00  0.00    +0.037 A 
BRANCH  25  27
ATOM     27  S   UNL     1       9.914   5.693  23.922  0.00  0.00    -0.006 S 
ATOM     28  O   UNL     1       9.037   6.363  22.979  0.00  0.00    -0.170 OA
ATOM     29  O   UNL     1      11.272   5.346  23.549  0.00  0.00    -0.170 OA
ATOM     30  C   UNL     1       9.991   6.672  25.397  0.00  0.00    +0.200 C 
ENDBRANCH  25  27
ENDBRANCH  19  21
ENDBRANCH   4  15
BRANCH   1  31
ATOM     31  N   UNL     1       7.431  -5.009  26.915  0.00  0.00    -0.325 NA
ATOM     32  H   UNL     1       8.138  -5.738  26.808  0.00  0.00    +0.119 HD
ATOM     33  H   UNL     1       7.689  -4.508  27.768  0.00  0.00    +0.119 HD
ENDBRANCH   1  31
TORSDOF 5
ENDMDL
MODEL 6
REMARK VINA RESULT:      -7.8      5.816      9.804
REMARK  Name = 
REMARK  6 active torsions:
REMARK  status: ('A' for Active; 'I' for Inactive)
REMARK    1  A    between atoms: C_2  and  N_3
REMARK    2  A    between atoms: N_5  and  C_18
REMARK    3  A    between atoms: C_7  and  C_9
REMARK    4  A    between atoms: C_20  and  C_24
REMARK    5  A    between atoms: C_26  and  S_30
REMARK    6  A    between atoms: S_30  and  C_31
REMARK                            x       y       z     vdW  Elec       q    Type
REMARK                         _______ _______ _______ _____ _____    ______ ____
ROOT
ATOM      1  C   UNL     1       7.568  -4.842  26.369  0.00  0.00    +0.077 C 
ATOM      2  C   UNL     1       7.134  -5.469  25.025  0.00  0.00    +0.057 C 
ATOM      3  C   UNL     1       7.843  -4.618  23.947  0.00  0.00    +0.116 C 
ATOM      4  N   UNL     1       8.879  -3.862  24.652  0.00  0.00    -0.313 N 
ATOM      5  C   UNL     1       8.946  -4.228  26.063  0.00  0.00    +0.125 C 
ENDROOT
BRANCH   2   6
ATOM      6  C   UNL     1       5.623  -5.511  24.874  0.00  0.00    -0.003 A 
ATOM      7  C   UNL     1       4.883  -4.322  24.838  0.00  0.00    +0.130 A 
ATOM      8  F   UNL     1       5.507  -3.143  24.980  0.00  0.00    -0.205 F 
ATOM      9  C   UNL     1       3.503  -4.321  24.645  0.00  0.00    +0.080 A 
ATOM     10  C   UNL     1       2.845  -5.532  24.481  0.00  0.00    +0.161 A 
ATOM     11  F   UNL     1       1.521  -5.538  24.271  0.00  0.00    -0.202 F 
ATOM     12  C   UNL     1       3.550  -6.728  24.524  0.00  0.00    +0.159 A 
ATOM     13  F   UNL     1       2.913  -7.895  24.361  0.00  0.00    -0.202 F 
ATOM     14  C   UNL     1       4.929  -6.726  24.724  0.00  0.00    +0.048 A 
ENDBRANCH   2   6
BRANCH   4  15
ATOM     15  C   UNL     1       9.252  -2.613  24.195  0.00  0.00    +0.125 A 
ATOM     16  N   UNL     1      10.151  -2.529  23.201  0.00  0.00    -0.221 NA
ATOM     17  C   UNL     1      10.496  -1.304  22.781  0.00  0.00    +0.223 A 
ATOM     18  N   UNL     1      10.031  -0.141  23.254  0.00  0.00    -0.235 NA
ATOM     19  C   UNL     1       9.142  -0.230  24.261  0.00  0.00    +0.076 A 
ATOM     20  C   UNL     1       8.741  -1.459  24.764  0.00  0.00    +0.072 A 
BRANCH  19  21
ATOM     21  C   UNL     1       8.634   1.056  24.794  0.00  0.00    +0.002 A 
ATOM     22  C   UNL     1       7.641   1.101  25.793  0.00  0.00    +0.010 A 
ATOM     23  C   UNL     1       7.181   2.312  26.324  0.00  0.00    +0.002 A 
ATOM     24  C   UNL     1       7.700   3.516  25.861  0.00  0.00    +0.027 A 
ATOM     25  C   UNL     1       8.666   3.500  24.854  0.00  0.00    +0.088 A 
ATOM     26  C   UNL     1       9.133   2.288  24.326  0.00  0.00    +0.037 A 
BRANCH  25  27
ATOM     27  S   UNL     1       9.391   5.035  24.320  0.00  0.00    -0.006 S 
ATOM     28  O   UNL     1      10.636   4.722  23.643  0.00  0.00    -0.170 OA
ATOM     29  O   UNL     1       9.375   5.938  25.455  0.00  0.00    -0.170 OA
ATOM     30  C   UNL     1       8.248   5.657  23.117  0.00  0.00    +0.200 C 
ENDBRANCH  25  27
ENDBRANCH  19  21
ENDBRANCH   4  15
BRANCH   1  31
ATOM     31  N   UNL     1       7.583  -5.798  27.486  0.00  0.00    -0.325 NA
ATOM     32  H   UNL     1       6.630  -5.936  27.825  0.00  0.00    +0.119 HD
ATOM     33  H   UNL     1       7.886  -6.716  27.152  0.00  0.00    +0.119 HD
ENDBRANCH   1  31
TORSDOF 5
ENDMDL
MODEL 7
REMARK VINA RESULT:      -7.8      2.460      3.829
REMARK  Name = 
REMARK  6 active torsions:
REMARK  status: ('A' for Active; 'I' for Inactive)
REMARK    1  A    between atoms: C_2  and  N_3
REMARK    2  A    between atoms: N_5  and  C_18
REMARK    3  A    between atoms: C_7  and  C_9
REMARK    4  A    between atoms: C_20  and  C_24
REMARK    5  A    between atoms: C_26  and  S_30
REMARK    6  A    between atoms: S_30  and  C_31
REMARK                            x       y       z     vdW  Elec       q    Type
REMARK                         _______ _______ _______ _____ _____    ______ ____
ROOT
ATOM      1  C   UNL     1       9.080   0.267  22.277  0.00  0.00    +0.077 C 
ATOM      2  C   UNL     1       9.877   0.654  23.543  0.00  0.00    +0.057 C 
ATOM      3  C   UNL     1       9.998  -0.659  24.348  0.00  0.00    +0.116 C 
ATOM      4  N   UNL     1       9.654  -1.733  23.415  0.00  0.00    -0.313 N 
ATOM      5  C   UNL     1       9.414  -1.222  22.070  0.00  0.00    +0.125 C 
ENDROOT
BRANCH   2   6
ATOM      6  C   UNL     1       9.215   1.783  24.314  0.00  0.00    -0.003 A 
ATOM      7  C   UNL     1       9.599   3.112  24.090  0.00  0.00    +0.130 A 
ATOM      8  F   UNL     1      10.584   3.384  23.222  0.00  0.00    -0.205 F 
ATOM      9  C   UNL     1       8.975   4.175  24.738  0.00  0.00    +0.080 A 
ATOM     10  C   UNL     1       7.944   3.911  25.628  0.00  0.00    +0.161 A 
ATOM     11  F   UNL     1       7.323   4.931  26.238  0.00  0.00    -0.202 F 
ATOM     12  C   UNL     1       7.550   2.603  25.880  0.00  0.00    +0.159 A 
ATOM     13  F   UNL     1       6.550   2.352  26.737  0.00  0.00    -0.202 F 
ATOM     14  C   UNL     1       8.179   1.540  25.235  0.00  0.00    +0.048 A 
ENDBRANCH   2   6
BRANCH   4  15
ATOM     15  C   UNL     1       9.057  -2.888  23.883  0.00  0.00    +0.125 A 
ATOM     16  N   UNL     1       9.819  -3.814  24.485  0.00  0.00    -0.221 NA
ATOM     17  C   UNL     1       9.211  -4.925  24.925  0.00  0.00    +0.223 A 
ATOM     18  N   UNL     1       7.907  -5.210  24.828  0.00  0.00    -0.235 NA
ATOM     19  C   UNL     1       7.149  -4.285  24.209  0.00  0.00    +0.076 A 
ATOM     20  C   UNL     1       7.701  -3.113  23.712  0.00  0.00    +0.072 A 
BRANCH  19  21
ATOM     21  C   UNL     1       5.707  -4.602  24.090  0.00  0.00    +0.002 A 
ATOM     22  C   UNL     1       5.229  -5.527  23.140  0.00  0.00    +0.010 A 
ATOM     23  C   UNL     1       3.872  -5.856  23.045  0.00  0.00    +0.002 A 
ATOM     24  C   UNL     1       2.951  -5.258  23.898  0.00  0.00    +0.027 A 
ATOM     25  C   UNL     1       3.394  -4.319  24.830  0.00  0.00    +0.088 A 
ATOM     26  C   UNL     1       4.754  -3.994  24.932  0.00  0.00    +0.037 A 
BRANCH  25  27
ATOM     27  S   UNL     1       2.228  -3.616  25.977  0.00  0.00    -0.006 S 
ATOM     28  O   UNL     1       1.623  -4.710  26.715  0.00  0.00    -0.170 OA
ATOM     29  O   UNL     1       1.404  -2.681  25.235  0.00  0.00    -0.170 OA
ATOM     30  C   UNL     1       3.234  -2.682  27.097  0.00  0.00    +0.200 C 
ENDBRANCH  25  27
ENDBRANCH  19  21
ENDBRANCH   4  15
BRANCH   1  31
ATOM     31  N   UNL     1       9.385   1.108  21.110  0.00  0.00    -0.325 NA
ATOM     32  H   UNL     1       8.525   1.541  20.772  0.00  0.00    +0.119 HD
ATOM     33  H   UNL     1       9.985   1.886  21.392  0.00  0.00    +0.119 HD
ENDBRANCH   1  31
TORSDOF 5
ENDMDL
MODEL 8
REMARK VINA RESULT:      -7.7      5.686      9.711
REMARK  Name = 
REMARK  6 active torsions:
REMARK  status: ('A' for Active; 'I' for Inactive)
REMARK    1  A    between atoms: C_2  and  N_3
REMARK    2  A    between atoms: N_5  and  C_18
REMARK    3  A    between atoms: C_7  and  C_9
REMARK    4  A    between atoms: C_20  and  C_24
REMARK    5  A    between atoms: C_26  and  S_30
REMARK    6  A    between atoms: S_30  and  C_31
REMARK                            x       y       z     vdW  Elec       q    Type
REMARK                         _______ _______ _______ _____ _____    ______ ____
ROOT
ATOM      1  C   UNL     1       6.059  -4.965  22.642  0.00  0.00    +0.077 C 
ATOM      2  C   UNL     1       5.237  -4.261  23.745  0.00  0.00    +0.057 C 
ATOM      3  C   UNL     1       5.907  -2.880  23.913  0.00  0.00    +0.116 C 
ATOM      4  N   UNL     1       6.756  -2.700  22.735  0.00  0.00    -0.313 N 
ATOM      5  C   UNL     1       6.611  -3.806  21.793  0.00  0.00    +0.125 C 
ENDROOT
BRANCH   2   6
ATOM      6  C   UNL     1       5.181  -5.074  25.027  0.00  0.00    -0.003 A 
ATOM      7  C   UNL     1       4.098  -5.927  25.276  0.00  0.00    +0.130 A 
ATOM      8  F   UNL     1       3.087  -5.996  24.397  0.00  0.00    -0.205 F 
ATOM      9  C   UNL     1       4.042  -6.729  26.414  0.00  0.00    +0.080 A 
ATOM     10  C   UNL     1       5.088  -6.680  27.325  0.00  0.00    +0.161 A 
ATOM     11  F   UNL     1       5.051  -7.466  28.410  0.00  0.00    -0.202 F 
ATOM     12  C   UNL     1       6.168  -5.834  27.111  0.00  0.00    +0.159 A 
ATOM     13  F   UNL     1       7.178  -5.793  27.990  0.00  0.00    -0.202 F 
ATOM     14  C   UNL     1       6.220  -5.029  25.975  0.00  0.00    +0.048 A 
ENDBRANCH   2   6
BRANCH   4  15
ATOM     15  C   UNL     1       7.918  -1.959  22.829  0.00  0.00    +0.125 A 
ATOM     16  N   UNL     1       9.099  -2.594  22.757  0.00  0.00    -0.221 NA
ATOM     17  C   UNL     1      10.209  -1.848  22.855  0.00  0.00    +0.223 A 
ATOM     18  N   UNL     1      10.264  -0.521  23.015  0.00  0.00    -0.235 NA
ATOM     19  C   UNL     1       9.078   0.110  23.103  0.00  0.00    +0.076 A 
ATOM     20  C   UNL     1       7.881  -0.589  23.025  0.00  0.00    +0.072 A 
BRANCH  19  21
ATOM     21  C   UNL     1       9.135   1.578  23.293  0.00  0.00    +0.002 A 
ATOM     22  C   UNL     1      10.352   2.244  23.547  0.00  0.00    +0.010 A 
ATOM     23  C   UNL     1      10.417   3.634  23.693  0.00  0.00    +0.002 A 
ATOM     24  C   UNL     1       9.259   4.398  23.598  0.00  0.00    +0.027 A 
ATOM     25  C   UNL     1       8.038   3.761  23.373  0.00  0.00    +0.088 A 
ATOM     26  C   UNL     1       7.972   2.369  23.219  0.00  0.00    +0.037 A 
BRANCH  25  27
ATOM     27  S   UNL     1       6.570   4.745  23.168  0.00  0.00    -0.006 S 
ATOM     28  O   UNL     1       6.254   5.338  24.456  0.00  0.00    -0.170 OA
ATOM     29  O   UNL     1       5.595   3.926  22.473  0.00  0.00    -0.170 OA
ATOM     30  C   UNL     1       7.069   6.043  22.071  0.00  0.00    +0.200 C 
ENDBRANCH  25  27
ENDBRANCH  19  21
ENDBRANCH   4  15
BRANCH   1  31
ATOM     31  N   UNL     1       5.286  -5.947  21.868  0.00  0.00    -0.325 NA
ATOM     32  H   UNL     1       4.501  -5.477  21.416  0.00  0.00    +0.119 HD
ATOM     33  H   UNL     1       5.857  -6.312  21.103  0.00  0.00    +0.119 HD
ENDBRANCH   1  31
TORSDOF 5
ENDMDL
MODEL 9
REMARK VINA RESULT:      -7.7      2.348      3.893
REMARK  Name = 
REMARK  6 active torsions:
REMARK  status: ('A' for Active; 'I' for Inactive)
REMARK    1  A    between atoms: C_2  and  N_3
REMARK    2  A    between atoms: N_5  and  C_18
REMARK    3  A    between atoms: C_7  and  C_9
REMARK    4  A    between atoms: C_20  and  C_24
REMARK    5  A    between atoms: C_26  and  S_30
REMARK    6  A    between atoms: S_30  and  C_31
REMARK                            x       y       z     vdW  Elec       q    Type
REMARK                         _______ _______ _______ _____ _____    ______ ____
ROOT
ATOM      1  C   UNL     1       9.633   3.506  23.536  0.00  0.00    +0.077 C 
ATOM      2  C   UNL     1       8.508   3.453  24.593  0.00  0.00    +0.057 C 
ATOM      3  C   UNL     1       8.419   1.965  24.999  0.00  0.00    +0.116 C 
ATOM      4  N   UNL     1       9.649   1.342  24.507  0.00  0.00    -0.313 N 
ATOM      5  C   UNL     1      10.547   2.324  23.907  0.00  0.00    +0.125 C 
ENDROOT
BRANCH   2   6
ATOM      6  C   UNL     1       7.200   4.022  24.068  0.00  0.00    -0.003 A 
ATOM      7  C   UNL     1       6.872   5.364  24.297  0.00  0.00    +0.130 A 
ATOM      8  F   UNL     1       7.695   6.140  25.016  0.00  0.00    -0.205 F 
ATOM      9  C   UNL     1       5.709   5.932  23.782  0.00  0.00    +0.080 A 
ATOM     10  C   UNL     1       4.853   5.147  23.022  0.00  0.00    +0.161 A 
ATOM     11  F   UNL     1       3.744   5.693  22.505  0.00  0.00    -0.202 F 
ATOM     12  C   UNL     1       5.146   3.810  22.790  0.00  0.00    +0.159 A 
ATOM     13  F   UNL     1       4.321   3.055  22.052  0.00  0.00    -0.202 F 
ATOM     14  C   UNL     1       6.308   3.241  23.310  0.00  0.00    +0.048 A 
ENDBRANCH   2   6
BRANCH   4  15
ATOM     15  C   UNL     1       9.645   0.016  24.123  0.00  0.00    +0.125 A 
ATOM     16  N   UNL     1      10.514  -0.390  23.183  0.00  0.00    -0.221 NA
ATOM     17  C   UNL     1      10.483  -1.682  22.829  0.00  0.00    +0.223 A 
ATOM     18  N   UNL     1       9.669  -2.623  23.322  0.00  0.00    -0.235 NA
ATOM     19  C   UNL     1       8.789  -2.209  24.252  0.00  0.00    +0.076 A 
ATOM     20  C   UNL     1       8.745  -0.885  24.666  0.00  0.00    +0.072 A 
BRANCH  19  21
ATOM     21  C   UNL     1       7.878  -3.246  24.792  0.00  0.00    +0.002 A 
ATOM     22  C   UNL     1       7.747  -3.466  26.178  0.00  0.00    +0.010 A 
ATOM     23  C   UNL     1       6.864  -4.421  26.694  0.00  0.00    +0.002 A 
ATOM     24  C   UNL     1       6.092  -5.191  25.832  0.00  0.00    +0.027 A 
ATOM     25  C   UNL     1       6.221  -5.012  24.455  0.00  0.00    +0.088 A 
ATOM     26  C   UNL     1       7.100  -4.050  23.936  0.00  0.00    +0.037 A 
BRANCH  25  27
ATOM     27  S   UNL     1       5.173  -5.938  23.355  0.00  0.00    -0.006 S 
ATOM     28  O   UNL     1       4.161  -5.031  22.843  0.00  0.00    -0.170 OA
ATOM     29  O   UNL     1       4.793  -7.156  24.044  0.00  0.00    -0.170 OA
ATOM     30  C   UNL     1       6.242  -6.385  22.014  0.00  0.00    +0.200 C 
ENDBRANCH  25  27
ENDBRANCH  19  21
ENDBRANCH   4  15
BRANCH   1  31
ATOM     31  N   UNL     1      10.332   4.799  23.485  0.00  0.00    -0.325 NA
ATOM     32  H   UNL     1      10.411   5.102  22.513  0.00  0.00    +0.119 HD
ATOM     33  H   UNL     1       9.767   5.516  23.945  0.00  0.00    +0.119 HD
ENDBRANCH   1  31
TORSDOF 5
ENDMDL
