MODEL 1
REMARK VINA RESULT:      -6.1      0.000      0.000
REMARK  Name = 
REMARK  15 active torsions:
REMARK  status: ('A' for Active; 'I' for Inactive)
REMARK    1  A    between atoms: N_1  and  C_2
REMARK    2  A    between atoms: C_2  and  C_4
REMARK    3  A    between atoms: C_2  and  C_28
REMARK    4  A    between atoms: C_4  and  C_5
REMARK    5  A    between atoms: C_5  and  C_6
REMARK    6  A    between atoms: N_8  and  C_9
REMARK    7  A    between atoms: C_9  and  C_11
REMARK    8  A    between atoms: C_9  and  C_21
REMARK    9  A    between atoms: C_11  and  S_12
REMARK   10  A    between atoms: S_12  and  C_13
REMARK   11  A    between atoms: C_13  and  C_14
REMARK   12  A    between atoms: N_23  and  CA_24
REMARK   13  A    between atoms: CA_24  and  C_25
REMARK   14  A    between atoms: C_25  and  O_26
REMARK   15  A    between atoms: C_28  and  O_29
REMARK                            x       y       z     vdW  Elec       q    Type
REMARK                         _______ _______ _______ _____ _____    ______ ____
ROOT
ATOM      1  C   UNK A   1       6.962  -4.421  25.740  0.00  0.00    +0.169 C 
ENDROOT
BRANCH   1   3
ATOM      2  C   UNK A   1       5.507  -6.128  26.807  0.00  0.00    +0.214 C 
ATOM      3  N   UNK A   1       5.704  -5.157  25.856  0.00  0.00    -0.303 N 
ATOM      4  H   UNK A   1       5.063  -5.115  25.069  0.00  0.00    +0.149 HD
ATOM      5  O   UNK A   1       6.363  -6.449  27.627  0.00  0.00    -0.276 OA
BRANCH   2   6
ATOM      6  C   UNK A   1       4.129  -6.757  26.780  0.00  0.00    +0.098 C 
BRANCH   6   7
ATOM      7  C   UNK A   1       3.154  -5.992  25.884  0.00  0.00    +0.039 C 
BRANCH   7   8
ATOM      8  C   UNK A   1       2.990  -6.625  24.493  0.00  0.00    +0.161 C 
BRANCH   8   9
ATOM      9  N   UNK A   1       4.147  -7.534  24.202  0.00  0.00    -0.318 NA
ATOM     10  H   UNK A   1       3.994  -8.425  24.688  0.00  0.00    +0.119 HD
ATOM     11  H   UNK A   1       4.104  -7.786  23.210  0.00  0.00    +0.119 HD
ENDBRANCH   8   9
BRANCH   8  12
ATOM     12  C   UNK A   1       2.924  -5.576  23.358  0.00  0.00    +0.322 C 
ATOM     13  O   UNK A   1       3.778  -4.742  23.107  0.00  0.00    -0.249 OA
BRANCH  12  14
ATOM     14  O   UNK A   1       1.762  -5.674  22.661  0.00  0.00    -0.480 OA
ATOM     15  H   UNK A   1       1.337  -6.512  22.976  0.00  0.00    +0.295 HD
ENDBRANCH  12  14
ENDBRANCH   8  12
ENDBRANCH   7   8
ENDBRANCH   6   7
ENDBRANCH   2   6
ENDBRANCH   1   3
BRANCH   1  16
ATOM     16  C   UNK A   1       7.527  -4.637  24.319  0.00  0.00    +0.235 C 
ATOM     17  N   GLY A   2       6.638  -4.398  23.283  0.00  0.00    -0.303 N 
ATOM     18  H   GLY A   2       5.640  -4.433  23.463  0.00  0.00    +0.149 HD
ATOM     19  O   UNK A   1       8.702  -4.924  24.103  0.00  0.00    -0.274 OA
BRANCH  17  20
ATOM     20  CA  GLY A   2       7.057  -4.547  21.885  0.00  0.00    +0.224 C 
BRANCH  20  21
ATOM     21  C   GLY A   2       6.290  -5.641  21.141  0.00  0.00    +0.322 C 
ATOM     22  OXT GLY A   2       6.001  -5.581  19.954  0.00  0.00    -0.249 OA
BRANCH  21  23
ATOM     23  O   GLY A   2       6.001  -6.724  21.901  0.00  0.00    -0.480 OA
ATOM     24  H   GLY A   2       5.141  -6.606  22.350  0.00  0.00    +0.295 HD
ENDBRANCH  21  23
ENDBRANCH  20  21
ENDBRANCH  17  20
ENDBRANCH   1  16
BRANCH   1  25
ATOM     25  C   UNK A   1       6.787  -2.927  26.054  0.00  0.00    +0.101 C 
BRANCH  25  26
ATOM     26  S   UNK A   1       8.350  -1.967  26.156  0.00  0.00    -0.154 S 
BRANCH  26  27
ATOM     27  C   UNK A   1       7.831  -0.418  25.349  0.00  0.00    +0.105 C 
BRANCH  27  28
ATOM     28  C   UNK A   1       8.477  -0.232  23.997  0.00  0.00    -0.024 A 
ATOM     29  C   UNK A   1       8.827   1.014  23.449  0.00  0.00    +0.017 A 
ATOM     30  I   UNK A   1       8.581   2.833  24.472  0.00  0.00    -0.044 I 
ATOM     31  C   UNK A   1       9.377   1.097  22.160  0.00  0.00    +0.014 A 
ATOM     32  C   UNK A   1       9.600  -0.057  21.411  0.00  0.00    +0.001 A 
ATOM     33  C   UNK A   1       9.289  -1.301  21.950  0.00  0.00    +0.000 A 
ATOM     34  C   UNK A   1       8.734  -1.386  23.229  0.00  0.00    +0.005 A 
ENDBRANCH  27  28
ENDBRANCH  26  27
ENDBRANCH  25  26
ENDBRANCH   1  25
TORSDOF 15
ENDMDL
MODEL 2
REMARK VINA RESULT:      -6.0      2.581      4.759
REMARK  Name = 
REMARK  15 active torsions:
REMARK  status: ('A' for Active; 'I' for Inactive)
REMARK    1  A    between atoms: N_1  and  C_2
REMARK    2  A    between atoms: C_2  and  C_4
REMARK    3  A    between atoms: C_2  and  C_28
REMARK    4  A    between atoms: C_4  and  C_5
REMARK    5  A    between atoms: C_5  and  C_6
REMARK    6  A    between atoms: N_8  and  C_9
REMARK    7  A    between atoms: C_9  and  C_11
REMARK    8  A    between atoms: C_9  and  C_21
REMARK    9  A    between atoms: C_11  and  S_12
REMARK   10  A    between atoms: S_12  and  C_13
REMARK   11  A    between atoms: C_13  and  C_14
REMARK   12  A    between atoms: N_23  and  CA_24
REMARK   13  A    between atoms: CA_24  and  C_25
REMARK   14  A    between atoms: C_25  and  O_26
REMARK   15  A    between atoms: C_28  and  O_29
REMARK                            x       y       z     vdW  Elec       q    Type
REMARK                         _______ _______ _______ _____ _____    ______ ____
ROOT
ATOM      1  C   UNK A   1       5.606  -1.285  24.994  0.00  0.00    +0.169 C 
ENDROOT
BRANCH   1   3
ATOM      2  C   UNK A   1       7.627  -1.938  23.706  0.00  0.00    +0.214 C 
ATOM      3  N   UNK A   1       6.930  -1.897  24.889  0.00  0.00    -0.303 N 
ATOM      4  H   UNK A   1       7.224  -2.508  25.644  0.00  0.00    +0.149 HD
ATOM      5  O   UNK A   1       7.196  -1.468  22.656  0.00  0.00    -0.276 OA
BRANCH   2   6
ATOM      6  C   UNK A   1       8.989  -2.592  23.807  0.00  0.00    +0.098 C 
BRANCH   6   7
ATOM      7  C   UNK A   1       8.900  -4.074  24.175  0.00  0.00    +0.039 C 
BRANCH   7   8
ATOM      8  C   UNK A   1       9.440  -4.379  25.582  0.00  0.00    +0.161 C 
BRANCH   8   9
ATOM      9  N   UNK A   1      10.370  -5.554  25.533  0.00  0.00    -0.318 NA
ATOM     10  H   UNK A   1       9.995  -6.295  26.137  0.00  0.00    +0.119 HD
ATOM     11  H   UNK A   1      10.316  -5.955  24.591  0.00  0.00    +0.119 HD
ENDBRANCH   8   9
BRANCH   8  12
ATOM     12  C   UNK A   1       8.321  -4.711  26.597  0.00  0.00    +0.322 C 
ATOM     13  O   UNK A   1       7.583  -3.902  27.135  0.00  0.00    -0.249 OA
BRANCH  12  14
ATOM     14  O   UNK A   1       8.261  -6.044  26.849  0.00  0.00    -0.480 OA
ATOM     15  H   UNK A   1       7.495  -6.162  27.466  0.00  0.00    +0.295 HD
ENDBRANCH  12  14
ENDBRANCH   8  12
ENDBRANCH   7   8
ENDBRANCH   6   7
ENDBRANCH   2   6
ENDBRANCH   1   3
BRANCH   1  16
ATOM     16  C   UNK A   1       4.612  -2.353  25.502  0.00  0.00    +0.235 C 
ATOM     17  N   GLY A   2       5.091  -3.652  25.515  0.00  0.00    -0.303 N 
ATOM     18  H   GLY A   2       5.873  -3.903  24.919  0.00  0.00    +0.149 HD
ATOM     19  O   UNK A   1       3.498  -2.074  25.939  0.00  0.00    -0.274 OA
BRANCH  17  20
ATOM     20  CA  GLY A   2       4.252  -4.757  25.994  0.00  0.00    +0.224 C 
BRANCH  20  21
ATOM     21  C   GLY A   2       4.847  -6.135  25.700  0.00  0.00    +0.322 C 
ATOM     22  OXT GLY A   2       4.899  -6.629  24.583  0.00  0.00    -0.249 OA
BRANCH  21  23
ATOM     23  O   GLY A   2       5.370  -6.751  26.787  0.00  0.00    -0.480 OA
ATOM     24  H   GLY A   2       5.914  -6.126  27.304  0.00  0.00    +0.295 HD
ENDBRANCH  21  23
ENDBRANCH  20  21
ENDBRANCH  17  20
ENDBRANCH   1  16
BRANCH   1  25
ATOM     25  C   UNK A   1       5.613  -0.047  25.905  0.00  0.00    +0.101 C 
BRANCH  25  26
ATOM     26  S   UNK A   1       7.253   0.389  26.609  0.00  0.00    -0.154 S 
BRANCH  26  27
ATOM     27  C   UNK A   1       7.603   1.921  25.687  0.00  0.00    +0.105 C 
BRANCH  27  28
ATOM     28  C   UNK A   1       8.399   1.663  24.430  0.00  0.00    -0.024 A 
ATOM     29  C   UNK A   1       7.953   1.964  23.131  0.00  0.00    +0.017 A 
ATOM     30  I   UNK A   1       6.119   2.908  22.732  0.00  0.00    -0.044 I 
ATOM     31  C   UNK A   1       8.740   1.641  22.014  0.00  0.00    +0.014 A 
ATOM     32  C   UNK A   1       9.983   1.033  22.178  0.00  0.00    +0.001 A 
ATOM     33  C   UNK A   1      10.455   0.758  23.457  0.00  0.00    +0.000 A 
ATOM     34  C   UNK A   1       9.671   1.070  24.570  0.00  0.00    +0.005 A 
ENDBRANCH  27  28
ENDBRANCH  26  27
ENDBRANCH  25  26
ENDBRANCH   1  25
TORSDOF 15
ENDMDL
MODEL 3
REMARK VINA RESULT:      -6.0      1.837      3.815
REMARK  Name = 
REMARK  15 active torsions:
REMARK  status: ('A' for Active; 'I' for Inactive)
REMARK    1  A    between atoms: N_1  and  C_2
REMARK    2  A    between atoms: C_2  and  C_4
REMARK    3  A    between atoms: C_2  and  C_28
REMARK    4  A    between atoms: C_4  and  C_5
REMARK    5  A    between atoms: C_5  and  C_6
REMARK    6  A    between atoms: N_8  and  C_9
REMARK    7  A    between atoms: C_9  and  C_11
REMARK    8  A    between atoms: C_9  and  C_21
REMARK    9  A    between atoms: C_11  and  S_12
REMARK   10  A    between atoms: S_12  and  C_13
REMARK   11  A    between atoms: C_13  and  C_14
REMARK   12  A    between atoms: N_23  and  CA_24
REMARK   13  A    between atoms: CA_24  and  C_25
REMARK   14  A    between atoms: C_25  and  O_26
REMARK   15  A    between atoms: C_28  and  O_29
REMARK                            x       y       z     vdW  Elec       q    Type
REMARK                         _______ _______ _______ _____ _____    ______ ____
ROOT
ATOM      1  C   UNK A   1       7.029  -5.172  22.939  0.00  0.00    +0.169 C 
ENDROOT
BRANCH   1   3
ATOM      2  C   UNK A   1       8.366  -5.111  25.032  0.00  0.00    +0.214 C 
ATOM      3  N   UNK A   1       7.192  -4.871  24.361  0.00  0.00    -0.303 N 
ATOM      4  H   UNK A   1       6.350  -4.709  24.905  0.00  0.00    +0.149 HD
ATOM      5  O   UNK A   1       9.361  -5.592  24.494  0.00  0.00    -0.276 OA
BRANCH   2   6
ATOM      6  C   UNK A   1       8.344  -4.709  26.491  0.00  0.00    +0.098 C 
BRANCH   6   7
ATOM      7  C   UNK A   1       6.956  -4.261  26.953  0.00  0.00    +0.039 C 
BRANCH   7   8
ATOM      8  C   UNK A   1       6.265  -5.286  27.867  0.00  0.00    +0.161 C 
BRANCH   8   9
ATOM      9  N   UNK A   1       7.254  -6.315  28.326  0.00  0.00    -0.318 NA
ATOM     10  H   UNK A   1       7.424  -6.184  29.330  0.00  0.00    +0.119 HD
ATOM     11  H   UNK A   1       6.799  -7.232  28.273  0.00  0.00    +0.119 HD
ENDBRANCH   8   9
BRANCH   8  12
ATOM     12  C   UNK A   1       5.106  -6.032  27.166  0.00  0.00    +0.322 C 
ATOM     13  O   UNK A   1       5.224  -6.974  26.401  0.00  0.00    -0.249 OA
BRANCH  12  14
ATOM     14  O   UNK A   1       3.902  -5.491  27.491  0.00  0.00    -0.480 OA
ATOM     15  H   UNK A   1       3.656  -4.917  26.722  0.00  0.00    +0.295 HD
ENDBRANCH  12  14
ENDBRANCH   8  12
ENDBRANCH   7   8
ENDBRANCH   6   7
ENDBRANCH   2   6
ENDBRANCH   1   3
BRANCH   1  16
ATOM     16  C   UNK A   1       5.535  -5.453  22.666  0.00  0.00    +0.235 C 
ATOM     17  N   GLY A   2       4.702  -5.363  23.770  0.00  0.00    -0.303 N 
ATOM     18  H   GLY A   2       5.094  -5.459  24.701  0.00  0.00    +0.149 HD
ATOM     19  O   UNK A   1       5.090  -5.666  21.541  0.00  0.00    -0.274 OA
BRANCH  17  20
ATOM     20  CA  GLY A   2       3.258  -5.588  23.640  0.00  0.00    +0.224 C 
BRANCH  20  21
ATOM     21  C   GLY A   2       2.860  -7.054  23.804  0.00  0.00    +0.322 C 
ATOM     22  OXT GLY A   2       1.751  -7.493  23.530  0.00  0.00    -0.249 OA
BRANCH  21  23
ATOM     23  O   GLY A   2       3.867  -7.853  24.230  0.00  0.00    -0.480 OA
ATOM     24  H   GLY A   2       4.733  -7.444  24.035  0.00  0.00    +0.295 HD
ENDBRANCH  21  23
ENDBRANCH  20  21
ENDBRANCH  17  20
ENDBRANCH   1  16
BRANCH   1  25
ATOM     25  C   UNK A   1       7.559  -4.040  22.045  0.00  0.00    +0.101 C 
BRANCH  25  26
ATOM     26  S   UNK A   1       7.400  -2.352  22.752  0.00  0.00    -0.154 S 
BRANCH  26  27
ATOM     27  C   UNK A   1       9.156  -1.949  23.022  0.00  0.00    +0.105 C 
BRANCH  27  28
ATOM     28  C   UNK A   1       9.387  -0.464  23.167  0.00  0.00    -0.024 A 
ATOM     29  C   UNK A   1       9.200   0.257  24.359  0.00  0.00    +0.017 A 
ATOM     30  I   UNK A   1       8.642  -0.644  26.174  0.00  0.00    -0.044 I 
ATOM     31  C   UNK A   1       9.387   1.648  24.389  0.00  0.00    +0.014 A 
ATOM     32  C   UNK A   1       9.780   2.333  23.241  0.00  0.00    +0.001 A 
ATOM     33  C   UNK A   1      10.001   1.632  22.060  0.00  0.00    +0.000 A 
ATOM     34  C   UNK A   1       9.807   0.249  22.025  0.00  0.00    +0.005 A 
ENDBRANCH  27  28
ENDBRANCH  26  27
ENDBRANCH  25  26
ENDBRANCH   1  25
TORSDOF 15
ENDMDL
MODEL 4
REMARK VINA RESULT:      -6.0      1.589      1.879
REMARK  Name = 
REMARK  15 active torsions:
REMARK  status: ('A' for Active; 'I' for Inactive)
REMARK    1  A    between atoms: N_1  and  C_2
REMARK    2  A    between atoms: C_2  and  C_4
REMARK    3  A    between atoms: C_2  and  C_28
REMARK    4  A    between atoms: C_4  and  C_5
REMARK    5  A    between atoms: C_5  and  C_6
REMARK    6  A    between atoms: N_8  and  C_9
REMARK    7  A    between atoms: C_9  and  C_11
REMARK    8  A    between atoms: C_9  and  C_21
REMARK    9  A    between atoms: C_11  and  S_12
REMARK   10  A    between atoms: S_12  and  C_13
REMARK   11  A    between atoms: C_13  and  C_14
REMARK   12  A    between atoms: N_23  and  CA_24
REMARK   13  A    between atoms: CA_24  and  C_25
REMARK   14  A    between atoms: C_25  and  O_26
REMARK   15  A    between atoms: C_28  and  O_29
REMARK                            x       y       z     vdW  Elec       q    Type
REMARK                         _______ _______ _______ _____ _____    ______ ____
ROOT
ATOM      1  C   UNK A   1       8.456  -3.463  26.237  0.00  0.00    +0.169 C 
ENDROOT
BRANCH   1   3
ATOM      2  C   UNK A   1       6.716  -4.943  27.214  0.00  0.00    +0.214 C 
ATOM      3  N   UNK A   1       7.064  -3.803  26.533  0.00  0.00    -0.303 N 
ATOM      4  H   UNK A   1       6.342  -3.310  26.015  0.00  0.00    +0.149 HD
ATOM      5  O   UNK A   1       7.539  -5.757  27.625  0.00  0.00    -0.276 OA
BRANCH   2   6
ATOM      6  C   UNK A   1       5.228  -5.104  27.443  0.00  0.00    +0.098 C 
BRANCH   6   7
ATOM      7  C   UNK A   1       4.618  -6.202  26.570  0.00  0.00    +0.039 C 
BRANCH   7   8
ATOM      8  C   UNK A   1       4.863  -5.984  25.068  0.00  0.00    +0.161 C 
BRANCH   8   9
ATOM      9  N   UNK A   1       4.446  -4.599  24.675  0.00  0.00    -0.318 NA
ATOM     10  H   UNK A   1       3.744  -4.666  23.929  0.00  0.00    +0.119 HD
ATOM     11  H   UNK A   1       3.928  -4.193  25.461  0.00  0.00    +0.119 HD
ENDBRANCH   8   9
BRANCH   8  12
ATOM     12  C   UNK A   1       4.079  -6.978  24.179  0.00  0.00    +0.322 C 
ATOM     13  O   UNK A   1       3.571  -8.022  24.554  0.00  0.00    -0.249 OA
BRANCH  12  14
ATOM     14  O   UNK A   1       4.036  -6.559  22.888  0.00  0.00    -0.480 OA
ATOM     15  H   UNK A   1       4.851  -6.929  22.464  0.00  0.00    +0.295 HD
ENDBRANCH  12  14
ENDBRANCH   8  12
ENDBRANCH   7   8
ENDBRANCH   6   7
ENDBRANCH   2   6
ENDBRANCH   1   3
BRANCH   1  16
ATOM     16  C   UNK A   1       8.668  -3.557  24.710  0.00  0.00    +0.235 C 
ATOM     17  N   GLY A   2       7.511  -3.619  23.951  0.00  0.00    -0.303 N 
ATOM     18  H   GLY A   2       6.647  -3.932  24.382  0.00  0.00    +0.149 HD
ATOM     19  O   UNK A   1       9.778  -3.502  24.185  0.00  0.00    -0.274 OA
BRANCH  17  20
ATOM     20  CA  GLY A   2       7.576  -3.690  22.486  0.00  0.00    +0.224 C 
BRANCH  20  21
ATOM     21  C   GLY A   2       6.606  -4.710  21.890  0.00  0.00    +0.322 C 
ATOM     22  OXT GLY A   2       6.906  -5.871  21.645  0.00  0.00    -0.249 OA
BRANCH  21  23
ATOM     23  O   GLY A   2       5.352  -4.233  21.704  0.00  0.00    -0.480 OA
ATOM     24  H   GLY A   2       5.381  -3.298  21.424  0.00  0.00    +0.295 HD
ENDBRANCH  21  23
ENDBRANCH  20  21
ENDBRANCH  17  20
ENDBRANCH   1  16
BRANCH   1  25
ATOM     25  C   UNK A   1       8.837  -2.074  26.772  0.00  0.00    +0.101 C 
BRANCH  25  26
ATOM     26  S   UNK A   1       8.009  -0.665  25.935  0.00  0.00    -0.154 S 
BRANCH  26  27
ATOM     27  C   UNK A   1       9.458   0.198  25.246  0.00  0.00    +0.105 C 
BRANCH  27  28
ATOM     28  C   UNK A   1       9.232   0.652  23.824  0.00  0.00    -0.024 A 
ATOM     29  C   UNK A   1       8.667   1.889  23.465  0.00  0.00    +0.017 A 
ATOM     30  I   UNK A   1       8.118   3.355  24.867  0.00  0.00    -0.044 I 
ATOM     31  C   UNK A   1       8.444   2.206  22.116  0.00  0.00    +0.014 A 
ATOM     32  C   UNK A   1       8.796   1.308  21.111  0.00  0.00    +0.001 A 
ATOM     33  C   UNK A   1       9.386   0.093  21.446  0.00  0.00    +0.000 A 
ATOM     34  C   UNK A   1       9.601  -0.230  22.787  0.00  0.00    +0.005 A 
ENDBRANCH  27  28
ENDBRANCH  26  27
ENDBRANCH  25  26
ENDBRANCH   1  25
TORSDOF 15
ENDMDL
MODEL 5
REMARK VINA RESULT:      -6.0      1.703      2.351
REMARK  Name = 
REMARK  15 active torsions:
REMARK  status: ('A' for Active; 'I' for Inactive)
REMARK    1  A    between atoms: N_1  and  C_2
REMARK    2  A    between atoms: C_2  and  C_4
REMARK    3  A    between atoms: C_2  and  C_28
REMARK    4  A    between atoms: C_4  and  C_5
REMARK    5  A    between atoms: C_5  and  C_6
REMARK    6  A    between atoms: N_8  and  C_9
REMARK    7  A    between atoms: C_9  and  C_11
REMARK    8  A    between atoms: C_9  and  C_21
REMARK    9  A    between atoms: C_11  and  S_12
REMARK   10  A    between atoms: S_12  and  C_13
REMARK   11  A    between atoms: C_13  and  C_14
REMARK   12  A    between atoms: N_23  and  CA_24
REMARK   13  A    between atoms: CA_24  and  C_25
REMARK   14  A    between atoms: C_25  and  O_26
REMARK   15  A    between atoms: C_28  and  O_29
REMARK                            x       y       z     vdW  Elec       q    Type
REMARK                         _______ _______ _______ _____ _____    ______ ____
ROOT
ATOM      1  C   UNK A   1       7.942  -3.794  25.356  0.00  0.00    +0.169 C 
ENDROOT
BRANCH   1   3
ATOM      2  C   UNK A   1       6.894  -5.097  27.192  0.00  0.00    +0.214 C 
ATOM      3  N   UNK A   1       6.797  -4.171  26.184  0.00  0.00    -0.303 N 
ATOM      4  H   UNK A   1       5.872  -3.921  25.845  0.00  0.00    +0.149 HD
ATOM      5  O   UNK A   1       7.940  -5.675  27.475  0.00  0.00    -0.276 OA
BRANCH   2   6
ATOM      6  C   UNK A   1       5.604  -5.332  27.950  0.00  0.00    +0.098 C 
BRANCH   6   7
ATOM      7  C   UNK A   1       4.936  -6.656  27.571  0.00  0.00    +0.039 C 
BRANCH   7   8
ATOM      8  C   UNK A   1       3.768  -6.481  26.587  0.00  0.00    +0.161 C 
BRANCH   8   9
ATOM      9  N   UNK A   1       2.748  -7.559  26.802  0.00  0.00    -0.318 NA
ATOM     10  H   UNK A   1       2.802  -8.224  26.021  0.00  0.00    +0.119 HD
ATOM     11  H   UNK A   1       3.044  -8.111  27.614  0.00  0.00    +0.119 HD
ENDBRANCH   8   9
BRANCH   8  12
ATOM     12  C   UNK A   1       4.212  -6.547  25.107  0.00  0.00    +0.322 C 
ATOM     13  O   UNK A   1       4.326  -7.563  24.441  0.00  0.00    -0.249 OA
BRANCH  12  14
ATOM     14  O   UNK A   1       4.491  -5.310  24.619  0.00  0.00    -0.480 OA
ATOM     15  H   UNK A   1       5.425  -5.361  24.293  0.00  0.00    +0.295 HD
ENDBRANCH  12  14
ENDBRANCH   8  12
ENDBRANCH   7   8
ENDBRANCH   6   7
ENDBRANCH   2   6
ENDBRANCH   1   3
BRANCH   1  16
ATOM     16  C   UNK A   1       8.131  -4.869  24.263  0.00  0.00    +0.235 C 
ATOM     17  N   GLY A   2       7.168  -4.880  23.267  0.00  0.00    -0.303 N 
ATOM     18  H   GLY A   2       6.259  -4.467  23.446  0.00  0.00    +0.149 HD
ATOM     19  O   UNK A   1       9.105  -5.618  24.223  0.00  0.00    -0.274 OA
BRANCH  17  20
ATOM     20  CA  GLY A   2       7.245  -5.839  22.159  0.00  0.00    +0.224 C 
BRANCH  20  21
ATOM     21  C   GLY A   2       6.008  -5.821  21.261  0.00  0.00    +0.322 C 
ATOM     22  OXT GLY A   2       6.035  -5.537  20.071  0.00  0.00    -0.249 OA
BRANCH  21  23
ATOM     23  O   GLY A   2       4.869  -6.204  21.886  0.00  0.00    -0.480 OA
ATOM     24  H   GLY A   2       4.279  -5.437  22.021  0.00  0.00    +0.295 HD
ENDBRANCH  21  23
ENDBRANCH  20  21
ENDBRANCH  17  20
ENDBRANCH   1  16
BRANCH   1  25
ATOM     25  C   UNK A   1       7.777  -2.395  24.744  0.00  0.00    +0.101 C 
BRANCH  25  26
ATOM     26  S   UNK A   1       9.282  -1.716  23.938  0.00  0.00    -0.154 S 
BRANCH  26  27
ATOM     27  C   UNK A   1       8.529  -0.457  22.858  0.00  0.00    +0.105 C 
BRANCH  27  28
ATOM     28  C   UNK A   1       8.881   0.948  23.284  0.00  0.00    -0.024 A 
ATOM     29  C   UNK A   1       8.023   1.799  24.004  0.00  0.00    +0.017 A 
ATOM     30  I   UNK A   1       6.122   1.213  24.681  0.00  0.00    -0.044 I 
ATOM     31  C   UNK A   1       8.415   3.111  24.312  0.00  0.00    +0.014 A 
ATOM     32  C   UNK A   1       9.667   3.584  23.926  0.00  0.00    +0.001 A 
ATOM     33  C   UNK A   1      10.542   2.746  23.242  0.00  0.00    +0.000 A 
ATOM     34  C   UNK A   1      10.152   1.443  22.925  0.00  0.00    +0.005 A 
ENDBRANCH  27  28
ENDBRANCH  26  27
ENDBRANCH  25  26
ENDBRANCH   1  25
TORSDOF 15
ENDMDL
MODEL 6
REMARK VINA RESULT:      -5.9      1.925      3.960
REMARK  Name = 
REMARK  15 active torsions:
REMARK  status: ('A' for Active; 'I' for Inactive)
REMARK    1  A    between atoms: N_1  and  C_2
REMARK    2  A    between atoms: C_2  and  C_4
REMARK    3  A    between atoms: C_2  and  C_28
REMARK    4  A    between atoms: C_4  and  C_5
REMARK    5  A    between atoms: C_5  and  C_6
REMARK    6  A    between atoms: N_8  and  C_9
REMARK    7  A    between atoms: C_9  and  C_11
REMARK    8  A    between atoms: C_9  and  C_21
REMARK    9  A    between atoms: C_11  and  S_12
REMARK   10  A    between atoms: S_12  and  C_13
REMARK   11  A    between atoms: C_13  and  C_14
REMARK   12  A    between atoms: N_23  and  CA_24
REMARK   13  A    between atoms: CA_24  and  C_25
REMARK   14  A    between atoms: C_25  and  O_26
REMARK   15  A    between atoms: C_28  and  O_29
REMARK                            x       y       z     vdW  Elec       q    Type
REMARK                         _______ _______ _______ _____ _____    ______ ____
ROOT
ATOM      1  C   UNK A   1       7.118  -3.061  26.115  0.00  0.00    +0.169 C 
ENDROOT
BRANCH   1   3
ATOM      2  C   UNK A   1       6.804  -3.044  23.651  0.00  0.00    +0.214 C 
ATOM      3  N   UNK A   1       7.234  -3.675  24.792  0.00  0.00    -0.303 N 
ATOM      4  H   UNK A   1       7.411  -4.674  24.754  0.00  0.00    +0.149 HD
ATOM      5  O   UNK A   1       6.296  -1.926  23.652  0.00  0.00    -0.276 OA
BRANCH   2   6
ATOM      6  C   UNK A   1       7.033  -3.832  22.378  0.00  0.00    +0.098 C 
BRANCH   6   7
ATOM      7  C   UNK A   1       7.430  -5.284  22.653  0.00  0.00    +0.039 C 
BRANCH   7   8
ATOM      8  C   UNK A   1       6.305  -6.285  22.346  0.00  0.00    +0.161 C 
BRANCH   8   9
ATOM      9  N   UNK A   1       5.689  -5.974  21.015  0.00  0.00    -0.318 NA
ATOM     10  H   UNK A   1       6.440  -5.768  20.346  0.00  0.00    +0.119 HD
ATOM     11  H   UNK A   1       5.271  -6.838  20.655  0.00  0.00    +0.119 HD
ENDBRANCH   8   9
BRANCH   8  12
ATOM     12  C   UNK A   1       5.173  -6.262  23.401  0.00  0.00    +0.322 C 
ATOM     13  O   UNK A   1       5.323  -6.130  24.604  0.00  0.00    -0.249 OA
BRANCH  12  14
ATOM     14  O   UNK A   1       3.956  -6.431  22.823  0.00  0.00    -0.480 OA
ATOM     15  H   UNK A   1       3.733  -7.388  22.955  0.00  0.00    +0.295 HD
ENDBRANCH  12  14
ENDBRANCH   8  12
ENDBRANCH   7   8
ENDBRANCH   6   7
ENDBRANCH   2   6
ENDBRANCH   1   3
BRANCH   1  16
ATOM     16  C   UNK A   1       6.814  -4.171  27.145  0.00  0.00    +0.235 C 
ATOM     17  N   GLY A   2       5.536  -4.152  27.680  0.00  0.00    -0.303 N 
ATOM     18  H   GLY A   2       4.999  -3.292  27.660  0.00  0.00    +0.149 HD
ATOM     19  O   UNK A   1       7.613  -5.062  27.422  0.00  0.00    -0.274 OA
BRANCH  17  20
ATOM     20  CA  GLY A   2       5.115  -5.166  28.654  0.00  0.00    +0.224 C 
BRANCH  20  21
ATOM     21  C   GLY A   2       4.428  -6.370  28.009  0.00  0.00    +0.322 C 
ATOM     22  OXT GLY A   2       3.214  -6.508  27.948  0.00  0.00    -0.249 OA
BRANCH  21  23
ATOM     23  O   GLY A   2       5.284  -7.259  27.453  0.00  0.00    -0.480 OA
ATOM     24  H   GLY A   2       4.805  -7.870  26.860  0.00  0.00    +0.295 HD
ENDBRANCH  21  23
ENDBRANCH  20  21
ENDBRANCH  17  20
ENDBRANCH   1  16
BRANCH   1  25
ATOM     25  C   UNK A   1       8.380  -2.271  26.497  0.00  0.00    +0.101 C 
BRANCH  25  26
ATOM     26  S   UNK A   1       8.222  -0.446  26.366  0.00  0.00    -0.154 S 
BRANCH  26  27
ATOM     27  C   UNK A   1       9.794  -0.046  25.536  0.00  0.00    +0.105 C 
BRANCH  27  28
ATOM     28  C   UNK A   1       9.659  -0.022  24.033  0.00  0.00    -0.024 A 
ATOM     29  C   UNK A   1       9.272   1.105  23.287  0.00  0.00    +0.017 A 
ATOM     30  I   UNK A   1       8.895   2.984  24.151  0.00  0.00    -0.044 I 
ATOM     31  C   UNK A   1       9.120   1.021  21.894  0.00  0.00    +0.014 A 
ATOM     32  C   UNK A   1       9.369  -0.177  21.227  0.00  0.00    +0.001 A 
ATOM     33  C   UNK A   1       9.785  -1.293  21.944  0.00  0.00    +0.000 A 
ATOM     34  C   UNK A   1       9.928  -1.216  23.331  0.00  0.00    +0.005 A 
ENDBRANCH  27  28
ENDBRANCH  26  27
ENDBRANCH  25  26
ENDBRANCH   1  25
TORSDOF 15
ENDMDL
MODEL 7
REMARK VINA RESULT:      -5.8      2.059      3.809
REMARK  Name = 
REMARK  15 active torsions:
REMARK  status: ('A' for Active; 'I' for Inactive)
REMARK    1  A    between atoms: N_1  and  C_2
REMARK    2  A    between atoms: C_2  and  C_4
REMARK    3  A    between atoms: C_2  and  C_28
REMARK    4  A    between atoms: C_4  and  C_5
REMARK    5  A    between atoms: C_5  and  C_6
REMARK    6  A    between atoms: N_8  and  C_9
REMARK    7  A    between atoms: C_9  and  C_11
REMARK    8  A    between atoms: C_9  and  C_21
REMARK    9  A    between atoms: C_11  and  S_12
REMARK   10  A    between atoms: S_12  and  C_13
REMARK   11  A    between atoms: C_13  and  C_14
REMARK   12  A    between atoms: N_23  and  CA_24
REMARK   13  A    between atoms: CA_24  and  C_25
REMARK   14  A    between atoms: C_25  and  O_26
REMARK   15  A    between atoms: C_28  and  O_29
REMARK                            x       y       z     vdW  Elec       q    Type
REMARK                         _______ _______ _______ _____ _____    ______ ____
ROOT
ATOM      1  C   UNK A   1       8.254  -3.162  22.905  0.00  0.00    +0.169 C 
ENDROOT
BRANCH   1   3
ATOM      2  C   UNK A   1       8.730  -4.313  25.054  0.00  0.00    +0.214 C 
ATOM      3  N   UNK A   1       8.148  -3.282  24.358  0.00  0.00    -0.303 N 
ATOM      4  H   UNK A   1       7.434  -2.729  24.823  0.00  0.00    +0.149 HD
ATOM      5  O   UNK A   1       9.378  -5.206  24.514  0.00  0.00    -0.276 OA
BRANCH   2   6
ATOM      6  C   UNK A   1       8.528  -4.247  26.553  0.00  0.00    +0.098 C 
BRANCH   6   7
ATOM      7  C   UNK A   1       7.627  -5.370  27.072  0.00  0.00    +0.039 C 
BRANCH   7   8
ATOM      8  C   UNK A   1       6.233  -5.373  26.423  0.00  0.00    +0.161 C 
BRANCH   8   9
ATOM      9  N   UNK A   1       5.701  -3.973  26.343  0.00  0.00    -0.318 NA
ATOM     10  H   UNK A   1       4.816  -3.928  26.860  0.00  0.00    +0.119 HD
ATOM     11  H   UNK A   1       6.330  -3.369  26.881  0.00  0.00    +0.119 HD
ENDBRANCH   8   9
BRANCH   8  12
ATOM     12  C   UNK A   1       5.205  -6.220  27.209  0.00  0.00    +0.322 C 
ATOM     13  O   UNK A   1       4.733  -5.938  28.298  0.00  0.00    -0.249 OA
BRANCH  12  14
ATOM     14  O   UNK A   1       4.890  -7.360  26.541  0.00  0.00    -0.480 OA
ATOM     15  H   UNK A   1       5.147  -8.100  27.148  0.00  0.00    +0.295 HD
ENDBRANCH  12  14
ENDBRANCH   8  12
ENDBRANCH   7   8
ENDBRANCH   6   7
ENDBRANCH   2   6
ENDBRANCH   1   3
BRANCH   1  16
ATOM     16  C   UNK A   1       7.006  -3.813  22.268  0.00  0.00    +0.235 C 
ATOM     17  N   GLY A   2       6.912  -5.187  22.413  0.00  0.00    -0.303 N 
ATOM     18  H   GLY A   2       7.749  -5.729  22.600  0.00  0.00    +0.149 HD
ATOM     19  O   UNK A   1       6.111  -3.161  21.735  0.00  0.00    -0.274 OA
BRANCH  17  20
ATOM     20  CA  GLY A   2       5.763  -5.923  21.872  0.00  0.00    +0.224 C 
BRANCH  20  21
ATOM     21  C   GLY A   2       4.600  -6.033  22.858  0.00  0.00    +0.322 C 
ATOM     22  OXT GLY A   2       3.691  -5.218  22.930  0.00  0.00    -0.249 OA
BRANCH  21  23
ATOM     23  O   GLY A   2       4.630  -7.152  23.620  0.00  0.00    -0.480 OA
ATOM     24  H   GLY A   2       3.980  -7.805  23.293  0.00  0.00    +0.295 HD
ENDBRANCH  21  23
ENDBRANCH  20  21
ENDBRANCH  17  20
ENDBRANCH   1  16
BRANCH   1  25
ATOM     25  C   UNK A   1       8.416  -1.702  22.456  0.00  0.00    +0.101 C 
BRANCH  25  26
ATOM     26  S   UNK A   1      10.136  -1.059  22.512  0.00  0.00    -0.154 S 
BRANCH  26  27
ATOM     27  C   UNK A   1      10.200  -0.458  24.231  0.00  0.00    +0.105 C 
BRANCH  27  28
ATOM     28  C   UNK A   1       9.718   0.966  24.358  0.00  0.00    -0.024 A 
ATOM     29  C   UNK A   1       8.611   1.365  25.128  0.00  0.00    +0.017 A 
ATOM     30  I   UNK A   1       7.487   0.035  26.304  0.00  0.00    -0.044 I 
ATOM     31  C   UNK A   1       8.201   2.708  25.146  0.00  0.00    +0.014 A 
ATOM     32  C   UNK A   1       8.898   3.669  24.416  0.00  0.00    +0.001 A 
ATOM     33  C   UNK A   1      10.014   3.298  23.675  0.00  0.00    +0.000 A 
ATOM     34  C   UNK A   1      10.420   1.962  23.647  0.00  0.00    +0.005 A 
ENDBRANCH  27  28
ENDBRANCH  26  27
ENDBRANCH  25  26
ENDBRANCH   1  25
TORSDOF 15
ENDMDL
MODEL 8
REMARK VINA RESULT:      -5.6      4.018      7.595
REMARK  Name = 
REMARK  15 active torsions:
REMARK  status: ('A' for Active; 'I' for Inactive)
REMARK    1  A    between atoms: N_1  and  C_2
REMARK    2  A    between atoms: C_2  and  C_4
REMARK    3  A    between atoms: C_2  and  C_28
REMARK    4  A    between atoms: C_4  and  C_5
REMARK    5  A    between atoms: C_5  and  C_6
REMARK    6  A    between atoms: N_8  and  C_9
REMARK    7  A    between atoms: C_9  and  C_11
REMARK    8  A    between atoms: C_9  and  C_21
REMARK    9  A    between atoms: C_11  and  S_12
REMARK   10  A    between atoms: S_12  and  C_13
REMARK   11  A    between atoms: C_13  and  C_14
REMARK   12  A    between atoms: N_23  and  CA_24
REMARK   13  A    between atoms: CA_24  and  C_25
REMARK   14  A    between atoms: C_25  and  O_26
REMARK   15  A    between atoms: C_28  and  O_29
REMARK                            x       y       z     vdW  Elec       q    Type
REMARK                         _______ _______ _______ _____ _____    ______ ____
ROOT
ATOM      1  C   UNK A   1       9.773  -1.252  24.664  0.00  0.00    +0.169 C 
ENDROOT
BRANCH   1   3
ATOM      2  C   UNK A   1      10.481   0.912  23.671  0.00  0.00    +0.214 C 
ATOM      3  N   UNK A   1       9.599  -0.139  23.732  0.00  0.00    -0.303 N 
ATOM      4  H   UNK A   1       8.686  -0.029  23.300  0.00  0.00    +0.149 HD
ATOM      5  O   UNK A   1      11.475   0.996  24.387  0.00  0.00    -0.276 OA
BRANCH   2   6
ATOM      6  C   UNK A   1      10.141   1.952  22.624  0.00  0.00    +0.098 C 
BRANCH   6   7
ATOM      7  C   UNK A   1       9.150   1.431  21.582  0.00  0.00    +0.039 C 
BRANCH   7   8
ATOM      8  C   UNK A   1       7.802   2.169  21.609  0.00  0.00    +0.161 C 
BRANCH   8   9
ATOM      9  N   UNK A   1       7.974   3.531  22.212  0.00  0.00    -0.318 NA
ATOM     10  H   UNK A   1       8.975   3.700  22.363  0.00  0.00    +0.119 HD
ATOM     11  H   UNK A   1       7.714   4.223  21.502  0.00  0.00    +0.119 HD
ENDBRANCH   8   9
BRANCH   8  12
ATOM     12  C   UNK A   1       6.724   1.427  22.434  0.00  0.00    +0.322 C 
ATOM     13  O   UNK A   1       6.819   0.293  22.874  0.00  0.00    -0.249 OA
BRANCH  12  14
ATOM     14  O   UNK A   1       5.615   2.192  22.601  0.00  0.00    -0.480 OA
ATOM     15  H   UNK A   1       5.950   3.116  22.730  0.00  0.00    +0.295 HD
ENDBRANCH  12  14
ENDBRANCH   8  12
ENDBRANCH   7   8
ENDBRANCH   6   7
ENDBRANCH   2   6
ENDBRANCH   1   3
BRANCH   1  16
ATOM     16  C   UNK A   1       8.638  -1.197  25.711  0.00  0.00    +0.235 C 
ATOM     17  N   GLY A   2       7.761  -0.132  25.580  0.00  0.00    -0.303 N 
ATOM     18  H   GLY A   2       8.054   0.699  25.078  0.00  0.00    +0.149 HD
ATOM     19  O   UNK A   1       8.467  -2.070  26.558  0.00  0.00    -0.274 OA
BRANCH  17  20
ATOM     20  CA  GLY A   2       6.627   0.023  26.499  0.00  0.00    +0.224 C 
BRANCH  20  21
ATOM     21  C   GLY A   2       5.270  -0.135  25.812  0.00  0.00    +0.322 C 
ATOM     22  OXT GLY A   2       4.611  -1.165  25.835  0.00  0.00    -0.249 OA
BRANCH  21  23
ATOM     23  O   GLY A   2       4.823   0.995  25.212  0.00  0.00    -0.480 OA
ATOM     24  H   GLY A   2       3.879   1.138  25.415  0.00  0.00    +0.295 HD
ENDBRANCH  21  23
ENDBRANCH  20  21
ENDBRANCH  17  20
ENDBRANCH   1  16
BRANCH   1  25
ATOM     25  C   UNK A   1       9.806  -2.609  23.944  0.00  0.00    +0.101 C 
BRANCH  25  26
ATOM     26  S   UNK A   1       8.193  -3.165  23.263  0.00  0.00    -0.154 S 
BRANCH  26  27
ATOM     27  C   UNK A   1       7.996  -4.744  24.151  0.00  0.00    +0.105 C 
BRANCH  27  28
ATOM     28  C   UNK A   1       6.578  -5.259  24.096  0.00  0.00    -0.024 A 
ATOM     29  C   UNK A   1       5.793  -5.550  25.226  0.00  0.00    +0.017 A 
ATOM     30  I   UNK A   1       6.448  -5.230  27.196  0.00  0.00    -0.044 I 
ATOM     31  C   UNK A   1       4.500  -6.077  25.079  0.00  0.00    +0.014 A 
ATOM     32  C   UNK A   1       3.968  -6.302  23.811  0.00  0.00    +0.001 A 
ATOM     33  C   UNK A   1       4.718  -5.991  22.682  0.00  0.00    +0.000 A 
ATOM     34  C   UNK A   1       6.008  -5.475  22.824  0.00  0.00    +0.005 A 
ENDBRANCH  27  28
ENDBRANCH  26  27
ENDBRANCH  25  26
ENDBRANCH   1  25
TORSDOF 15
ENDMDL
MODEL 9
REMARK VINA RESULT:      -5.6      2.260      4.262
REMARK  Name = 
REMARK  15 active torsions:
REMARK  status: ('A' for Active; 'I' for Inactive)
REMARK    1  A    between atoms: N_1  and  C_2
REMARK    2  A    between atoms: C_2  and  C_4
REMARK    3  A    between atoms: C_2  and  C_28
REMARK    4  A    between atoms: C_4  and  C_5
REMARK    5  A    between atoms: C_5  and  C_6
REMARK    6  A    between atoms: N_8  and  C_9
REMARK    7  A    between atoms: C_9  and  C_11
REMARK    8  A    between atoms: C_9  and  C_21
REMARK    9  A    between atoms: C_11  and  S_12
REMARK   10  A    between atoms: S_12  and  C_13
REMARK   11  A    between atoms: C_13  and  C_14
REMARK   12  A    between atoms: N_23  and  CA_24
REMARK   13  A    between atoms: CA_24  and  C_25
REMARK   14  A    between atoms: C_25  and  O_26
REMARK   15  A    between atoms: C_28  and  O_29
REMARK                            x       y       z     vdW  Elec       q    Type
REMARK                         _______ _______ _______ _____ _____    ______ ____
ROOT
ATOM      1  C   UNK A   1       7.229  -3.199  26.140  0.00  0.00    +0.169 C 
ENDROOT
BRANCH   1   3
ATOM      2  C   UNK A   1       7.810  -4.023  23.870  0.00  0.00    +0.214 C 
ATOM      3  N   UNK A   1       6.869  -3.636  24.791  0.00  0.00    -0.303 N 
ATOM      4  H   UNK A   1       5.933  -3.416  24.463  0.00  0.00    +0.149 HD
ATOM      5  O   UNK A   1       9.016  -4.033  24.104  0.00  0.00    -0.276 OA
BRANCH   2   6
ATOM      6  C   UNK A   1       7.236  -4.463  22.539  0.00  0.00    +0.098 C 
BRANCH   6   7
ATOM      7  C   UNK A   1       6.638  -5.870  22.598  0.00  0.00    +0.039 C 
BRANCH   7   8
ATOM      8  C   UNK A   1       5.105  -5.869  22.718  0.00  0.00    +0.161 C 
BRANCH   8   9
ATOM      9  N   UNK A   1       4.580  -4.471  22.578  0.00  0.00    -0.318 NA
ATOM     10  H   UNK A   1       4.461  -4.069  23.514  0.00  0.00    +0.119 HD
ATOM     11  H   UNK A   1       5.320  -3.900  22.158  0.00  0.00    +0.119 HD
ENDBRANCH   8   9
BRANCH   8  12
ATOM     12  C   UNK A   1       4.607  -6.421  24.075  0.00  0.00    +0.322 C 
ATOM     13  O   UNK A   1       4.235  -7.562  24.287  0.00  0.00    -0.249 OA
BRANCH  12  14
ATOM     14  O   UNK A   1       4.610  -5.456  25.032  0.00  0.00    -0.480 OA
ATOM     15  H   UNK A   1       3.819  -5.645  25.598  0.00  0.00    +0.295 HD
ENDBRANCH  12  14
ENDBRANCH   8  12
ENDBRANCH   7   8
ENDBRANCH   6   7
ENDBRANCH   2   6
ENDBRANCH   1   3
BRANCH   1  16
ATOM     16  C   UNK A   1       7.396  -4.449  27.032  0.00  0.00    +0.235 C 
ATOM     17  N   GLY A   2       6.279  -4.805  27.771  0.00  0.00    -0.303 N 
ATOM     18  H   GLY A   2       5.568  -4.109  27.968  0.00  0.00    +0.149 HD
ATOM     19  O   UNK A   1       8.414  -5.136  27.037  0.00  0.00    -0.274 OA
BRANCH  17  20
ATOM     20  CA  GLY A   2       6.300  -5.986  28.642  0.00  0.00    +0.224 C 
BRANCH  20  21
ATOM     21  C   GLY A   2       5.113  -6.922  28.415  0.00  0.00    +0.322 C 
ATOM     22  OXT GLY A   2       4.314  -7.231  29.288  0.00  0.00    -0.249 OA
BRANCH  21  23
ATOM     23  O   GLY A   2       4.982  -7.344  27.135  0.00  0.00    -0.480 OA
ATOM     24  H   GLY A   2       5.657  -8.020  26.928  0.00  0.00    +0.295 HD
ENDBRANCH  21  23
ENDBRANCH  20  21
ENDBRANCH  17  20
ENDBRANCH   1  16
BRANCH   1  25
ATOM     25  C   UNK A   1       8.498  -2.333  26.146  0.00  0.00    +0.101 C 
BRANCH  25  26
ATOM     26  S   UNK A   1       8.221  -0.552  26.503  0.00  0.00    -0.154 S 
BRANCH  26  27
ATOM     27  C   UNK A   1       7.618   0.012  24.879  0.00  0.00    +0.105 C 
BRANCH  27  28
ATOM     28  C   UNK A   1       8.448   1.142  24.320  0.00  0.00    -0.024 A 
ATOM     29  C   UNK A   1       9.331   1.017  23.233  0.00  0.00    +0.017 A 
ATOM     30  I   UNK A   1       9.577  -0.765  22.147  0.00  0.00    -0.044 I 
ATOM     31  C   UNK A   1      10.105   2.111  22.814  0.00  0.00    +0.014 A 
ATOM     32  C   UNK A   1       9.995   3.342  23.457  0.00  0.00    +0.001 A 
ATOM     33  C   UNK A   1       9.102   3.493  24.513  0.00  0.00    +0.000 A 
ATOM     34  C   UNK A   1       8.338   2.405  24.939  0.00  0.00    +0.005 A 
ENDBRANCH  27  28
ENDBRANCH  26  27
ENDBRANCH  25  26
ENDBRANCH   1  25
TORSDOF 15
ENDMDL
