MODEL 1
REMARK VINA RESULT:      -7.2      0.000      0.000
REMARK  Name = 
REMARK  12 active torsions:
REMARK  status: ('A' for Active; 'I' for Inactive)
REMARK    1  A    between atoms: C_1  and  O_2
REMARK    2  A    between atoms: O_2  and  C_3
REMARK    3  A    between atoms: C_5  and  N_13
REMARK    4  A    between atoms: C_7  and  O_8
REMARK    5  A    between atoms: O_8  and  C_9
REMARK    6  A    between atoms: C_10  and  O_11
REMARK    7  A    between atoms: O_11  and  C_12
REMARK    8  A    between atoms: N_13  and  C_14
REMARK    9  A    between atoms: N_13  and  C_15
REMARK   10  A    between atoms: C_15  and  C_16
REMARK   11  A    between atoms: C_17  and  C_18
REMARK   12  A    between atoms: C_20  and  N_21
REMARK                            x       y       z     vdW  Elec       q    Type
REMARK                         _______ _______ _______ _____ _____    ______ ____
ROOT
ATOM      1  C   UNL     1       9.429  -1.364  24.275  0.00  0.00    -0.008 A 
ATOM      2  C   UNL     1       9.013  -0.950  25.529  0.00  0.00    +0.118 A 
ATOM      3  N   UNL     1       8.591   0.294  25.832  0.00  0.00    -0.235 NA
ATOM      4  C   UNL     1       8.667   1.251  24.904  0.00  0.00    +0.167 A 
ATOM      5  C   UNL     1       9.125   0.972  23.618  0.00  0.00    +0.062 A 
ATOM      6  C   UNL     1       9.333   2.119  22.830  0.00  0.00    +0.131 A 
ATOM      7  N   UNL     1       8.948   3.342  23.198  0.00  0.00    -0.199 NA
ATOM      8  C   UNL     1       8.375   3.447  24.387  0.00  0.00    +0.216 A 
ATOM      9  N   UNL     1       7.885   4.690  24.733  0.00  0.00    -0.327 N 
ATOM     10  H   UNL     1       7.869   4.789  25.739  0.00  0.00    +0.145 HD
ATOM     11  H   UNL     1       8.357   5.405  24.199  0.00  0.00    +0.145 HD
ATOM     12  N   UNL     1       8.271   2.464  25.272  0.00  0.00    -0.195 NA
ATOM     13  C   UNL     1       9.353  -0.401  23.261  0.00  0.00    -0.030 A 
ATOM     14  C   UNL     1       9.399  -0.809  21.815  0.00  0.00    +0.045 C 
ENDROOT
BRANCH   6  15
ATOM     15  N   UNL     1      10.099   2.119  21.662  0.00  0.00    -0.342 N 
ATOM     16  H   UNL     1      10.280   1.149  21.416  0.00  0.00    +0.144 HD
ATOM     17  H   UNL     1      10.949   2.657  21.717  0.00  0.00    +0.144 HD
ENDBRANCH   6  15
BRANCH   1  18
ATOM     18  C   UNL     1       9.909  -2.786  24.082  0.00  0.00    +0.141 C 
BRANCH  18  19
ATOM     19  N   UNL     1       8.976  -3.793  24.619  0.00  0.00    -0.328 N 
ATOM     20  C   UNL     1       9.550  -4.825  25.483  0.00  0.00    +0.129 C 
BRANCH  19  25
ATOM     21  C   UNL     1       6.019  -4.424  22.401  0.00  0.00    +0.167 A 
ATOM     22  C   UNL     1       4.945  -4.404  23.308  0.00  0.00    +0.204 A 
ATOM     23  C   UNL     1       5.214  -4.048  24.640  0.00  0.00    +0.167 A 
ATOM     24  C   UNL     1       6.547  -3.807  25.054  0.00  0.00    +0.072 A 
ATOM     25  C   UNL     1       7.649  -3.921  24.203  0.00  0.00    +0.037 A 
ATOM     26  C   UNL     1       7.328  -4.205  22.866  0.00  0.00    +0.072 A 
BRANCH  21  28
ATOM     27  C   UNL     1       6.128  -5.963  20.583  0.00  0.00    +0.277 C 
ATOM     28  O   UNL     1       5.760  -4.678  21.075  0.00  0.00    -0.491 OA
ENDBRANCH  21  28
BRANCH  22  29
ATOM     29  O   UNL     1       3.642  -4.627  22.943  0.00  0.00    -0.488 OA
ATOM     30  C   UNL     1       3.131  -5.943  23.139  0.00  0.00    +0.277 C 
ENDBRANCH  22  29
BRANCH  23  31
ATOM     31  O   UNL     1       4.328  -3.894  25.680  0.00  0.00    -0.491 OA
ATOM     32  C   UNL     1       4.193  -4.933  26.638  0.00  0.00    +0.277 C 
ENDBRANCH  23  31
ENDBRANCH  19  25
ENDBRANCH  18  19
ENDBRANCH   1  18
TORSDOF 7
ENDMDL
MODEL 2
REMARK VINA RESULT:      -7.1      0.186      2.333
REMARK  Name = 
REMARK  12 active torsions:
REMARK  status: ('A' for Active; 'I' for Inactive)
REMARK    1  A    between atoms: C_1  and  O_2
REMARK    2  A    between atoms: O_2  and  C_3
REMARK    3  A    between atoms: C_5  and  N_13
REMARK    4  A    between atoms: C_7  and  O_8
REMARK    5  A    between atoms: O_8  and  C_9
REMARK    6  A    between atoms: C_10  and  O_11
REMARK    7  A    between atoms: O_11  and  C_12
REMARK    8  A    between atoms: N_13  and  C_14
REMARK    9  A    between atoms: N_13  and  C_15
REMARK   10  A    between atoms: C_15  and  C_16
REMARK   11  A    between atoms: C_17  and  C_18
REMARK   12  A    between atoms: C_20  and  N_21
REMARK                            x       y       z     vdW  Elec       q    Type
REMARK                         _______ _______ _______ _____ _____    ______ ____
ROOT
ATOM      1  C   UNL     1       9.387  -1.449  24.236  0.00  0.00    -0.008 A 
ATOM      2  C   UNL     1       8.981  -1.051  25.499  0.00  0.00    +0.118 A 
ATOM      3  N   UNL     1       8.569   0.191  25.824  0.00  0.00    -0.235 NA
ATOM      4  C   UNL     1       8.646   1.161  24.910  0.00  0.00    +0.167 A 
ATOM      5  C   UNL     1       9.093   0.898  23.616  0.00  0.00    +0.062 A 
ATOM      6  C   UNL     1       9.303   2.055  22.844  0.00  0.00    +0.131 A 
ATOM      7  N   UNL     1       8.928   3.275  23.233  0.00  0.00    -0.199 NA
ATOM      8  C   UNL     1       8.364   3.366  24.427  0.00  0.00    +0.216 A 
ATOM      9  N   UNL     1       7.884   4.606  24.796  0.00  0.00    -0.327 N 
ATOM     10  H   UNL     1       7.875   4.690  25.803  0.00  0.00    +0.145 HD
ATOM     11  H   UNL     1       8.357   5.327  24.269  0.00  0.00    +0.145 HD
ATOM     12  N   UNL     1       8.260   2.370  25.298  0.00  0.00    -0.195 NA
ATOM     13  C   UNL     1       9.310  -0.471  23.238  0.00  0.00    -0.030 A 
ATOM     14  C   UNL     1       9.344  -0.857  21.785  0.00  0.00    +0.045 C 
ENDROOT
BRANCH   6  15
ATOM     15  N   UNL     1      10.061   2.068  21.671  0.00  0.00    -0.342 N 
ATOM     16  H   UNL     1       9.813   2.909  21.156  0.00  0.00    +0.144 HD
ATOM     17  H   UNL     1       9.971   1.241  21.103  0.00  0.00    +0.144 HD
ENDBRANCH   6  15
BRANCH   1  18
ATOM     18  C   UNL     1       9.856  -2.871  24.018  0.00  0.00    +0.141 C 
BRANCH  18  19
ATOM     19  N   UNL     1       8.982  -3.876  24.650  0.00  0.00    -0.328 N 
ATOM     20  C   UNL     1       9.615  -4.798  25.593  0.00  0.00    +0.129 C 
BRANCH  19  25
ATOM     21  C   UNL     1       5.257  -4.250  24.857  0.00  0.00    +0.167 A 
ATOM     22  C   UNL     1       4.885  -4.378  23.508  0.00  0.00    +0.204 A 
ATOM     23  C   UNL     1       5.907  -4.468  22.548  0.00  0.00    +0.167 A 
ATOM     24  C   UNL     1       7.262  -4.342  22.942  0.00  0.00    +0.072 A 
ATOM     25  C   UNL     1       7.661  -4.109  24.261  0.00  0.00    +0.037 A 
ATOM     26  C   UNL     1       6.614  -4.101  25.196  0.00  0.00    +0.072 A 
BRANCH  21  28
ATOM     27  C   UNL     1       4.175  -5.421  26.631  0.00  0.00    +0.277 C 
ATOM     28  O   UNL     1       4.273  -4.256  25.817  0.00  0.00    -0.491 OA
ENDBRANCH  21  28
BRANCH  22  29
ATOM     29  O   UNL     1       3.585  -4.508  23.089  0.00  0.00    -0.488 OA
ATOM     30  C   UNL     1       3.034  -5.823  23.088  0.00  0.00    +0.277 C 
ENDBRANCH  22  29
BRANCH  23  31
ATOM     31  O   UNL     1       5.794  -4.664  21.192  0.00  0.00    -0.491 OA
ATOM     32  C   UNL     1       6.140  -5.925  20.640  0.00  0.00    +0.277 C 
ENDBRANCH  23  31
ENDBRANCH  19  25
ENDBRANCH  18  19
ENDBRANCH   1  18
TORSDOF 7
ENDMDL
MODEL 3
REMARK VINA RESULT:      -7.0      2.043      3.110
REMARK  Name = 
REMARK  12 active torsions:
REMARK  status: ('A' for Active; 'I' for Inactive)
REMARK    1  A    between atoms: C_1  and  O_2
REMARK    2  A    between atoms: O_2  and  C_3
REMARK    3  A    between atoms: C_5  and  N_13
REMARK    4  A    between atoms: C_7  and  O_8
REMARK    5  A    between atoms: O_8  and  C_9
REMARK    6  A    between atoms: C_10  and  O_11
REMARK    7  A    between atoms: O_11  and  C_12
REMARK    8  A    between atoms: N_13  and  C_14
REMARK    9  A    between atoms: N_13  and  C_15
REMARK   10  A    between atoms: C_15  and  C_16
REMARK   11  A    between atoms: C_17  and  C_18
REMARK   12  A    between atoms: C_20  and  N_21
REMARK                            x       y       z     vdW  Elec       q    Type
REMARK                         _______ _______ _______ _____ _____    ______ ____
ROOT
ATOM      1  C   UNL     1       8.011  -1.374  23.548  0.00  0.00    -0.008 A 
ATOM      2  C   UNL     1       6.836  -1.026  24.194  0.00  0.00    +0.118 A 
ATOM      3  N   UNL     1       6.168   0.131  24.012  0.00  0.00    -0.235 NA
ATOM      4  C   UNL     1       6.705   1.078  23.240  0.00  0.00    +0.167 A 
ATOM      5  C   UNL     1       7.915   0.869  22.579  0.00  0.00    +0.062 A 
ATOM      6  C   UNL     1       8.437   2.027  21.974  0.00  0.00    +0.131 A 
ATOM      7  N   UNL     1       7.757   3.170  21.868  0.00  0.00    -0.199 NA
ATOM      8  C   UNL     1       6.545   3.187  22.401  0.00  0.00    +0.216 A 
ATOM      9  N   UNL     1       5.798   4.331  22.210  0.00  0.00    -0.327 N 
ATOM     10  H   UNL     1       5.125   4.435  22.957  0.00  0.00    +0.145 HD
ATOM     11  H   UNL     1       6.409   5.112  22.018  0.00  0.00    +0.145 HD
ATOM     12  N   UNL     1       6.019   2.209  23.128  0.00  0.00    -0.195 NA
ATOM     13  C   UNL     1       8.487  -0.449  22.612  0.00  0.00    -0.030 A 
ATOM     14  C   UNL     1       9.505  -0.856  21.583  0.00  0.00    +0.045 C 
ENDROOT
BRANCH   6  15
ATOM     15  N   UNL     1       9.767   2.146  21.567  0.00  0.00    -0.342 N 
ATOM     16  H   UNL     1       9.864   1.645  20.688  0.00  0.00    +0.144 HD
ATOM     17  H   UNL     1      10.444   1.841  22.249  0.00  0.00    +0.144 HD
ENDBRANCH   6  15
BRANCH   1  18
ATOM     18  C   UNL     1       8.674  -2.695  23.871  0.00  0.00    +0.141 C 
BRANCH  18  19
ATOM     19  N   UNL     1       8.024  -3.417  24.979  0.00  0.00    -0.328 N 
ATOM     20  C   UNL     1       8.513  -3.129  26.328  0.00  0.00    +0.129 C 
BRANCH  19  25
ATOM     21  C   UNL     1       5.646  -6.204  25.780  0.00  0.00    +0.167 A 
ATOM     22  C   UNL     1       5.113  -6.525  24.520  0.00  0.00    +0.204 A 
ATOM     23  C   UNL     1       5.657  -5.887  23.392  0.00  0.00    +0.167 A 
ATOM     24  C   UNL     1       6.650  -4.889  23.553  0.00  0.00    +0.072 A 
ATOM     25  C   UNL     1       7.126  -4.472  24.798  0.00  0.00    +0.037 A 
ATOM     26  C   UNL     1       6.612  -5.187  25.891  0.00  0.00    +0.072 A 
BRANCH  21  28
ATOM     27  C   UNL     1       4.280  -6.200  27.735  0.00  0.00    +0.277 C 
ATOM     28  O   UNL     1       5.192  -6.887  26.884  0.00  0.00    -0.491 OA
ENDBRANCH  21  28
BRANCH  22  29
ATOM     29  O   UNL     1       4.156  -7.488  24.326  0.00  0.00    -0.488 OA
ATOM     30  C   UNL     1       2.799  -7.056  24.299  0.00  0.00    +0.277 C 
ENDBRANCH  22  29
BRANCH  23  31
ATOM     31  O   UNL     1       5.351  -6.084  22.067  0.00  0.00    -0.491 OA
ATOM     32  C   UNL     1       6.211  -5.556  21.069  0.00  0.00    +0.277 C 
ENDBRANCH  23  31
ENDBRANCH  19  25
ENDBRANCH  18  19
ENDBRANCH   1  18
TORSDOF 7
ENDMDL
MODEL 4
REMARK VINA RESULT:      -6.8      1.536      2.629
REMARK  Name = 
REMARK  12 active torsions:
REMARK  status: ('A' for Active; 'I' for Inactive)
REMARK    1  A    between atoms: C_1  and  O_2
REMARK    2  A    between atoms: O_2  and  C_3
REMARK    3  A    between atoms: C_5  and  N_13
REMARK    4  A    between atoms: C_7  and  O_8
REMARK    5  A    between atoms: O_8  and  C_9
REMARK    6  A    between atoms: C_10  and  O_11
REMARK    7  A    between atoms: O_11  and  C_12
REMARK    8  A    between atoms: N_13  and  C_14
REMARK    9  A    between atoms: N_13  and  C_15
REMARK   10  A    between atoms: C_15  and  C_16
REMARK   11  A    between atoms: C_17  and  C_18
REMARK   12  A    between atoms: C_20  and  N_21
REMARK                            x       y       z     vdW  Elec       q    Type
REMARK                         _______ _______ _______ _____ _____    ______ ____
ROOT
ATOM      1  C   UNL     1       8.829  -2.442  25.382  0.00  0.00    -0.008 A 
ATOM      2  C   UNL     1       9.258  -2.773  24.108  0.00  0.00    +0.118 A 
ATOM      3  N   UNL     1       9.686  -1.892  23.182  0.00  0.00    -0.235 NA
ATOM      4  C   UNL     1       9.604  -0.585  23.441  0.00  0.00    +0.167 A 
ATOM      5  C   UNL     1       9.133  -0.123  24.669  0.00  0.00    +0.062 A 
ATOM      6  C   UNL     1       8.922   1.268  24.707  0.00  0.00    +0.131 A 
ATOM      7  N   UNL     1       9.314   2.097  23.738  0.00  0.00    -0.199 NA
ATOM      8  C   UNL     1       9.898   1.541  22.687  0.00  0.00    +0.216 A 
ATOM      9  N   UNL     1      10.394   2.398  21.726  0.00  0.00    -0.327 N 
ATOM     10  H   UNL     1      10.420   1.936  20.828  0.00  0.00    +0.145 HD
ATOM     11  H   UNL     1       9.920   3.288  21.782  0.00  0.00    +0.145 HD
ATOM     12  N   UNL     1      10.006   0.235  22.478  0.00  0.00    -0.195 NA
ATOM     13  C   UNL     1       8.899  -1.083  25.712  0.00  0.00    -0.030 A 
ATOM     14  C   UNL     1       8.838  -0.640  27.147  0.00  0.00    +0.045 C 
ENDROOT
BRANCH   6  15
ATOM     15  N   UNL     1       8.146   1.900  25.681  0.00  0.00    -0.342 N 
ATOM     16  H   UNL     1       7.466   2.482  25.199  0.00  0.00    +0.144 HD
ATOM     17  H   UNL     1       8.671   2.424  26.363  0.00  0.00    +0.144 HD
ENDBRANCH   6  15
BRANCH   1  18
ATOM     18  C   UNL     1       8.343  -3.532  26.311  0.00  0.00    +0.141 C 
BRANCH  18  19
ATOM     19  N   UNL     1       8.136  -4.825  25.634  0.00  0.00    -0.328 N 
ATOM     20  C   UNL     1       9.338  -5.581  25.280  0.00  0.00    +0.129 C 
BRANCH  19  25
ATOM     21  C   UNL     1       5.394  -5.709  23.234  0.00  0.00    +0.167 A 
ATOM     22  C   UNL     1       4.447  -6.332  24.065  0.00  0.00    +0.204 A 
ATOM     23  C   UNL     1       4.684  -6.331  25.450  0.00  0.00    +0.167 A 
ATOM     24  C   UNL     1       5.890  -5.793  25.963  0.00  0.00    +0.072 A 
ATOM     25  C   UNL     1       6.899  -5.261  25.155  0.00  0.00    +0.037 A 
ATOM     26  C   UNL     1       6.589  -5.213  23.787  0.00  0.00    +0.072 A 
BRANCH  21  28
ATOM     27  C   UNL     1       6.255  -5.655  21.011  0.00  0.00    +0.277 C 
ATOM     28  O   UNL     1       5.133  -5.617  21.887  0.00  0.00    -0.491 OA
ENDBRANCH  21  28
BRANCH  22  29
ATOM     29  O   UNL     1       3.267  -6.859  23.606  0.00  0.00    -0.488 OA
ATOM     30  C   UNL     1       2.189  -5.950  23.399  0.00  0.00    +0.277 C 
ENDBRANCH  22  29
BRANCH  23  31
ATOM     31  O   UNL     1       3.880  -6.812  26.456  0.00  0.00    -0.491 OA
ATOM     32  C   UNL     1       2.930  -5.947  27.060  0.00  0.00    +0.277 C 
ENDBRANCH  23  31
ENDBRANCH  19  25
ENDBRANCH  18  19
ENDBRANCH   1  18
TORSDOF 7
ENDMDL
MODEL 5
REMARK VINA RESULT:      -6.7      1.287      3.379
REMARK  Name = 
REMARK  12 active torsions:
REMARK  status: ('A' for Active; 'I' for Inactive)
REMARK    1  A    between atoms: C_1  and  O_2
REMARK    2  A    between atoms: O_2  and  C_3
REMARK    3  A    between atoms: C_5  and  N_13
REMARK    4  A    between atoms: C_7  and  O_8
REMARK    5  A    between atoms: O_8  and  C_9
REMARK    6  A    between atoms: C_10  and  O_11
REMARK    7  A    between atoms: O_11  and  C_12
REMARK    8  A    between atoms: N_13  and  C_14
REMARK    9  A    between atoms: N_13  and  C_15
REMARK   10  A    between atoms: C_15  and  C_16
REMARK   11  A    between atoms: C_17  and  C_18
REMARK   12  A    between atoms: C_20  and  N_21
REMARK                            x       y       z     vdW  Elec       q    Type
REMARK                         _______ _______ _______ _____ _____    ______ ____
ROOT
ATOM      1  C   UNL     1       8.934  -2.422  25.394  0.00  0.00    -0.008 A 
ATOM      2  C   UNL     1       9.435  -2.741  24.143  0.00  0.00    +0.118 A 
ATOM      3  N   UNL     1       9.877  -1.847  23.236  0.00  0.00    -0.235 NA
ATOM      4  C   UNL     1       9.738  -0.543  23.487  0.00  0.00    +0.167 A 
ATOM      5  C   UNL     1       9.194  -0.095  24.690  0.00  0.00    +0.062 A 
ATOM      6  C   UNL     1       8.934   1.288  24.713  0.00  0.00    +0.131 A 
ATOM      7  N   UNL     1       9.344   2.128  23.761  0.00  0.00    -0.199 NA
ATOM      8  C   UNL     1       9.996   1.591  22.741  0.00  0.00    +0.216 A 
ATOM      9  N   UNL     1      10.509   2.463  21.803  0.00  0.00    -0.327 N 
ATOM     10  H   UNL     1      10.593   2.000  20.908  0.00  0.00    +0.145 HD
ATOM     11  H   UNL     1      10.002   3.336  21.833  0.00  0.00    +0.145 HD
ATOM     12  N   UNL     1      10.159   0.289  22.542  0.00  0.00    -0.195 NA
ATOM     13  C   UNL     1       8.942  -1.061  25.722  0.00  0.00    -0.030 A 
ATOM     14  C   UNL     1       8.798  -0.619  27.152  0.00  0.00    +0.045 C 
ENDROOT
BRANCH   6  15
ATOM     15  N   UNL     1       8.091   1.894  25.646  0.00  0.00    -0.342 N 
ATOM     16  H   UNL     1       8.680   2.348  26.340  0.00  0.00    +0.144 HD
ATOM     17  H   UNL     1       7.420   1.274  26.072  0.00  0.00    +0.144 HD
ENDBRANCH   6  15
BRANCH   1  18
ATOM     18  C   UNL     1       8.442  -3.527  26.303  0.00  0.00    +0.141 C 
BRANCH  18  19
ATOM     19  N   UNL     1       8.014  -4.734  25.572  0.00  0.00    -0.328 N 
ATOM     20  C   UNL     1       9.041  -5.745  25.315  0.00  0.00    +0.129 C 
BRANCH  19  25
ATOM     21  C   UNL     1       4.294  -4.962  25.167  0.00  0.00    +0.167 A 
ATOM     22  C   UNL     1       4.135  -4.945  23.771  0.00  0.00    +0.204 A 
ATOM     23  C   UNL     1       5.292  -4.989  22.975  0.00  0.00    +0.167 A 
ATOM     24  C   UNL     1       6.571  -4.960  23.583  0.00  0.00    +0.072 A 
ATOM     25  C   UNL     1       6.765  -4.871  24.964  0.00  0.00    +0.037 A 
ATOM     26  C   UNL     1       5.585  -4.906  25.723  0.00  0.00    +0.072 A 
BRANCH  21  28
ATOM     27  C   UNL     1       2.554  -3.774  26.284  0.00  0.00    +0.277 C 
ATOM     28  O   UNL     1       3.171  -5.016  25.959  0.00  0.00    -0.491 OA
ENDBRANCH  21  28
BRANCH  22  29
ATOM     29  O   UNL     1       2.913  -4.978  23.147  0.00  0.00    -0.488 OA
ATOM     30  C   UNL     1       2.332  -6.261  22.930  0.00  0.00    +0.277 C 
ENDBRANCH  22  29
BRANCH  23  31
ATOM     31  O   UNL     1       5.387  -5.049  21.605  0.00  0.00    -0.491 OA
ATOM     32  C   UNL     1       6.436  -5.801  21.014  0.00  0.00    +0.277 C 
ENDBRANCH  23  31
ENDBRANCH  19  25
ENDBRANCH  18  19
ENDBRANCH   1  18
TORSDOF 7
ENDMDL
MODEL 6
REMARK VINA RESULT:      -6.7      1.806      3.507
REMARK  Name = 
REMARK  12 active torsions:
REMARK  status: ('A' for Active; 'I' for Inactive)
REMARK    1  A    between atoms: C_1  and  O_2
REMARK    2  A    between atoms: O_2  and  C_3
REMARK    3  A    between atoms: C_5  and  N_13
REMARK    4  A    between atoms: C_7  and  O_8
REMARK    5  A    between atoms: O_8  and  C_9
REMARK    6  A    between atoms: C_10  and  O_11
REMARK    7  A    between atoms: O_11  and  C_12
REMARK    8  A    between atoms: N_13  and  C_14
REMARK    9  A    between atoms: N_13  and  C_15
REMARK   10  A    between atoms: C_15  and  C_16
REMARK   11  A    between atoms: C_17  and  C_18
REMARK   12  A    between atoms: C_20  and  N_21
REMARK                            x       y       z     vdW  Elec       q    Type
REMARK                         _______ _______ _______ _____ _____    ______ ____
ROOT
ATOM      1  C   UNL     1       8.846  -1.990  23.064  0.00  0.00    -0.008 A 
ATOM      2  C   UNL     1       9.334  -1.510  21.860  0.00  0.00    +0.118 A 
ATOM      3  N   UNL     1       9.818  -0.268  21.662  0.00  0.00    -0.235 NA
ATOM      4  C   UNL     1       9.738   0.627  22.650  0.00  0.00    +0.167 A 
ATOM      5  C   UNL     1       9.212   0.281  23.893  0.00  0.00    +0.062 A 
ATOM      6  C   UNL     1       9.014   1.380  24.750  0.00  0.00    +0.131 A 
ATOM      7  N   UNL     1       9.464   2.608  24.484  0.00  0.00    -0.199 NA
ATOM      8  C   UNL     1      10.093   2.768  23.330  0.00  0.00    +0.216 A 
ATOM      9  N   UNL     1      10.647   4.009  23.091  0.00  0.00    -0.327 N 
ATOM     10  H   UNL     1      10.712   4.175  22.097  0.00  0.00    +0.145 HD
ATOM     11  H   UNL     1      10.180   4.707  23.653  0.00  0.00    +0.145 HD
ATOM     12  N   UNL     1      10.197   1.843  22.384  0.00  0.00    -0.195 NA
ATOM     13  C   UNL     1       8.915  -1.102  24.144  0.00  0.00    -0.030 A 
ATOM     14  C   UNL     1       8.787  -1.604  25.556  0.00  0.00    +0.045 C 
ENDROOT
BRANCH   6  15
ATOM     15  N   UNL     1       8.198   1.333  25.881  0.00  0.00    -0.342 N 
ATOM     16  H   UNL     1       8.632   1.913  26.595  0.00  0.00    +0.144 HD
ATOM     17  H   UNL     1       8.002   0.405  26.221  0.00  0.00    +0.144 HD
ENDBRANCH   6  15
BRANCH   1  18
ATOM     18  C   UNL     1       8.302  -3.400  23.138  0.00  0.00    +0.141 C 
BRANCH  18  19
ATOM     19  N   UNL     1       6.829  -3.459  23.097  0.00  0.00    -0.328 N 
ATOM     20  C   UNL     1       6.137  -2.267  22.605  0.00  0.00    +0.129 C 
BRANCH  19  25
ATOM     21  C   UNL     1       5.635  -5.992  25.590  0.00  0.00    +0.167 A 
ATOM     22  C   UNL     1       4.454  -6.472  24.999  0.00  0.00    +0.204 A 
ATOM     23  C   UNL     1       4.139  -6.031  23.703  0.00  0.00    +0.167 A 
ATOM     24  C   UNL     1       4.955  -5.064  23.065  0.00  0.00    +0.072 A 
ATOM     25  C   UNL     1       6.078  -4.489  23.667  0.00  0.00    +0.037 A 
ATOM     26  C   UNL     1       6.398  -5.012  24.929  0.00  0.00    +0.072 A 
BRANCH  21  28
ATOM     27  C   UNL     1       6.818  -5.642  27.631  0.00  0.00    +0.277 C 
ATOM     28  O   UNL     1       6.007  -6.485  26.818  0.00  0.00    -0.491 OA
ENDBRANCH  21  28
BRANCH  22  29
ATOM     29  O   UNL     1       3.642  -7.411  25.583  0.00  0.00    -0.488 OA
ATOM     30  C   UNL     1       2.616  -6.932  26.448  0.00  0.00    +0.277 C 
ENDBRANCH  22  29
BRANCH  23  31
ATOM     31  O   UNL     1       3.087  -6.407  22.902  0.00  0.00    -0.491 OA
ATOM     32  C   UNL     1       1.858  -5.704  22.992  0.00  0.00    +0.277 C 
ENDBRANCH  23  31
ENDBRANCH  19  25
ENDBRANCH  18  19
ENDBRANCH   1  18
TORSDOF 7
ENDMDL
MODEL 7
REMARK VINA RESULT:      -6.7      1.258      2.154
REMARK  Name = 
REMARK  12 active torsions:
REMARK  status: ('A' for Active; 'I' for Inactive)
REMARK    1  A    between atoms: C_1  and  O_2
REMARK    2  A    between atoms: O_2  and  C_3
REMARK    3  A    between atoms: C_5  and  N_13
REMARK    4  A    between atoms: C_7  and  O_8
REMARK    5  A    between atoms: O_8  and  C_9
REMARK    6  A    between atoms: C_10  and  O_11
REMARK    7  A    between atoms: O_11  and  C_12
REMARK    8  A    between atoms: N_13  and  C_14
REMARK    9  A    between atoms: N_13  and  C_15
REMARK   10  A    between atoms: C_15  and  C_16
REMARK   11  A    between atoms: C_17  and  C_18
REMARK   12  A    between atoms: C_20  and  N_21
REMARK                            x       y       z     vdW  Elec       q    Type
REMARK                         _______ _______ _______ _____ _____    ______ ____
ROOT
ATOM      1  C   UNL     1       9.418  -1.624  23.592  0.00  0.00    -0.008 A 
ATOM      2  C   UNL     1       9.425  -1.430  22.221  0.00  0.00    +0.118 A 
ATOM      3  N   UNL     1       9.076  -0.286  21.600  0.00  0.00    -0.235 NA
ATOM      4  C   UNL     1       8.580   0.721  22.323  0.00  0.00    +0.167 A 
ATOM      5  C   UNL     1       8.469   0.626  23.709  0.00  0.00    +0.062 A 
ATOM      6  C   UNL     1       7.748   1.685  24.293  0.00  0.00    +0.131 A 
ATOM      7  N   UNL     1       7.374   2.775  23.622  0.00  0.00    -0.199 NA
ATOM      8  C   UNL     1       7.684   2.813  22.335  0.00  0.00    +0.216 A 
ATOM      9  N   UNL     1       7.388   3.977  21.657  0.00  0.00    -0.327 N 
ATOM     10  H   UNL     1       7.254   3.783  20.675  0.00  0.00    +0.145 HD
ATOM     11  H   UNL     1       6.656   4.479  22.140  0.00  0.00    +0.145 HD
ATOM     12  N   UNL     1       8.220   1.809  21.652  0.00  0.00    -0.195 NA
ATOM     13  C   UNL     1       9.056  -0.511  24.361  0.00  0.00    -0.030 A 
ATOM     14  C   UNL     1       9.373  -0.461  25.829  0.00  0.00    +0.045 C 
ENDROOT
BRANCH   6  15
ATOM     15  N   UNL     1       7.218   1.631  25.583  0.00  0.00    -0.342 N 
ATOM     16  H   UNL     1       6.811   2.541  25.784  0.00  0.00    +0.144 HD
ATOM     17  H   UNL     1       7.872   1.348  26.295  0.00  0.00    +0.144 HD
ENDBRANCH   6  15
BRANCH   1  18
ATOM     18  C   UNL     1       9.805  -2.974  24.155  0.00  0.00    +0.141 C 
BRANCH  18  19
ATOM     19  N   UNL     1       8.711  -3.632  24.892  0.00  0.00    -0.328 N 
ATOM     20  C   UNL     1       9.058  -4.245  26.176  0.00  0.00    +0.129 C 
BRANCH  19  25
ATOM     21  C   UNL     1       5.968  -5.182  22.858  0.00  0.00    +0.167 A 
ATOM     22  C   UNL     1       4.820  -4.538  23.349  0.00  0.00    +0.204 A 
ATOM     23  C   UNL     1       4.994  -3.491  24.270  0.00  0.00    +0.167 A 
ATOM     24  C   UNL     1       6.291  -3.172  24.743  0.00  0.00    +0.072 A 
ATOM     25  C   UNL     1       7.442  -3.862  24.356  0.00  0.00    +0.037 A 
ATOM     26  C   UNL     1       7.232  -4.849  23.379  0.00  0.00    +0.072 A 
BRANCH  21  28
ATOM     27  C   UNL     1       6.163  -5.768  20.555  0.00  0.00    +0.277 C 
ATOM     28  O   UNL     1       5.823  -6.143  21.886  0.00  0.00    -0.491 OA
ENDBRANCH  21  28
BRANCH  22  29
ATOM     29  O   UNL     1       3.550  -4.815  22.911  0.00  0.00    -0.488 OA
ATOM     30  C   UNL     1       2.827  -5.819  23.618  0.00  0.00    +0.277 C 
ENDBRANCH  22  29
BRANCH  23  31
ATOM     31  O   UNL     1       4.040  -2.677  24.831  0.00  0.00    -0.491 OA
ATOM     32  C   UNL     1       3.477  -3.027  26.086  0.00  0.00    +0.277 C 
ENDBRANCH  23  31
ENDBRANCH  19  25
ENDBRANCH  18  19
ENDBRANCH   1  18
TORSDOF 7
ENDMDL
MODEL 8
REMARK VINA RESULT:      -6.7      4.126      8.080
REMARK  Name = 
REMARK  12 active torsions:
REMARK  status: ('A' for Active; 'I' for Inactive)
REMARK    1  A    between atoms: C_1  and  O_2
REMARK    2  A    between atoms: O_2  and  C_3
REMARK    3  A    between atoms: C_5  and  N_13
REMARK    4  A    between atoms: C_7  and  O_8
REMARK    5  A    between atoms: O_8  and  C_9
REMARK    6  A    between atoms: C_10  and  O_11
REMARK    7  A    between atoms: O_11  and  C_12
REMARK    8  A    between atoms: N_13  and  C_14
REMARK    9  A    between atoms: N_13  and  C_15
REMARK   10  A    between atoms: C_15  and  C_16
REMARK   11  A    between atoms: C_17  and  C_18
REMARK   12  A    between atoms: C_20  and  N_21
REMARK                            x       y       z     vdW  Elec       q    Type
REMARK                         _______ _______ _______ _____ _____    ______ ____
ROOT
ATOM      1  C   UNL     1       9.231  -1.162  23.460  0.00  0.00    -0.008 A 
ATOM      2  C   UNL     1      10.098  -2.242  23.426  0.00  0.00    +0.118 A 
ATOM      3  N   UNL     1       9.939  -3.384  24.125  0.00  0.00    -0.235 NA
ATOM      4  C   UNL     1       8.940  -3.472  25.007  0.00  0.00    +0.167 A 
ATOM      5  C   UNL     1       8.034  -2.427  25.176  0.00  0.00    +0.062 A 
ATOM      6  C   UNL     1       7.172  -2.597  26.276  0.00  0.00    +0.131 A 
ATOM      7  N   UNL     1       7.091  -3.730  26.976  0.00  0.00    -0.199 NA
ATOM      8  C   UNL     1       7.901  -4.711  26.608  0.00  0.00    +0.216 A 
ATOM      9  N   UNL     1       7.754  -5.917  27.261  0.00  0.00    -0.327 N 
ATOM     10  H   UNL     1       8.625  -6.430  27.243  0.00  0.00    +0.145 HD
ATOM     11  H   UNL     1       7.316  -5.769  28.159  0.00  0.00    +0.145 HD
ATOM     12  N   UNL     1       8.856  -4.606  25.692  0.00  0.00    -0.195 NA
ATOM     13  C   UNL     1       8.094  -1.321  24.261  0.00  0.00    -0.030 A 
ATOM     14  C   UNL     1       6.907  -0.414  24.092  0.00  0.00    +0.045 C 
ENDROOT
BRANCH   6  15
ATOM     15  N   UNL     1       6.436  -1.555  26.842  0.00  0.00    -0.342 N 
ATOM     16  H   UNL     1       6.560  -0.737  26.250  0.00  0.00    +0.144 HD
ATOM     17  H   UNL     1       6.658  -1.357  27.805  0.00  0.00    +0.144 HD
ENDBRANCH   6  15
BRANCH   1  18
ATOM     18  C   UNL     1       9.548   0.073  22.646  0.00  0.00    +0.141 C 
BRANCH  18  19
ATOM     19  N   UNL     1      10.082   1.183  23.456  0.00  0.00    -0.328 N 
ATOM     20  C   UNL     1      10.998   0.825  24.540  0.00  0.00    +0.129 C 
BRANCH  19  25
ATOM     21  C   UNL     1       7.775   4.083  22.886  0.00  0.00    +0.167 A 
ATOM     22  C   UNL     1       8.529   5.173  23.353  0.00  0.00    +0.204 A 
ATOM     23  C   UNL     1       9.860   4.937  23.736  0.00  0.00    +0.167 A 
ATOM     24  C   UNL     1      10.377   3.618  23.727  0.00  0.00    +0.072 A 
ATOM     25  C   UNL     1       9.622   2.499  23.368  0.00  0.00    +0.037 A 
ATOM     26  C   UNL     1       8.323   2.788  22.922  0.00  0.00    +0.072 A 
BRANCH  21  28
ATOM     27  C   UNL     1       5.583   3.227  22.497  0.00  0.00    +0.277 C 
ATOM     28  O   UNL     1       6.502   4.312  22.419  0.00  0.00    -0.491 OA
ENDBRANCH  21  28
BRANCH  22  29
ATOM     29  O   UNL     1       8.065   6.464  23.372  0.00  0.00    -0.488 OA
ATOM     30  C   UNL     1       7.463   6.917  24.582  0.00  0.00    +0.277 C 
ENDBRANCH  22  29
BRANCH  23  31
ATOM     31  O   UNL     1      10.804   5.844  24.156  0.00  0.00    -0.491 OA
ATOM     32  C   UNL     1      12.146   5.707  23.714  0.00  0.00    +0.277 C 
ENDBRANCH  23  31
ENDBRANCH  19  25
ENDBRANCH  18  19
ENDBRANCH   1  18
TORSDOF 7
ENDMDL
MODEL 9
REMARK VINA RESULT:      -6.7      1.902      3.395
REMARK  Name = 
REMARK  12 active torsions:
REMARK  status: ('A' for Active; 'I' for Inactive)
REMARK    1  A    between atoms: C_1  and  O_2
REMARK    2  A    between atoms: O_2  and  C_3
REMARK    3  A    between atoms: C_5  and  N_13
REMARK    4  A    between atoms: C_7  and  O_8
REMARK    5  A    between atoms: O_8  and  C_9
REMARK    6  A    between atoms: C_10  and  O_11
REMARK    7  A    between atoms: O_11  and  C_12
REMARK    8  A    between atoms: N_13  and  C_14
REMARK    9  A    between atoms: N_13  and  C_15
REMARK   10  A    between atoms: C_15  and  C_16
REMARK   11  A    between atoms: C_17  and  C_18
REMARK   12  A    between atoms: C_20  and  N_21
REMARK                            x       y       z     vdW  Elec       q    Type
REMARK                         _______ _______ _______ _____ _____    ______ ____
ROOT
ATOM      1  C   UNL     1       9.409   0.518  24.390  0.00  0.00    -0.008 A 
ATOM      2  C   UNL     1      10.388   1.484  24.229  0.00  0.00    +0.118 A 
ATOM      3  N   UNL     1      10.159   2.768  23.887  0.00  0.00    -0.235 NA
ATOM      4  C   UNL     1       8.919   3.145  23.569  0.00  0.00    +0.167 A 
ATOM      5  C   UNL     1       7.854   2.248  23.636  0.00  0.00    +0.062 A 
ATOM      6  C   UNL     1       6.660   2.744  23.079  0.00  0.00    +0.131 A 
ATOM      7  N   UNL     1       6.498   4.013  22.702  0.00  0.00    -0.199 NA
ATOM      8  C   UNL     1       7.548   4.809  22.841  0.00  0.00    +0.216 A 
ATOM      9  N   UNL     1       7.360   6.143  22.546  0.00  0.00    -0.327 N 
ATOM     10  H   UNL     1       8.236   6.564  22.268  0.00  0.00    +0.145 HD
ATOM     11  H   UNL     1       6.571   6.249  21.924  0.00  0.00    +0.145 HD
ATOM     12  N   UNL     1       8.761   4.412  23.205  0.00  0.00    -0.195 NA
ATOM     13  C   UNL     1       8.091   0.956  24.217  0.00  0.00    -0.030 A 
ATOM     14  C   UNL     1       6.940   0.135  24.728  0.00  0.00    +0.045 C 
ENDROOT
BRANCH   6  15
ATOM     15  N   UNL     1       5.584   1.929  22.722  0.00  0.00    -0.342 N 
ATOM     16  H   UNL     1       5.064   2.412  21.995  0.00  0.00    +0.144 HD
ATOM     17  H   UNL     1       4.990   1.657  23.489  0.00  0.00    +0.144 HD
ENDBRANCH   6  15
BRANCH   1  18
ATOM     18  C   UNL     1       9.810  -0.896  24.746  0.00  0.00    +0.141 C 
BRANCH  18  19
ATOM     19  N   UNL     1       9.595  -1.856  23.648  0.00  0.00    -0.328 N 
ATOM     20  C   UNL     1      10.197  -1.524  22.356  0.00  0.00    +0.129 C 
BRANCH  19  25
ATOM     21  C   UNL     1       7.737  -4.805  25.032  0.00  0.00    +0.167 A 
ATOM     22  C   UNL     1       6.776  -5.056  24.039  0.00  0.00    +0.204 A 
ATOM     23  C   UNL     1       6.845  -4.311  22.850  0.00  0.00    +0.167 A 
ATOM     24  C   UNL     1       7.809  -3.282  22.715  0.00  0.00    +0.072 A 
ATOM     25  C   UNL     1       8.712  -2.936  23.724  0.00  0.00    +0.037 A 
ATOM     26  C   UNL     1       8.657  -3.754  24.863  0.00  0.00    +0.072 A 
BRANCH  21  28
ATOM     27  C   UNL     1       7.071  -5.071  27.307  0.00  0.00    +0.277 C 
ATOM     28  O   UNL     1       7.742  -5.589  26.162  0.00  0.00    -0.491 OA
ENDBRANCH  21  28
BRANCH  22  29
ATOM     29  O   UNL     1       5.831  -6.047  24.133  0.00  0.00    -0.488 OA
ATOM     30  C   UNL     1       4.541  -5.669  24.606  0.00  0.00    +0.277 C 
ENDBRANCH  22  29
BRANCH  23  31
ATOM     31  O   UNL     1       6.068  -4.424  21.722  0.00  0.00    -0.491 OA
ATOM     32  C   UNL     1       6.218  -5.560  20.885  0.00  0.00    +0.277 C 
ENDBRANCH  23  31
ENDBRANCH  19  25
ENDBRANCH  18  19
ENDBRANCH   1  18
TORSDOF 7
ENDMDL
