MODEL 1
REMARK VINA RESULT:      -6.2      0.000      0.000
REMARK  Name = 
REMARK  4 active torsions:
REMARK  status: ('A' for Active; 'I' for Inactive)
REMARK    1  A    between atoms: C_2  and  C_15
REMARK    2  A    between atoms: N_4  and  C_8
REMARK    3  A    between atoms: C_9  and  O_10
REMARK    4  A    between atoms: C_15  and  O_16
REMARK                            x       y       z     vdW  Elec       q    Type
REMARK                         _______ _______ _______ _____ _____    ______ ____
ROOT
ATOM      1  C   UNL     1       6.566  -4.411  23.306  0.00  0.00    +0.124 C 
ATOM      2  C   UNL     1       7.885  -4.603  24.031  0.00  0.00    +0.112 C 
ATOM      3  C   UNL     1       8.634  -3.322  23.750  0.00  0.00    +0.221 C 
ATOM      4  O   UNL     1       9.830  -3.212  23.969  0.00  0.00    -0.275 OA
ATOM      5  N   UNL     1       7.746  -2.375  23.238  0.00  0.00    -0.267 N 
ATOM      6  C   UNL     1       6.395  -2.902  23.309  0.00  0.00    +0.129 C 
ENDROOT
BRANCH   5   7
ATOM      7  C   UNL     1       8.049  -1.068  22.721  0.00  0.00    +0.078 A 
ATOM      8  C   UNL     1       7.191   0.007  23.047  0.00  0.00    +0.027 A 
ATOM      9  C   UNL     1       7.381   1.305  22.554  0.00  0.00    +0.002 A 
ATOM     10  C   UNL     1       8.458   1.585  21.731  0.00  0.00    +0.004 A 
ATOM     11  C   UNL     1       9.331   0.559  21.399  0.00  0.00    +0.047 A 
ATOM     12  C   UNL     1       9.129  -0.747  21.871  0.00  0.00    +0.138 A 
BRANCH  12  13
ATOM     13  O   UNL     1      10.096  -1.602  21.423  0.00  0.00    -0.505 OA
ATOM     14  H   UNL     1      10.947  -1.127  21.348  0.00  0.00    +0.292 HD
ENDBRANCH  12  13
ENDBRANCH   5   7
BRANCH   1  15
ATOM     15  C   UNL     1       6.598  -4.945  21.886  0.00  0.00    +0.310 C 
ATOM     16  O   UNL     1       7.310  -5.857  21.498  0.00  0.00    -0.251 OA
BRANCH  15  17
ATOM     17  O   UNL     1       5.795  -4.264  21.034  0.00  0.00    -0.480 OA
ATOM     18  H   UNL     1       5.266  -4.808  20.423  0.00  0.00    +0.295 HD
ENDBRANCH  15  17
ENDBRANCH   1  15
TORSDOF 4
ENDMDL
MODEL 2
REMARK VINA RESULT:      -6.0      2.329      3.305
REMARK  Name = 
REMARK  4 active torsions:
REMARK  status: ('A' for Active; 'I' for Inactive)
REMARK    1  A    between atoms: C_2  and  C_15
REMARK    2  A    between atoms: N_4  and  C_8
REMARK    3  A    between atoms: C_9  and  O_10
REMARK    4  A    between atoms: C_15  and  O_16
REMARK                            x       y       z     vdW  Elec       q    Type
REMARK                         _______ _______ _______ _____ _____    ______ ____
ROOT
ATOM      1  C   UNL     1       8.773  -5.172  25.101  0.00  0.00    +0.124 C 
ATOM      2  C   UNL     1       7.840  -5.139  23.906  0.00  0.00    +0.112 C 
ATOM      3  C   UNL     1       7.944  -3.715  23.413  0.00  0.00    +0.221 C 
ATOM      4  O   UNL     1       7.150  -3.250  22.612  0.00  0.00    -0.275 OA
ATOM      5  N   UNL     1       9.047  -3.103  24.012  0.00  0.00    -0.267 N 
ATOM      6  C   UNL     1       9.791  -4.096  24.765  0.00  0.00    +0.129 C 
ENDROOT
BRANCH   5   7
ATOM      7  C   UNL     1       9.447  -1.725  23.926  0.00  0.00    +0.078 A 
ATOM      8  C   UNL     1       9.324  -0.909  25.074  0.00  0.00    +0.027 A 
ATOM      9  C   UNL     1       9.647   0.455  25.074  0.00  0.00    +0.002 A 
ATOM     10  C   UNL     1      10.133   1.052  23.924  0.00  0.00    +0.004 A 
ATOM     11  C   UNL     1      10.281   0.282  22.779  0.00  0.00    +0.047 A 
ATOM     12  C   UNL     1       9.935  -1.079  22.771  0.00  0.00    +0.138 A 
BRANCH  12  13
ATOM     13  O   UNL     1      10.152  -1.648  21.547  0.00  0.00    -0.505 OA
ATOM     14  H   UNL     1      10.131  -2.621  21.628  0.00  0.00    +0.292 HD
ENDBRANCH  12  13
ENDBRANCH   5   7
BRANCH   1  15
ATOM     15  C   UNL     1       8.064  -4.852  26.404  0.00  0.00    +0.310 C 
ATOM     16  O   UNL     1       7.706  -3.737  26.750  0.00  0.00    -0.251 OA
BRANCH  15  17
ATOM     17  O   UNL     1       7.910  -5.926  27.214  0.00  0.00    -0.480 OA
ATOM     18  H   UNL     1       7.783  -6.781  26.766  0.00  0.00    +0.295 HD
ENDBRANCH  15  17
ENDBRANCH   1  15
TORSDOF 4
ENDMDL
MODEL 3
REMARK VINA RESULT:      -5.8      2.161      5.049
REMARK  Name = 
REMARK  4 active torsions:
REMARK  status: ('A' for Active; 'I' for Inactive)
REMARK    1  A    between atoms: C_2  and  C_15
REMARK    2  A    between atoms: N_4  and  C_8
REMARK    3  A    between atoms: C_9  and  O_10
REMARK    4  A    between atoms: C_15  and  O_16
REMARK                            x       y       z     vdW  Elec       q    Type
REMARK                         _______ _______ _______ _____ _____    ______ ____
ROOT
ATOM      1  C   UNL     1      10.519   0.051  22.889  0.00  0.00    +0.124 C 
ATOM      2  C   UNL     1       9.971   0.325  24.277  0.00  0.00    +0.112 C 
ATOM      3  C   UNL     1       8.911  -0.735  24.455  0.00  0.00    +0.221 C 
ATOM      4  O   UNL     1       8.087  -0.680  25.355  0.00  0.00    -0.275 OA
ATOM      5  N   UNL     1       9.063  -1.706  23.465  0.00  0.00    -0.267 N 
ATOM      6  C   UNL     1      10.280  -1.439  22.719  0.00  0.00    +0.129 C 
ENDROOT
BRANCH   5   7
ATOM      7  C   UNL     1       8.204  -2.824  23.183  0.00  0.00    +0.078 A 
ATOM      8  C   UNL     1       7.086  -2.626  22.340  0.00  0.00    +0.027 A 
ATOM      9  C   UNL     1       6.169  -3.644  22.045  0.00  0.00    +0.002 A 
ATOM     10  C   UNL     1       6.350  -4.914  22.564  0.00  0.00    +0.004 A 
ATOM     11  C   UNL     1       7.443  -5.152  23.385  0.00  0.00    +0.047 A 
ATOM     12  C   UNL     1       8.350  -4.128  23.702  0.00  0.00    +0.138 A 
BRANCH  12  13
ATOM     13  O   UNL     1       9.346  -4.572  24.525  0.00  0.00    -0.505 OA
ATOM     14  H   UNL     1      10.212  -4.272  24.186  0.00  0.00    +0.292 HD
ENDBRANCH  12  13
ENDBRANCH   5   7
BRANCH   1  15
ATOM     15  C   UNL     1       9.797   0.838  21.811  0.00  0.00    +0.310 C 
ATOM     16  O   UNL     1       8.965   0.375  21.047  0.00  0.00    -0.251 OA
BRANCH  15  17
ATOM     17  O   UNL     1      10.208   2.124  21.714  0.00  0.00    -0.480 OA
ATOM     18  H   UNL     1       9.709   2.684  21.092  0.00  0.00    +0.295 HD
ENDBRANCH  15  17
ENDBRANCH   1  15
TORSDOF 4
ENDMDL
MODEL 4
REMARK VINA RESULT:      -5.8      2.302      3.570
REMARK  Name = 
REMARK  4 active torsions:
REMARK  status: ('A' for Active; 'I' for Inactive)
REMARK    1  A    between atoms: C_2  and  C_15
REMARK    2  A    between atoms: N_4  and  C_8
REMARK    3  A    between atoms: C_9  and  O_10
REMARK    4  A    between atoms: C_15  and  O_16
REMARK                            x       y       z     vdW  Elec       q    Type
REMARK                         _______ _______ _______ _____ _____    ______ ____
ROOT
ATOM      1  C   UNL     1       8.935  -4.057  24.688  0.00  0.00    +0.124 C 
ATOM      2  C   UNL     1       7.682  -3.948  23.840  0.00  0.00    +0.112 C 
ATOM      3  C   UNL     1       7.684  -2.507  23.388  0.00  0.00    +0.221 C 
ATOM      4  O   UNL     1       6.700  -1.986  22.887  0.00  0.00    -0.275 OA
ATOM      5  N   UNL     1       8.939  -1.950  23.638  0.00  0.00    -0.267 N 
ATOM      6  C   UNL     1       9.841  -2.994  24.091  0.00  0.00    +0.129 C 
ENDROOT
BRANCH   5   7
ATOM      7  C   UNL     1       9.346  -0.580  23.481  0.00  0.00    +0.078 A 
ATOM      8  C   UNL     1       9.496  -0.062  22.175  0.00  0.00    +0.027 A 
ATOM      9  C   UNL     1       9.931   1.246  21.922  0.00  0.00    +0.002 A 
ATOM     10  C   UNL     1      10.210   2.100  22.976  0.00  0.00    +0.004 A 
ATOM     11  C   UNL     1      10.062   1.633  24.274  0.00  0.00    +0.047 A 
ATOM     12  C   UNL     1       9.650   0.315  24.528  0.00  0.00    +0.138 A 
BRANCH  12  13
ATOM     13  O   UNL     1       9.575   0.059  25.869  0.00  0.00    -0.505 OA
ATOM     14  H   UNL     1       9.666  -0.902  26.027  0.00  0.00    +0.292 HD
ENDBRANCH  12  13
ENDBRANCH   5   7
BRANCH   1  15
ATOM     15  C   UNL     1       8.673  -3.777  26.156  0.00  0.00    +0.310 C 
ATOM     16  O   UNL     1       8.454  -2.673  26.629  0.00  0.00    -0.251 OA
BRANCH  15  17
ATOM     17  O   UNL     1       8.768  -4.875  26.942  0.00  0.00    -0.480 OA
ATOM     18  H   UNL     1       9.646  -5.296  26.979  0.00  0.00    +0.295 HD
ENDBRANCH  15  17
ENDBRANCH   1  15
TORSDOF 4
ENDMDL
MODEL 5
REMARK VINA RESULT:      -5.7      2.414      5.363
REMARK  Name = 
REMARK  4 active torsions:
REMARK  status: ('A' for Active; 'I' for Inactive)
REMARK    1  A    between atoms: C_2  and  C_15
REMARK    2  A    between atoms: N_4  and  C_8
REMARK    3  A    between atoms: C_9  and  O_10
REMARK    4  A    between atoms: C_15  and  O_16
REMARK                            x       y       z     vdW  Elec       q    Type
REMARK                         _______ _______ _______ _____ _____    ______ ____
ROOT
ATOM      1  C   UNL     1      10.347   1.015  23.527  0.00  0.00    +0.124 C 
ATOM      2  C   UNL     1       9.292   1.654  24.409  0.00  0.00    +0.112 C 
ATOM      3  C   UNL     1       8.457   0.483  24.869  0.00  0.00    +0.221 C 
ATOM      4  O   UNL     1       7.369   0.635  25.400  0.00  0.00    -0.275 OA
ATOM      5  N   UNL     1       9.137  -0.703  24.588  0.00  0.00    -0.267 N 
ATOM      6  C   UNL     1      10.468  -0.384  24.104  0.00  0.00    +0.129 C 
ENDROOT
BRANCH   5   7
ATOM      7  C   UNL     1       8.664  -2.052  24.742  0.00  0.00    +0.078 A 
ATOM      8  C   UNL     1       8.543  -2.585  26.045  0.00  0.00    +0.027 A 
ATOM      9  C   UNL     1       8.133  -3.902  26.291  0.00  0.00    +0.002 A 
ATOM     10  C   UNL     1       7.801  -4.734  25.236  0.00  0.00    +0.004 A 
ATOM     11  C   UNL     1       7.893  -4.244  23.941  0.00  0.00    +0.047 A 
ATOM     12  C   UNL     1       8.327  -2.932  23.691  0.00  0.00    +0.138 A 
BRANCH  12  13
ATOM     13  O   UNL     1       8.351  -2.653  22.354  0.00  0.00    -0.505 OA
ATOM     14  H   UNL     1       8.273  -1.689  22.216  0.00  0.00    +0.292 HD
ENDBRANCH  12  13
ENDBRANCH   5   7
BRANCH   1  15
ATOM     15  C   UNL     1       9.933   0.960  22.068  0.00  0.00    +0.310 C 
ATOM     16  O   UNL     1       9.697  -0.064  21.446  0.00  0.00    -0.251 OA
BRANCH  15  17
ATOM     17  O   UNL     1       9.907   2.173  21.467  0.00  0.00    -0.480 OA
ATOM     18  H   UNL     1       9.051   2.442  21.089  0.00  0.00    +0.295 HD
ENDBRANCH  15  17
ENDBRANCH   1  15
TORSDOF 4
ENDMDL
MODEL 6
REMARK VINA RESULT:      -5.7      1.633      1.778
REMARK  Name = 
REMARK  4 active torsions:
REMARK  status: ('A' for Active; 'I' for Inactive)
REMARK    1  A    between atoms: C_2  and  C_15
REMARK    2  A    between atoms: N_4  and  C_8
REMARK    3  A    between atoms: C_9  and  O_10
REMARK    4  A    between atoms: C_15  and  O_16
REMARK                            x       y       z     vdW  Elec       q    Type
REMARK                         _______ _______ _______ _____ _____    ______ ____
ROOT
ATOM      1  C   UNL     1       6.874  -3.156  24.242  0.00  0.00    +0.124 C 
ATOM      2  C   UNL     1       8.207  -3.868  24.381  0.00  0.00    +0.112 C 
ATOM      3  C   UNL     1       9.216  -2.809  24.007  0.00  0.00    +0.221 C 
ATOM      4  O   UNL     1      10.381  -3.083  23.769  0.00  0.00    -0.275 OA
ATOM      5  N   UNL     1       8.589  -1.562  23.998  0.00  0.00    -0.267 N 
ATOM      6  C   UNL     1       7.237  -1.705  24.507  0.00  0.00    +0.129 C 
ENDROOT
BRANCH   5   7
ATOM      7  C   UNL     1       9.137  -0.300  23.580  0.00  0.00    +0.078 A 
ATOM      8  C   UNL     1       9.300   0.722  24.542  0.00  0.00    +0.027 A 
ATOM      9  C   UNL     1       9.784   1.998  24.220  0.00  0.00    +0.002 A 
ATOM     10  C   UNL     1      10.150   2.292  22.918  0.00  0.00    +0.004 A 
ATOM     11  C   UNL     1      10.018   1.311  21.946  0.00  0.00    +0.047 A 
ATOM     12  C   UNL     1       9.510   0.041  22.262  0.00  0.00    +0.138 A 
BRANCH  12  13
ATOM     13  O   UNL     1       9.458  -0.770  21.163  0.00  0.00    -0.505 OA
ATOM     14  H   UNL     1       8.556  -1.133  21.064  0.00  0.00    +0.292 HD
ENDBRANCH  12  13
ENDBRANCH   5   7
BRANCH   1  15
ATOM     15  C   UNL     1       6.270  -3.315  22.859  0.00  0.00    +0.310 C 
ATOM     16  O   UNL     1       6.246  -4.357  22.223  0.00  0.00    -0.251 OA
BRANCH  15  17
ATOM     17  O   UNL     1       5.800  -2.158  22.338  0.00  0.00    -0.480 OA
ATOM     18  H   UNL     1       5.837  -2.083  21.368  0.00  0.00    +0.295 HD
ENDBRANCH  15  17
ENDBRANCH   1  15
TORSDOF 4
ENDMDL
MODEL 7
REMARK VINA RESULT:      -5.6      2.276      2.898
REMARK  Name = 
REMARK  4 active torsions:
REMARK  status: ('A' for Active; 'I' for Inactive)
REMARK    1  A    between atoms: C_2  and  C_15
REMARK    2  A    between atoms: N_4  and  C_8
REMARK    3  A    between atoms: C_9  and  O_10
REMARK    4  A    between atoms: C_15  and  O_16
REMARK                            x       y       z     vdW  Elec       q    Type
REMARK                         _______ _______ _______ _____ _____    ______ ____
ROOT
ATOM      1  C   UNL     1       7.505  -3.385  22.685  0.00  0.00    +0.124 C 
ATOM      2  C   UNL     1       6.280  -2.600  23.115  0.00  0.00    +0.112 C 
ATOM      3  C   UNL     1       6.824  -1.222  23.406  0.00  0.00    +0.221 C 
ATOM      4  O   UNL     1       6.172  -0.385  24.009  0.00  0.00    -0.275 OA
ATOM      5  N   UNL     1       8.113  -1.119  22.881  0.00  0.00    -0.267 N 
ATOM      6  C   UNL     1       8.407  -2.310  22.105  0.00  0.00    +0.129 C 
ENDROOT
BRANCH   5   7
ATOM      7  C   UNL     1       9.045  -0.034  23.032  0.00  0.00    +0.078 A 
ATOM      8  C   UNL     1       9.787   0.063  24.230  0.00  0.00    +0.027 A 
ATOM      9  C   UNL     1      10.684   1.109  24.485  0.00  0.00    +0.002 A 
ATOM     10  C   UNL     1      10.893   2.091  23.533  0.00  0.00    +0.004 A 
ATOM     11  C   UNL     1      10.193   2.024  22.337  0.00  0.00    +0.047 A 
ATOM     12  C   UNL     1       9.275   0.991  22.090  0.00  0.00    +0.138 A 
BRANCH  12  13
ATOM     13  O   UNL     1       8.693   1.115  20.859  0.00  0.00    -0.505 OA
ATOM     14  H   UNL     1       8.619   2.061  20.624  0.00  0.00    +0.292 HD
ENDBRANCH  12  13
ENDBRANCH   5   7
BRANCH   1  15
ATOM     15  C   UNL     1       8.185  -4.087  23.846  0.00  0.00    +0.310 C 
ATOM     16  O   UNL     1       9.374  -4.010  24.110  0.00  0.00    -0.251 OA
BRANCH  15  17
ATOM     17  O   UNL     1       7.354  -4.888  24.554  0.00  0.00    -0.480 OA
ATOM     18  H   UNL     1       7.429  -4.827  25.523  0.00  0.00    +0.295 HD
ENDBRANCH  15  17
ENDBRANCH   1  15
TORSDOF 4
ENDMDL
MODEL 8
REMARK VINA RESULT:      -5.5      2.309      3.304
REMARK  Name = 
REMARK  4 active torsions:
REMARK  status: ('A' for Active; 'I' for Inactive)
REMARK    1  A    between atoms: C_2  and  C_15
REMARK    2  A    between atoms: N_4  and  C_8
REMARK    3  A    between atoms: C_9  and  O_10
REMARK    4  A    between atoms: C_15  and  O_16
REMARK                            x       y       z     vdW  Elec       q    Type
REMARK                         _______ _______ _______ _____ _____    ______ ____
ROOT
ATOM      1  C   UNL     1       7.690  -4.918  24.931  0.00  0.00    +0.124 C 
ATOM      2  C   UNL     1       6.636  -4.073  25.621  0.00  0.00    +0.112 C 
ATOM      3  C   UNL     1       6.888  -2.684  25.084  0.00  0.00    +0.221 C 
ATOM      4  O   UNL     1       6.390  -1.694  25.597  0.00  0.00    -0.275 OA
ATOM      5  N   UNL     1       7.731  -2.767  23.976  0.00  0.00    -0.267 N 
ATOM      6  C   UNL     1       7.934  -4.164  23.636  0.00  0.00    +0.129 C 
ENDROOT
BRANCH   5   7
ATOM      7  C   UNL     1       8.326  -1.688  23.234  0.00  0.00    +0.078 A 
ATOM      8  C   UNL     1       9.690  -1.781  22.874  0.00  0.00    +0.027 A 
ATOM      9  C   UNL     1      10.366  -0.761  22.191  0.00  0.00    +0.002 A 
ATOM     10  C   UNL     1       9.691   0.388  21.817  0.00  0.00    +0.004 A 
ATOM     11  C   UNL     1       8.348   0.512  22.140  0.00  0.00    +0.047 A 
ATOM     12  C   UNL     1       7.675  -0.498  22.846  0.00  0.00    +0.138 A 
BRANCH  12  13
ATOM     13  O   UNL     1       6.365  -0.175  23.065  0.00  0.00    -0.505 OA
ATOM     14  H   UNL     1       6.261   0.186  23.967  0.00  0.00    +0.292 HD
ENDBRANCH  12  13
ENDBRANCH   5   7
BRANCH   1  15
ATOM     15  C   UNL     1       8.971  -5.027  25.738  0.00  0.00    +0.310 C 
ATOM     16  O   UNL     1       9.095  -4.679  26.902  0.00  0.00    -0.251 OA
BRANCH  15  17
ATOM     17  O   UNL     1      10.022  -5.495  25.025  0.00  0.00    -0.480 OA
ATOM     18  H   UNL     1       9.897  -6.366  24.608  0.00  0.00    +0.295 HD
ENDBRANCH  15  17
ENDBRANCH   1  15
TORSDOF 4
ENDMDL
MODEL 9
REMARK VINA RESULT:      -5.5      1.717      2.146
REMARK  Name = 
REMARK  4 active torsions:
REMARK  status: ('A' for Active; 'I' for Inactive)
REMARK    1  A    between atoms: C_2  and  C_15
REMARK    2  A    between atoms: N_4  and  C_8
REMARK    3  A    between atoms: C_9  and  O_10
REMARK    4  A    between atoms: C_15  and  O_16
REMARK                            x       y       z     vdW  Elec       q    Type
REMARK                         _______ _______ _______ _____ _____    ______ ____
ROOT
ATOM      1  C   UNL     1       6.647  -3.360  24.439  0.00  0.00    +0.124 C 
ATOM      2  C   UNL     1       7.964  -4.057  24.726  0.00  0.00    +0.112 C 
ATOM      3  C   UNL     1       9.000  -3.061  24.263  0.00  0.00    +0.221 C 
ATOM      4  O   UNL     1      10.171  -3.371  24.113  0.00  0.00    -0.275 OA
ATOM      5  N   UNL     1       8.390  -1.821  24.068  0.00  0.00    -0.267 N 
ATOM      6  C   UNL     1       7.016  -1.890  24.532  0.00  0.00    +0.129 C 
ENDROOT
BRANCH   5   7
ATOM      7  C   UNL     1       8.970  -0.627  23.516  0.00  0.00    +0.078 A 
ATOM      8  C   UNL     1       8.718  -0.312  22.162  0.00  0.00    +0.027 A 
ATOM      9  C   UNL     1       9.276   0.806  21.526  0.00  0.00    +0.002 A 
ATOM     10  C   UNL     1      10.092   1.670  22.234  0.00  0.00    +0.004 A 
ATOM     11  C   UNL     1      10.354   1.403  23.570  0.00  0.00    +0.047 A 
ATOM     12  C   UNL     1       9.815   0.271  24.202  0.00  0.00    +0.138 A 
BRANCH  12  13
ATOM     13  O   UNL     1      10.200   0.192  25.511  0.00  0.00    -0.505 OA
ATOM     14  H   UNL     1      10.662   1.014  25.769  0.00  0.00    +0.292 HD
ENDBRANCH  12  13
ENDBRANCH   5   7
BRANCH   1  15
ATOM     15  C   UNL     1       6.099  -3.691  23.064  0.00  0.00    +0.310 C 
ATOM     16  O   UNL     1       5.482  -2.914  22.351  0.00  0.00    -0.251 OA
BRANCH  15  17
ATOM     17  O   UNL     1       6.296  -4.979  22.699  0.00  0.00    -0.480 OA
ATOM     18  H   UNL     1       6.126  -5.187  21.763  0.00  0.00    +0.295 HD
ENDBRANCH  15  17
ENDBRANCH   1  15
TORSDOF 4
ENDMDL
