MODEL 1
REMARK VINA RESULT:      -6.3      0.000      0.000
REMARK  Name = 
REMARK  9 active torsions:
REMARK  status: ('A' for Active; 'I' for Inactive)
REMARK    1  A    between atoms: C_2  and  O_3
REMARK    2  A    between atoms: C_2  and  C_4
REMARK    3  A    between atoms: C_2  and  C_9
REMARK    4  A    between atoms: C_4  and  N_5
REMARK    5  A    between atoms: N_5  and  C_6
REMARK    6  A    between atoms: C_6  and  C_7
REMARK    7  A    between atoms: C_6  and  C_8
REMARK    8  A    between atoms: C_9  and  O_10
REMARK    9  A    between atoms: O_10  and  C_11
REMARK                            x       y       z     vdW  Elec       q    Type
REMARK                         _______ _______ _______ _____ _____    ______ ____
ROOT
ATOM      1  C   UNL     1       7.920  -4.214  23.828  0.00  0.00    +0.130 A 
ATOM      2  C   UNL     1       8.490  -2.934  24.074  0.00  0.00    +0.049 A 
ATOM      3  C   UNL     1       8.926  -1.832  23.250  0.00  0.00    +0.011 A 
ATOM      4  C   UNL     1       8.976  -1.592  21.860  0.00  0.00    +0.011 A 
ATOM      5  C   UNL     1       9.479  -0.374  21.379  0.00  0.00    +0.001 A 
ATOM      6  C   UNL     1       9.929   0.606  22.259  0.00  0.00    +0.002 A 
ATOM      7  C   UNL     1       9.896   0.397  23.640  0.00  0.00    +0.026 A 
ATOM      8  C   UNL     1       9.394  -0.826  24.098  0.00  0.00    +0.048 A 
ATOM      9  N   UNL     1       9.256  -1.287  25.381  0.00  0.00    -0.354 N 
ATOM     10  H   UNL     1       9.520  -0.768  26.205  0.00  0.00    +0.166 HD
ATOM     11  C   UNL     1       8.729  -2.555  25.400  0.00  0.00    +0.051 A 
ATOM     12  C   UNL     1       8.457  -3.375  26.498  0.00  0.00    +0.026 A 
ATOM     13  C   UNL     1       7.940  -4.639  26.240  0.00  0.00    +0.006 A 
ATOM     14  C   UNL     1       7.682  -5.052  24.935  0.00  0.00    +0.046 A 
ENDROOT
BRANCH   1  15
ATOM     15  O   UNL     1       7.666  -4.598  22.526  0.00  0.00    -0.489 OA
BRANCH  15  16
ATOM     16  C   UNL     1       6.325  -4.358  22.065  0.00  0.00    +0.261 C 
BRANCH  16  17
ATOM     17  C   UNL     1       5.540  -5.676  21.973  0.00  0.00    +0.166 C 
BRANCH  17  18
ATOM     18  O   UNL     1       6.442  -6.787  21.973  0.00  0.00    -0.387 OA
ATOM     19  H   UNL     1       6.036  -7.464  22.547  0.00  0.00    +0.210 HD
ENDBRANCH  17  18
BRANCH  17  20
ATOM     20  C   UNL     1       4.527  -5.851  23.122  0.00  0.00    +0.115 C 
BRANCH  20  21
ATOM     21  N   UNL     1       4.652  -7.149  23.796  0.00  0.00    -0.311 NA
ATOM     22  H   UNL     1       5.633  -7.319  24.017  0.00  0.00    +0.122 HD
BRANCH  21  23
ATOM     23  C   UNL     1       3.863  -7.242  25.032  0.00  0.00    +0.048 C 
ATOM     24  C   UNL     1       2.639  -6.333  24.881  0.00  0.00    +0.023 C 
ATOM     25  C   UNL     1       4.649  -6.827  26.278  0.00  0.00    +0.023 C 
ENDBRANCH  21  23
ENDBRANCH  20  21
ENDBRANCH  17  20
ENDBRANCH  16  17
ENDBRANCH  15  16
ENDBRANCH   1  15
TORSDOF 7
ENDMDL
MODEL 2
REMARK VINA RESULT:      -6.3      2.760      4.608
REMARK  Name = 
REMARK  9 active torsions:
REMARK  status: ('A' for Active; 'I' for Inactive)
REMARK    1  A    between atoms: C_2  and  O_3
REMARK    2  A    between atoms: C_2  and  C_4
REMARK    3  A    between atoms: C_2  and  C_9
REMARK    4  A    between atoms: C_4  and  N_5
REMARK    5  A    between atoms: N_5  and  C_6
REMARK    6  A    between atoms: C_6  and  C_7
REMARK    7  A    between atoms: C_6  and  C_8
REMARK    8  A    between atoms: C_9  and  O_10
REMARK    9  A    between atoms: O_10  and  C_11
REMARK                            x       y       z     vdW  Elec       q    Type
REMARK                         _______ _______ _______ _____ _____    ______ ____
ROOT
ATOM      1  C   UNL     1       5.522  -5.292  24.057  0.00  0.00    +0.130 A 
ATOM      2  C   UNL     1       6.002  -4.030  23.614  0.00  0.00    +0.049 A 
ATOM      3  C   UNL     1       5.932  -2.676  24.109  0.00  0.00    +0.011 A 
ATOM      4  C   UNL     1       5.338  -2.061  25.232  0.00  0.00    +0.011 A 
ATOM      5  C   UNL     1       5.462  -0.676  25.417  0.00  0.00    +0.001 A 
ATOM      6  C   UNL     1       6.168   0.104  24.505  0.00  0.00    +0.002 A 
ATOM      7  C   UNL     1       6.763  -0.476  23.381  0.00  0.00    +0.026 A 
ATOM      8  C   UNL     1       6.625  -1.858  23.214  0.00  0.00    +0.048 A 
ATOM      9  N   UNL     1       7.096  -2.668  22.214  0.00  0.00    -0.354 N 
ATOM     10  H   UNL     1       7.633  -2.344  21.424  0.00  0.00    +0.166 HD
ATOM     11  C   UNL     1       6.728  -3.975  22.418  0.00  0.00    +0.051 A 
ATOM     12  C   UNL     1       6.990  -5.094  21.622  0.00  0.00    +0.026 A 
ATOM     13  C   UNL     1       6.478  -6.314  22.046  0.00  0.00    +0.006 A 
ATOM     14  C   UNL     1       5.756  -6.411  23.233  0.00  0.00    +0.046 A 
ENDROOT
BRANCH   1  15
ATOM     15  O   UNL     1       4.816  -5.365  25.241  0.00  0.00    -0.489 OA
BRANCH  15  16
ATOM     16  C   UNL     1       5.011  -6.572  26.000  0.00  0.00    +0.261 C 
BRANCH  16  17
ATOM     17  C   UNL     1       5.360  -6.243  27.460  0.00  0.00    +0.166 C 
BRANCH  17  18
ATOM     18  O   UNL     1       5.486  -7.450  28.220  0.00  0.00    -0.387 OA
ATOM     19  H   UNL     1       5.645  -8.162  27.571  0.00  0.00    +0.210 HD
ENDBRANCH  17  18
BRANCH  17  20
ATOM     20  C   UNL     1       6.660  -5.427  27.595  0.00  0.00    +0.115 C 
BRANCH  20  21
ATOM     21  N   UNL     1       7.739  -5.932  26.737  0.00  0.00    -0.311 NA
ATOM     22  H   UNL     1       7.344  -6.239  25.848  0.00  0.00    +0.122 HD
BRANCH  21  23
ATOM     23  C   UNL     1       8.788  -4.937  26.473  0.00  0.00    +0.048 C 
ATOM     24  C   UNL     1       8.191  -3.546  26.710  0.00  0.00    +0.023 C 
ATOM     25  C   UNL     1       9.341  -5.012  25.048  0.00  0.00    +0.023 C 
ENDBRANCH  21  23
ENDBRANCH  20  21
ENDBRANCH  17  20
ENDBRANCH  16  17
ENDBRANCH  15  16
ENDBRANCH   1  15
TORSDOF 7
ENDMDL
MODEL 3
REMARK VINA RESULT:      -6.2      1.814      7.005
REMARK  Name = 
REMARK  9 active torsions:
REMARK  status: ('A' for Active; 'I' for Inactive)
REMARK    1  A    between atoms: C_2  and  O_3
REMARK    2  A    between atoms: C_2  and  C_4
REMARK    3  A    between atoms: C_2  and  C_9
REMARK    4  A    between atoms: C_4  and  N_5
REMARK    5  A    between atoms: N_5  and  C_6
REMARK    6  A    between atoms: C_6  and  C_7
REMARK    7  A    between atoms: C_6  and  C_8
REMARK    8  A    between atoms: C_9  and  O_10
REMARK    9  A    between atoms: O_10  and  C_11
REMARK                            x       y       z     vdW  Elec       q    Type
REMARK                         _______ _______ _______ _____ _____    ______ ____
ROOT
ATOM      1  C   UNL     1       7.456  -4.633  23.497  0.00  0.00    +0.130 A 
ATOM      2  C   UNL     1       6.495  -5.339  24.270  0.00  0.00    +0.049 A 
ATOM      3  C   UNL     1       6.301  -5.596  25.677  0.00  0.00    +0.011 A 
ATOM      4  C   UNL     1       7.006  -5.259  26.852  0.00  0.00    +0.011 A 
ATOM      5  C   UNL     1       6.528  -5.687  28.100  0.00  0.00    +0.001 A 
ATOM      6  C   UNL     1       5.363  -6.442  28.195  0.00  0.00    +0.002 A 
ATOM      7  C   UNL     1       4.646  -6.795  27.049  0.00  0.00    +0.026 A 
ATOM      8  C   UNL     1       5.141  -6.360  25.815  0.00  0.00    +0.048 A 
ATOM      9  N   UNL     1       4.645  -6.568  24.554  0.00  0.00    -0.354 N 
ATOM     10  H   UNL     1       3.810  -7.095  24.349  0.00  0.00    +0.166 HD
ATOM     11  C   UNL     1       5.443  -5.979  23.604  0.00  0.00    +0.051 A 
ATOM     12  C   UNL     1       5.296  -5.978  22.214  0.00  0.00    +0.026 A 
ATOM     13  C   UNL     1       6.266  -5.320  21.468  0.00  0.00    +0.006 A 
ATOM     14  C   UNL     1       7.325  -4.666  22.094  0.00  0.00    +0.046 A 
ENDROOT
BRANCH   1  15
ATOM     15  O   UNL     1       8.493  -3.986  24.139  0.00  0.00    -0.489 OA
BRANCH  15  16
ATOM     16  C   UNL     1       8.336  -2.563  24.281  0.00  0.00    +0.261 C 
BRANCH  16  17
ATOM     17  C   UNL     1       9.350  -1.816  23.400  0.00  0.00    +0.166 C 
BRANCH  17  18
ATOM     18  O   UNL     1      10.496  -2.640  23.161  0.00  0.00    -0.387 OA
ATOM     19  H   UNL     1      10.611  -3.183  23.964  0.00  0.00    +0.210 HD
ENDBRANCH  17  18
BRANCH  17  20
ATOM     20  C   UNL     1       8.757  -1.375  22.047  0.00  0.00    +0.115 C 
BRANCH  20  21
ATOM     21  N   UNL     1       9.604  -0.404  21.345  0.00  0.00    -0.311 NA
ATOM     22  H   UNL     1       9.674  -0.669  20.363  0.00  0.00    +0.122 HD
BRANCH  21  23
ATOM     23  C   UNL     1       9.106   0.975  21.432  0.00  0.00    +0.048 C 
ATOM     24  C   UNL     1      10.150   1.809  22.182  0.00  0.00    +0.023 C 
ATOM     25  C   UNL     1       7.761   1.083  22.156  0.00  0.00    +0.023 C 
ENDBRANCH  21  23
ENDBRANCH  20  21
ENDBRANCH  17  20
ENDBRANCH  16  17
ENDBRANCH  15  16
ENDBRANCH   1  15
TORSDOF 7
ENDMDL
MODEL 4
REMARK VINA RESULT:      -6.2      1.421      1.683
REMARK  Name = 
REMARK  9 active torsions:
REMARK  status: ('A' for Active; 'I' for Inactive)
REMARK    1  A    between atoms: C_2  and  O_3
REMARK    2  A    between atoms: C_2  and  C_4
REMARK    3  A    between atoms: C_2  and  C_9
REMARK    4  A    between atoms: C_4  and  N_5
REMARK    5  A    between atoms: N_5  and  C_6
REMARK    6  A    between atoms: C_6  and  C_7
REMARK    7  A    between atoms: C_6  and  C_8
REMARK    8  A    between atoms: C_9  and  O_10
REMARK    9  A    between atoms: O_10  and  C_11
REMARK                            x       y       z     vdW  Elec       q    Type
REMARK                         _______ _______ _______ _____ _____    ______ ____
ROOT
ATOM      1  C   UNL     1       8.125  -2.909  23.851  0.00  0.00    +0.130 A 
ATOM      2  C   UNL     1       8.651  -1.637  24.208  0.00  0.00    +0.049 A 
ATOM      3  C   UNL     1       9.119  -0.481  23.482  0.00  0.00    +0.011 A 
ATOM      4  C   UNL     1       9.257  -0.159  22.114  0.00  0.00    +0.011 A 
ATOM      5  C   UNL     1       9.766   1.094  21.740  0.00  0.00    +0.001 A 
ATOM      6  C   UNL     1      10.136   2.028  22.702  0.00  0.00    +0.002 A 
ATOM      7  C   UNL     1      10.016   1.736  24.064  0.00  0.00    +0.026 A 
ATOM      8  C   UNL     1       9.509   0.481  24.416  0.00  0.00    +0.048 A 
ATOM      9  N   UNL     1       9.295  -0.057  25.658  0.00  0.00    -0.354 N 
ATOM     10  H   UNL     1       9.493   0.416  26.526  0.00  0.00    +0.166 HD
ATOM     11  C   UNL     1       8.794  -1.333  25.567  0.00  0.00    +0.051 A 
ATOM     12  C   UNL     1       8.465  -2.220  26.595  0.00  0.00    +0.026 A 
ATOM     13  C   UNL     1       7.993  -3.475  26.230  0.00  0.00    +0.006 A 
ATOM     14  C   UNL     1       7.831  -3.815  24.890  0.00  0.00    +0.046 A 
ENDROOT
BRANCH   1  15
ATOM     15  O   UNL     1       7.966  -3.219  22.515  0.00  0.00    -0.489 OA
BRANCH  15  16
ATOM     16  C   UNL     1       6.604  -3.319  22.065  0.00  0.00    +0.261 C 
BRANCH  16  17
ATOM     17  C   UNL     1       6.287  -4.753  21.611  0.00  0.00    +0.166 C 
BRANCH  17  18
ATOM     18  O   UNL     1       7.479  -5.545  21.614  0.00  0.00    -0.387 OA
ATOM     19  H   UNL     1       8.203  -4.943  21.870  0.00  0.00    +0.210 HD
ENDBRANCH  17  18
BRANCH  17  20
ATOM     20  C   UNL     1       5.226  -5.439  22.494  0.00  0.00    +0.115 C 
BRANCH  20  21
ATOM     21  N   UNL     1       4.148  -4.529  22.897  0.00  0.00    -0.311 NA
ATOM     22  H   UNL     1       3.301  -4.759  22.376  0.00  0.00    +0.122 HD
BRANCH  21  23
ATOM     23  C   UNL     1       3.849  -4.579  24.335  0.00  0.00    +0.048 C 
ATOM     24  C   UNL     1       4.168  -3.205  24.933  0.00  0.00    +0.023 C 
ATOM     25  C   UNL     1       4.651  -5.650  25.078  0.00  0.00    +0.023 C 
ENDBRANCH  21  23
ENDBRANCH  20  21
ENDBRANCH  17  20
ENDBRANCH  16  17
ENDBRANCH  15  16
ENDBRANCH   1  15
TORSDOF 7
ENDMDL
MODEL 5
REMARK VINA RESULT:      -6.1      2.399      6.682
REMARK  Name = 
REMARK  9 active torsions:
REMARK  status: ('A' for Active; 'I' for Inactive)
REMARK    1  A    between atoms: C_2  and  O_3
REMARK    2  A    between atoms: C_2  and  C_4
REMARK    3  A    between atoms: C_2  and  C_9
REMARK    4  A    between atoms: C_4  and  N_5
REMARK    5  A    between atoms: N_5  and  C_6
REMARK    6  A    between atoms: C_6  and  C_7
REMARK    7  A    between atoms: C_6  and  C_8
REMARK    8  A    between atoms: C_9  and  O_10
REMARK    9  A    between atoms: O_10  and  C_11
REMARK                            x       y       z     vdW  Elec       q    Type
REMARK                         _______ _______ _______ _____ _____    ______ ____
ROOT
ATOM      1  C   UNL     1       8.724  -2.065  24.367  0.00  0.00    +0.130 A 
ATOM      2  C   UNL     1       7.696  -3.046  24.436  0.00  0.00    +0.049 A 
ATOM      3  C   UNL     1       7.193  -4.066  23.549  0.00  0.00    +0.011 A 
ATOM      4  C   UNL     1       7.513  -4.488  22.240  0.00  0.00    +0.011 A 
ATOM      5  C   UNL     1       6.800  -5.544  21.653  0.00  0.00    +0.001 A 
ATOM      6  C   UNL     1       5.777  -6.185  22.346  0.00  0.00    +0.002 A 
ATOM      7  C   UNL     1       5.434  -5.787  23.641  0.00  0.00    +0.026 A 
ATOM      8  C   UNL     1       6.156  -4.731  24.207  0.00  0.00    +0.048 A 
ATOM      9  N   UNL     1       6.024  -4.146  25.440  0.00  0.00    -0.354 N 
ATOM     10  H   UNL     1       5.346  -4.422  26.133  0.00  0.00    +0.166 HD
ATOM     11  C   UNL     1       6.926  -3.122  25.603  0.00  0.00    +0.051 A 
ATOM     12  C   UNL     1       7.098  -2.272  26.698  0.00  0.00    +0.026 A 
ATOM     13  C   UNL     1       8.077  -1.291  26.599  0.00  0.00    +0.006 A 
ATOM     14  C   UNL     1       8.869  -1.186  25.458  0.00  0.00    +0.046 A 
ENDROOT
BRANCH   1  15
ATOM     15  O   UNL     1       9.501  -1.986  23.229  0.00  0.00    -0.489 OA
BRANCH  15  16
ATOM     16  C   UNL     1      10.278  -0.783  23.098  0.00  0.00    +0.261 C 
BRANCH  16  17
ATOM     17  C   UNL     1       9.875  -0.013  21.830  0.00  0.00    +0.166 C 
BRANCH  17  18
ATOM     18  O   UNL     1       9.478  -0.928  20.803  0.00  0.00    -0.387 OA
ATOM     19  H   UNL     1       8.706  -0.523  20.364  0.00  0.00    +0.210 HD
ENDBRANCH  17  18
BRANCH  17  20
ATOM     20  C   UNL     1       8.730   0.989  22.079  0.00  0.00    +0.115 C 
BRANCH  20  21
ATOM     21  N   UNL     1       9.148   2.385  21.899  0.00  0.00    -0.311 NA
ATOM     22  H   UNL     1       8.439   2.881  21.360  0.00  0.00    +0.122 HD
BRANCH  21  23
ATOM     23  C   UNL     1       9.366   3.096  23.167  0.00  0.00    +0.048 C 
ATOM     24  C   UNL     1      10.876   3.169  23.415  0.00  0.00    +0.023 C 
ATOM     25  C   UNL     1       8.691   2.415  24.360  0.00  0.00    +0.023 C 
ENDBRANCH  21  23
ENDBRANCH  20  21
ENDBRANCH  17  20
ENDBRANCH  16  17
ENDBRANCH  15  16
ENDBRANCH   1  15
TORSDOF 7
ENDMDL
MODEL 6
REMARK VINA RESULT:      -6.1      2.723      3.820
REMARK  Name = 
REMARK  9 active torsions:
REMARK  status: ('A' for Active; 'I' for Inactive)
REMARK    1  A    between atoms: C_2  and  O_3
REMARK    2  A    between atoms: C_2  and  C_4
REMARK    3  A    between atoms: C_2  and  C_9
REMARK    4  A    between atoms: C_4  and  N_5
REMARK    5  A    between atoms: N_5  and  C_6
REMARK    6  A    between atoms: C_6  and  C_7
REMARK    7  A    between atoms: C_6  and  C_8
REMARK    8  A    between atoms: C_9  and  O_10
REMARK    9  A    between atoms: O_10  and  C_11
REMARK                            x       y       z     vdW  Elec       q    Type
REMARK                         _______ _______ _______ _____ _____    ______ ____
ROOT
ATOM      1  C   UNL     1       7.561  -1.802  25.772  0.00  0.00    +0.130 A 
ATOM      2  C   UNL     1       7.315  -0.804  24.789  0.00  0.00    +0.049 A 
ATOM      3  C   UNL     1       8.062  -0.245  23.689  0.00  0.00    +0.011 A 
ATOM      4  C   UNL     1       9.353  -0.458  23.157  0.00  0.00    +0.011 A 
ATOM      5  C   UNL     1       9.781   0.283  22.045  0.00  0.00    +0.001 A 
ATOM      6  C   UNL     1       8.946   1.228  21.455  0.00  0.00    +0.002 A 
ATOM      7  C   UNL     1       7.665   1.464  21.961  0.00  0.00    +0.026 A 
ATOM      8  C   UNL     1       7.259   0.716  23.072  0.00  0.00    +0.048 A 
ATOM      9  N   UNL     1       6.075   0.751  23.762  0.00  0.00    -0.354 N 
ATOM     10  H   UNL     1       5.303   1.361  23.540  0.00  0.00    +0.166 HD
ATOM     11  C   UNL     1       6.083  -0.141  24.807  0.00  0.00    +0.051 A 
ATOM     12  C   UNL     1       5.085  -0.391  25.752  0.00  0.00    +0.026 A 
ATOM     13  C   UNL     1       5.355  -1.339  26.732  0.00  0.00    +0.006 A 
ATOM     14  C   UNL     1       6.567  -2.025  26.746  0.00  0.00    +0.046 A 
ENDROOT
BRANCH   1  15
ATOM     15  O   UNL     1       8.766  -2.475  25.760  0.00  0.00    -0.489 OA
BRANCH  15  16
ATOM     16  C   UNL     1       8.702  -3.858  26.150  0.00  0.00    +0.261 C 
BRANCH  16  17
ATOM     17  C   UNL     1       9.200  -4.765  25.014  0.00  0.00    +0.166 C 
BRANCH  17  18
ATOM     18  O   UNL     1       9.646  -6.018  25.544  0.00  0.00    -0.387 OA
ATOM     19  H   UNL     1       9.140  -6.159  26.366  0.00  0.00    +0.210 HD
ENDBRANCH  17  18
BRANCH  17  20
ATOM     20  C   UNL     1       8.123  -5.028  23.943  0.00  0.00    +0.115 C 
BRANCH  20  21
ATOM     21  N   UNL     1       7.960  -3.904  23.014  0.00  0.00    -0.311 NA
ATOM     22  H   UNL     1       8.792  -3.830  22.428  0.00  0.00    +0.122 HD
BRANCH  21  23
ATOM     23  C   UNL     1       6.779  -4.030  22.148  0.00  0.00    +0.048 C 
ATOM     24  C   UNL     1       5.561  -3.536  22.935  0.00  0.00    +0.023 C 
ATOM     25  C   UNL     1       6.528  -5.465  21.679  0.00  0.00    +0.023 C 
ENDBRANCH  21  23
ENDBRANCH  20  21
ENDBRANCH  17  20
ENDBRANCH  16  17
ENDBRANCH  15  16
ENDBRANCH   1  15
TORSDOF 7
ENDMDL
MODEL 7
REMARK VINA RESULT:      -6.1      2.977      6.527
REMARK  Name = 
REMARK  9 active torsions:
REMARK  status: ('A' for Active; 'I' for Inactive)
REMARK    1  A    between atoms: C_2  and  O_3
REMARK    2  A    between atoms: C_2  and  C_4
REMARK    3  A    between atoms: C_2  and  C_9
REMARK    4  A    between atoms: C_4  and  N_5
REMARK    5  A    between atoms: N_5  and  C_6
REMARK    6  A    between atoms: C_6  and  C_7
REMARK    7  A    between atoms: C_6  and  C_8
REMARK    8  A    between atoms: C_9  and  O_10
REMARK    9  A    between atoms: O_10  and  C_11
REMARK                            x       y       z     vdW  Elec       q    Type
REMARK                         _______ _______ _______ _____ _____    ______ ____
ROOT
ATOM      1  C   UNL     1       7.376  -1.032  24.376  0.00  0.00    +0.130 A 
ATOM      2  C   UNL     1       7.501  -2.432  24.157  0.00  0.00    +0.049 A 
ATOM      3  C   UNL     1       7.087  -3.347  23.121  0.00  0.00    +0.011 A 
ATOM      4  C   UNL     1       6.372  -3.216  21.911  0.00  0.00    +0.011 A 
ATOM      5  C   UNL     1       6.132  -4.347  21.116  0.00  0.00    +0.001 A 
ATOM      6  C   UNL     1       6.593  -5.602  21.506  0.00  0.00    +0.002 A 
ATOM      7  C   UNL     1       7.299  -5.763  22.700  0.00  0.00    +0.026 A 
ATOM      8  C   UNL     1       7.525  -4.623  23.479  0.00  0.00    +0.048 A 
ATOM      9  N   UNL     1       8.175  -4.501  24.680  0.00  0.00    -0.354 N 
ATOM     10  H   UNL     1       8.594  -5.269  25.182  0.00  0.00    +0.166 HD
ATOM     11  C   UNL     1       8.165  -3.200  25.120  0.00  0.00    +0.051 A 
ATOM     12  C   UNL     1       8.697  -2.670  26.298  0.00  0.00    +0.026 A 
ATOM     13  C   UNL     1       8.531  -1.308  26.519  0.00  0.00    +0.006 A 
ATOM     14  C   UNL     1       7.881  -0.508  25.583  0.00  0.00    +0.046 A 
ENDROOT
BRANCH   1  15
ATOM     15  O   UNL     1       6.735  -0.258  23.430  0.00  0.00    -0.489 OA
BRANCH  15  16
ATOM     16  C   UNL     1       6.226   1.000  23.906  0.00  0.00    +0.261 C 
BRANCH  16  17
ATOM     17  C   UNL     1       6.681   2.150  22.994  0.00  0.00    +0.166 C 
BRANCH  17  18
ATOM     18  O   UNL     1       7.423   3.113  23.750  0.00  0.00    -0.387 OA
ATOM     19  H   UNL     1       8.342   2.785  23.778  0.00  0.00    +0.210 HD
ENDBRANCH  17  18
BRANCH  17  20
ATOM     20  C   UNL     1       7.544   1.668  21.811  0.00  0.00    +0.115 C 
BRANCH  20  21
ATOM     21  N   UNL     1       8.862   2.311  21.770  0.00  0.00    -0.311 NA
ATOM     22  H   UNL     1       8.898   3.048  22.475  0.00  0.00    +0.122 HD
BRANCH  21  23
ATOM     23  C   UNL     1       9.974   1.378  22.001  0.00  0.00    +0.048 C 
ATOM     24  C   UNL     1       9.556   0.004  21.467  0.00  0.00    +0.023 C 
ATOM     25  C   UNL     1      10.353   1.250  23.479  0.00  0.00    +0.023 C 
ENDBRANCH  21  23
ENDBRANCH  20  21
ENDBRANCH  17  20
ENDBRANCH  16  17
ENDBRANCH  15  16
ENDBRANCH   1  15
TORSDOF 7
ENDMDL
MODEL 8
REMARK VINA RESULT:      -5.9      1.569      6.715
REMARK  Name = 
REMARK  9 active torsions:
REMARK  status: ('A' for Active; 'I' for Inactive)
REMARK    1  A    between atoms: C_2  and  O_3
REMARK    2  A    between atoms: C_2  and  C_4
REMARK    3  A    between atoms: C_2  and  C_9
REMARK    4  A    between atoms: C_4  and  N_5
REMARK    5  A    between atoms: N_5  and  C_6
REMARK    6  A    between atoms: C_6  and  C_7
REMARK    7  A    between atoms: C_6  and  C_8
REMARK    8  A    between atoms: C_9  and  O_10
REMARK    9  A    between atoms: O_10  and  C_11
REMARK                            x       y       z     vdW  Elec       q    Type
REMARK                         _______ _______ _______ _____ _____    ______ ____
ROOT
ATOM      1  C   UNL     1       7.563  -4.169  24.310  0.00  0.00    +0.130 A 
ATOM      2  C   UNL     1       6.605  -5.058  24.871  0.00  0.00    +0.049 A 
ATOM      3  C   UNL     1       5.355  -5.627  24.429  0.00  0.00    +0.011 A 
ATOM      4  C   UNL     1       4.572  -5.513  23.261  0.00  0.00    +0.011 A 
ATOM      5  C   UNL     1       3.367  -6.225  23.155  0.00  0.00    +0.001 A 
ATOM      6  C   UNL     1       2.934  -7.047  24.190  0.00  0.00    +0.002 A 
ATOM      7  C   UNL     1       3.685  -7.178  25.361  0.00  0.00    +0.026 A 
ATOM      8  C   UNL     1       4.881  -6.457  25.448  0.00  0.00    +0.048 A 
ATOM      9  N   UNL     1       5.793  -6.399  26.469  0.00  0.00    -0.354 N 
ATOM     10  H   UNL     1       5.706  -6.899  27.340  0.00  0.00    +0.166 HD
ATOM     11  C   UNL     1       6.833  -5.556  26.159  0.00  0.00    +0.051 A 
ATOM     12  C   UNL     1       7.943  -5.212  26.935  0.00  0.00    +0.026 A 
ATOM     13  C   UNL     1       8.849  -4.310  26.391  0.00  0.00    +0.006 A 
ATOM     14  C   UNL     1       8.661  -3.795  25.110  0.00  0.00    +0.046 A 
ENDROOT
BRANCH   1  15
ATOM     15  O   UNL     1       7.360  -3.678  23.036  0.00  0.00    -0.489 OA
BRANCH  15  16
ATOM     16  C   UNL     1       8.248  -2.620  22.635  0.00  0.00    +0.261 C 
BRANCH  16  17
ATOM     17  C   UNL     1       7.525  -1.265  22.668  0.00  0.00    +0.166 C 
BRANCH  17  18
ATOM     18  O   UNL     1       6.130  -1.456  22.924  0.00  0.00    -0.387 OA
ATOM     19  H   UNL     1       5.658  -1.027  22.185  0.00  0.00    +0.210 HD
ENDBRANCH  17  18
BRANCH  17  20
ATOM     20  C   UNL     1       8.102  -0.304  23.726  0.00  0.00    +0.115 C 
BRANCH  20  21
ATOM     21  N   UNL     1       9.570  -0.302  23.750  0.00  0.00    -0.311 NA
ATOM     22  H   UNL     1       9.918  -0.969  23.061  0.00  0.00    +0.122 HD
BRANCH  21  23
ATOM     23  C   UNL     1      10.155   1.017  23.472  0.00  0.00    +0.048 C 
ATOM     24  C   UNL     1       9.495   2.034  24.409  0.00  0.00    +0.023 C 
ATOM     25  C   UNL     1       9.960   1.467  22.022  0.00  0.00    +0.023 C 
ENDBRANCH  21  23
ENDBRANCH  20  21
ENDBRANCH  17  20
ENDBRANCH  16  17
ENDBRANCH  15  16
ENDBRANCH   1  15
TORSDOF 7
ENDMDL
MODEL 9
REMARK VINA RESULT:      -5.9      2.174      3.071
REMARK  Name = 
REMARK  9 active torsions:
REMARK  status: ('A' for Active; 'I' for Inactive)
REMARK    1  A    between atoms: C_2  and  O_3
REMARK    2  A    between atoms: C_2  and  C_4
REMARK    3  A    between atoms: C_2  and  C_9
REMARK    4  A    between atoms: C_4  and  N_5
REMARK    5  A    between atoms: N_5  and  C_6
REMARK    6  A    between atoms: C_6  and  C_7
REMARK    7  A    between atoms: C_6  and  C_8
REMARK    8  A    between atoms: C_9  and  O_10
REMARK    9  A    between atoms: O_10  and  C_11
REMARK                            x       y       z     vdW  Elec       q    Type
REMARK                         _______ _______ _______ _____ _____    ______ ____
ROOT
ATOM      1  C   UNL     1       7.119  -3.543  25.338  0.00  0.00    +0.130 A 
ATOM      2  C   UNL     1       8.097  -2.854  24.571  0.00  0.00    +0.049 A 
ATOM      3  C   UNL     1       8.120  -1.636  23.796  0.00  0.00    +0.011 A 
ATOM      4  C   UNL     1       7.165  -0.646  23.478  0.00  0.00    +0.011 A 
ATOM      5  C   UNL     1       7.530   0.442  22.671  0.00  0.00    +0.001 A 
ATOM      6  C   UNL     1       8.827   0.560  22.179  0.00  0.00    +0.002 A 
ATOM      7  C   UNL     1       9.793  -0.406  22.473  0.00  0.00    +0.026 A 
ATOM      8  C   UNL     1       9.407  -1.485  23.278  0.00  0.00    +0.048 A 
ATOM      9  N   UNL     1      10.142  -2.559  23.708  0.00  0.00    -0.354 N 
ATOM     10  H   UNL     1      11.112  -2.714  23.481  0.00  0.00    +0.166 HD
ATOM     11  C   UNL     1       9.380  -3.406  24.475  0.00  0.00    +0.051 A 
ATOM     12  C   UNL     1       9.748  -4.611  25.078  0.00  0.00    +0.026 A 
ATOM     13  C   UNL     1       8.770  -5.295  25.790  0.00  0.00    +0.006 A 
ATOM     14  C   UNL     1       7.483  -4.777  25.914  0.00  0.00    +0.046 A 
ENDROOT
BRANCH   1  15
ATOM     15  O   UNL     1       5.853  -3.005  25.454  0.00  0.00    -0.489 OA
BRANCH  15  16
ATOM     16  C   UNL     1       4.859  -3.885  26.007  0.00  0.00    +0.261 C 
BRANCH  16  17
ATOM     17  C   UNL     1       3.691  -4.069  25.025  0.00  0.00    +0.166 C 
BRANCH  17  18
ATOM     18  O   UNL     1       2.747  -3.004  25.177  0.00  0.00    -0.387 OA
ATOM     19  H   UNL     1       2.128  -3.289  25.876  0.00  0.00    +0.210 HD
ENDBRANCH  17  18
BRANCH  17  20
ATOM     20  C   UNL     1       4.151  -4.127  23.555  0.00  0.00    +0.115 C 
BRANCH  20  21
ATOM     21  N   UNL     1       4.989  -5.297  23.268  0.00  0.00    -0.311 NA
ATOM     22  H   UNL     1       4.394  -6.119  23.166  0.00  0.00    +0.122 HD
BRANCH  21  23
ATOM     23  C   UNL     1       5.803  -5.147  22.054  0.00  0.00    +0.048 C 
ATOM     24  C   UNL     1       7.176  -5.771  22.325  0.00  0.00    +0.023 C 
ATOM     25  C   UNL     1       5.989  -3.687  21.631  0.00  0.00    +0.023 C 
ENDBRANCH  21  23
ENDBRANCH  20  21
ENDBRANCH  17  20
ENDBRANCH  16  17
ENDBRANCH  15  16
ENDBRANCH   1  15
TORSDOF 7
ENDMDL
