MODEL 1
REMARK VINA RESULT:      -4.2      0.000      0.000
REMARK  Name = 
REMARK  6 active torsions:
REMARK  status: ('A' for Active; 'I' for Inactive)
REMARK    1  A    between atoms: C_1  and  C_2
REMARK    2  A    between atoms: N_4  and  C_5
REMARK    3  A    between atoms: C_5  and  C_6
REMARK    4  A    between atoms: C_6  and  C_7
REMARK    5  A    between atoms: C_7  and  S_8
REMARK    6  A    between atoms: S_8  and  O_9
REMARK                            x       y       z     vdW  Elec       q    Type
REMARK                         _______ _______ _______ _____ _____    ______ ____
ROOT
ATOM      1  C   UNL     1       9.794  -0.238  21.738  0.00  0.00    +0.044 C 
ENDROOT
BRANCH   1   2
ATOM      2  C   UNL     1       9.192   1.150  21.561  0.00  0.00    +0.106 C 
BRANCH   2   5
ATOM      3  C   UNL     1      11.312   3.758  23.290  0.00  0.00    +0.109 C 
ATOM      4  C   UNL     1      10.277   2.672  23.167  0.00  0.00    +0.210 C 
ATOM      5  N   UNL     1      10.141   2.192  21.883  0.00  0.00    -0.315 N 
ATOM      6  H   UNL     1      10.771   2.522  21.164  0.00  0.00    +0.149 HD
ATOM      7  O   UNL     1       9.619   2.271  24.118  0.00  0.00    -0.276 OA
ENDBRANCH   2   5
ENDBRANCH   1   2
BRANCH   1   8
ATOM      8  C   UNL     1       8.790  -1.170  22.400  0.00  0.00    +0.199 C 
BRANCH   8   9
ATOM      9  S   UNL     1       9.409  -1.809  23.944  0.00  0.00    +0.080 S 
ATOM     10  O   UNL     1      10.244  -2.962  23.709  0.00  0.00    -0.147 OA
ATOM     11  O   UNL     1       8.353  -1.789  24.932  0.00  0.00    -0.147 OA
BRANCH   9  12
ATOM     12  O   UNL     1      10.368  -0.562  24.314  0.00  0.00    -0.254 OA
ATOM     13  H   UNL     1      11.269  -0.762  23.979  0.00  0.00    +0.244 HD
ENDBRANCH   9  12
ENDBRANCH   8   9
ENDBRANCH   1   8
TORSDOF 5
ENDMDL
MODEL 2
REMARK VINA RESULT:      -4.2      4.989      6.052
REMARK  Name = 
REMARK  6 active torsions:
REMARK  status: ('A' for Active; 'I' for Inactive)
REMARK    1  A    between atoms: C_1  and  C_2
REMARK    2  A    between atoms: N_4  and  C_5
REMARK    3  A    between atoms: C_5  and  C_6
REMARK    4  A    between atoms: C_6  and  C_7
REMARK    5  A    between atoms: C_7  and  S_8
REMARK    6  A    between atoms: S_8  and  O_9
REMARK                            x       y       z     vdW  Elec       q    Type
REMARK                         _______ _______ _______ _____ _____    ______ ____
ROOT
ATOM      1  C   UNL     1       8.096  -2.593  24.096  0.00  0.00    +0.044 C 
ENDROOT
BRANCH   1   2
ATOM      2  C   UNL     1       7.906  -2.759  22.594  0.00  0.00    +0.106 C 
BRANCH   2   5
ATOM      3  C   UNL     1       6.059  -5.842  21.422  0.00  0.00    +0.109 C 
ATOM      4  C   UNL     1       6.276  -4.379  21.705  0.00  0.00    +0.210 C 
ATOM      5  N   UNL     1       7.512  -4.107  22.247  0.00  0.00    -0.315 N 
ATOM      6  H   UNL     1       8.188  -4.854  22.335  0.00  0.00    +0.149 HD
ATOM      7  O   UNL     1       5.425  -3.527  21.483  0.00  0.00    -0.276 OA
ENDBRANCH   2   5
ENDBRANCH   1   2
BRANCH   1   8
ATOM      8  C   UNL     1       9.314  -3.376  24.565  0.00  0.00    +0.199 C 
BRANCH   8   9
ATOM      9  S   UNL     1       8.847  -4.771  25.572  0.00  0.00    +0.080 S 
ATOM     10  O   UNL     1       7.661  -5.396  25.040  0.00  0.00    -0.147 OA
ATOM     11  O   UNL     1       8.998  -4.430  26.969  0.00  0.00    -0.147 OA
BRANCH   9  12
ATOM     12  O   UNL     1      10.112  -5.713  25.219  0.00  0.00    -0.254 OA
ATOM     13  H   UNL     1      10.931  -5.199  25.393  0.00  0.00    +0.244 HD
ENDBRANCH   9  12
ENDBRANCH   8   9
ENDBRANCH   1   8
TORSDOF 5
ENDMDL
MODEL 3
REMARK VINA RESULT:      -4.2      2.797      4.758
REMARK  Name = 
REMARK  6 active torsions:
REMARK  status: ('A' for Active; 'I' for Inactive)
REMARK    1  A    between atoms: C_1  and  C_2
REMARK    2  A    between atoms: N_4  and  C_5
REMARK    3  A    between atoms: C_5  and  C_6
REMARK    4  A    between atoms: C_6  and  C_7
REMARK    5  A    between atoms: C_7  and  S_8
REMARK    6  A    between atoms: S_8  and  O_9
REMARK                            x       y       z     vdW  Elec       q    Type
REMARK                         _______ _______ _______ _____ _____    ______ ____
ROOT
ATOM      1  C   UNL     1      10.371   0.586  24.256  0.00  0.00    +0.044 C 
ENDROOT
BRANCH   1   2
ATOM      2  C   UNL     1       9.771  -0.542  25.086  0.00  0.00    +0.106 C 
BRANCH   2   5
ATOM      3  C   UNL     1       7.996  -3.165  23.023  0.00  0.00    +0.109 C 
ATOM      4  C   UNL     1       9.135  -2.528  23.772  0.00  0.00    +0.210 C 
ATOM      5  N   UNL     1       8.808  -1.312  24.330  0.00  0.00    -0.315 N 
ATOM      6  H   UNL     1       7.852  -0.985  24.276  0.00  0.00    +0.149 HD
ATOM      7  O   UNL     1      10.242  -3.043  23.860  0.00  0.00    -0.276 OA
ENDBRANCH   2   5
ENDBRANCH   1   2
BRANCH   1   8
ATOM      8  C   UNL     1       9.268   1.452  23.665  0.00  0.00    +0.199 C 
BRANCH   8   9
ATOM      9  S   UNL     1       9.206   1.310  21.889  0.00  0.00    +0.080 S 
ATOM     10  O   UNL     1       7.960   1.839  21.390  0.00  0.00    -0.147 OA
ATOM     11  O   UNL     1       9.732   0.024  21.489  0.00  0.00    -0.147 OA
BRANCH   9  12
ATOM     12  O   UNL     1      10.373   2.376  21.555  0.00  0.00    -0.254 OA
ATOM     13  H   UNL     1      10.124   3.236  21.958  0.00  0.00    +0.244 HD
ENDBRANCH   9  12
ENDBRANCH   8   9
ENDBRANCH   1   8
TORSDOF 5
ENDMDL
MODEL 4
REMARK VINA RESULT:      -4.2      3.383      4.438
REMARK  Name = 
REMARK  6 active torsions:
REMARK  status: ('A' for Active; 'I' for Inactive)
REMARK    1  A    between atoms: C_1  and  C_2
REMARK    2  A    between atoms: N_4  and  C_5
REMARK    3  A    between atoms: C_5  and  C_6
REMARK    4  A    between atoms: C_6  and  C_7
REMARK    5  A    between atoms: C_7  and  S_8
REMARK    6  A    between atoms: S_8  and  O_9
REMARK                            x       y       z     vdW  Elec       q    Type
REMARK                         _______ _______ _______ _____ _____    ______ ____
ROOT
ATOM      1  C   UNL     1       9.165   4.466  24.551  0.00  0.00    +0.044 C 
ENDROOT
BRANCH   1   2
ATOM      2  C   UNL     1       9.840   5.770  24.143  0.00  0.00    +0.106 C 
BRANCH   2   5
ATOM      3  C   UNL     1      13.161   5.446  22.367  0.00  0.00    +0.109 C 
ATOM      4  C   UNL     1      12.222   5.718  23.511  0.00  0.00    +0.210 C 
ATOM      5  N   UNL     1      10.896   5.550  23.180  0.00  0.00    -0.315 N 
ATOM      6  H   UNL     1      10.658   5.191  22.264  0.00  0.00    +0.149 HD
ATOM      7  O   UNL     1      12.609   6.066  24.620  0.00  0.00    -0.276 OA
ENDBRANCH   2   5
ENDBRANCH   1   2
BRANCH   1   8
ATOM      8  C   UNL     1       8.796   3.653  23.319  0.00  0.00    +0.199 C 
BRANCH   8   9
ATOM      9  S   UNL     1       9.805   2.192  23.173  0.00  0.00    +0.080 S 
ATOM     10  O   UNL     1       9.008   1.010  23.397  0.00  0.00    -0.147 OA
ATOM     11  O   UNL     1      11.078   2.417  23.821  0.00  0.00    -0.147 OA
BRANCH   9  12
ATOM     12  O   UNL     1      10.104   2.304  21.589  0.00  0.00    -0.254 OA
ATOM     13  H   UNL     1       9.412   2.875  21.189  0.00  0.00    +0.244 HD
ENDBRANCH   9  12
ENDBRANCH   8   9
ENDBRANCH   1   8
TORSDOF 5
ENDMDL
MODEL 5
REMARK VINA RESULT:      -4.2      2.908      3.718
REMARK  Name = 
REMARK  6 active torsions:
REMARK  status: ('A' for Active; 'I' for Inactive)
REMARK    1  A    between atoms: C_1  and  C_2
REMARK    2  A    between atoms: N_4  and  C_5
REMARK    3  A    between atoms: C_5  and  C_6
REMARK    4  A    between atoms: C_6  and  C_7
REMARK    5  A    between atoms: C_7  and  S_8
REMARK    6  A    between atoms: S_8  and  O_9
REMARK                            x       y       z     vdW  Elec       q    Type
REMARK                         _______ _______ _______ _____ _____    ______ ____
ROOT
ATOM      1  C   UNL     1       8.758  -2.667  23.944  0.00  0.00    +0.044 C 
ENDROOT
BRANCH   1   2
ATOM      2  C   UNL     1      10.105  -2.228  23.384  0.00  0.00    +0.106 C 
BRANCH   2   5
ATOM      3  C   UNL     1       9.959   1.345  22.158  0.00  0.00    +0.109 C 
ATOM      4  C   UNL     1       9.784  -0.149  22.100  0.00  0.00    +0.210 C 
ATOM      5  N   UNL     1      10.190  -0.791  23.249  0.00  0.00    -0.315 N 
ATOM      6  H   UNL     1      10.482  -0.239  24.045  0.00  0.00    +0.149 HD
ATOM      7  O   UNL     1       9.335  -0.727  21.118  0.00  0.00    -0.276 OA
ENDBRANCH   2   5
ENDBRANCH   1   2
BRANCH   1   8
ATOM      8  C   UNL     1       8.944  -3.368  25.281  0.00  0.00    +0.199 C 
BRANCH   8   9
ATOM      9  S   UNL     1       8.832  -5.139  25.113  0.00  0.00    +0.080 S 
ATOM     10  O   UNL     1       8.534  -5.493  23.746  0.00  0.00    -0.147 OA
ATOM     11  O   UNL     1       8.113  -5.686  26.242  0.00  0.00    -0.147 OA
BRANCH   9  12
ATOM     12  O   UNL     1      10.388  -5.473  25.390  0.00  0.00    -0.254 OA
ATOM     13  H   UNL     1      10.932  -4.850  24.860  0.00  0.00    +0.244 HD
ENDBRANCH   9  12
ENDBRANCH   8   9
ENDBRANCH   1   8
TORSDOF 5
ENDMDL
MODEL 6
REMARK VINA RESULT:      -4.2      3.351      4.480
REMARK  Name = 
REMARK  6 active torsions:
REMARK  status: ('A' for Active; 'I' for Inactive)
REMARK    1  A    between atoms: C_1  and  C_2
REMARK    2  A    between atoms: N_4  and  C_5
REMARK    3  A    between atoms: C_5  and  C_6
REMARK    4  A    between atoms: C_6  and  C_7
REMARK    5  A    between atoms: C_7  and  S_8
REMARK    6  A    between atoms: S_8  and  O_9
REMARK                            x       y       z     vdW  Elec       q    Type
REMARK                         _______ _______ _______ _____ _____    ______ ____
ROOT
ATOM      1  C   UNL     1       7.262  -4.161  23.648  0.00  0.00    +0.044 C 
ENDROOT
BRANCH   1   2
ATOM      2  C   UNL     1       7.882  -3.092  22.758  0.00  0.00    +0.106 C 
BRANCH   2   5
ATOM      3  C   UNL     1      10.158  -0.521  24.339  0.00  0.00    +0.109 C 
ATOM      4  C   UNL     1       9.776  -1.675  23.451  0.00  0.00    +0.210 C 
ATOM      5  N   UNL     1       8.441  -2.006  23.531  0.00  0.00    -0.315 N 
ATOM      6  H   UNL     1       7.822  -1.428  24.085  0.00  0.00    +0.149 HD
ATOM      7  O   UNL     1      10.583  -2.263  22.742  0.00  0.00    -0.276 OA
ENDBRANCH   2   5
ENDBRANCH   1   2
BRANCH   1   8
ATOM      8  C   UNL     1       8.329  -5.132  24.131  0.00  0.00    +0.199 C 
BRANCH   8   9
ATOM      9  S   UNL     1       8.651  -4.937  25.874  0.00  0.00    +0.080 S 
ATOM     10  O   UNL     1       7.821  -5.836  26.638  0.00  0.00    -0.147 OA
ATOM     11  O   UNL     1       8.784  -3.532  26.185  0.00  0.00    -0.147 OA
BRANCH   9  12
ATOM     12  O   UNL     1      10.157  -5.523  25.873  0.00  0.00    -0.254 OA
ATOM     13  H   UNL     1      10.189  -6.276  25.243  0.00  0.00    +0.244 HD
ENDBRANCH   9  12
ENDBRANCH   8   9
ENDBRANCH   1   8
TORSDOF 5
ENDMDL
MODEL 7
REMARK VINA RESULT:      -4.1      5.888      7.023
REMARK  Name = 
REMARK  6 active torsions:
REMARK  status: ('A' for Active; 'I' for Inactive)
REMARK    1  A    between atoms: C_1  and  C_2
REMARK    2  A    between atoms: N_4  and  C_5
REMARK    3  A    between atoms: C_5  and  C_6
REMARK    4  A    between atoms: C_6  and  C_7
REMARK    5  A    between atoms: C_7  and  S_8
REMARK    6  A    between atoms: S_8  and  O_9
REMARK                            x       y       z     vdW  Elec       q    Type
REMARK                         _______ _______ _______ _____ _____    ______ ____
ROOT
ATOM      1  C   UNL     1       5.848  -3.501  25.972  0.00  0.00    +0.044 C 
ENDROOT
BRANCH   1   2
ATOM      2  C   UNL     1       6.674  -3.164  24.737  0.00  0.00    +0.106 C 
BRANCH   2   5
ATOM      3  C   UNL     1       7.182  -5.969  22.255  0.00  0.00    +0.109 C 
ATOM      4  C   UNL     1       7.543  -5.016  23.362  0.00  0.00    +0.210 C 
ATOM      5  N   UNL     1       6.519  -4.158  23.699  0.00  0.00    -0.315 N 
ATOM      6  H   UNL     1       5.614  -4.277  23.263  0.00  0.00    +0.149 HD
ATOM      7  O   UNL     1       8.645  -5.004  23.896  0.00  0.00    -0.276 OA
ENDBRANCH   2   5
ENDBRANCH   1   2
BRANCH   1   8
ATOM      8  C   UNL     1       6.755  -3.946  27.110  0.00  0.00    +0.199 C 
BRANCH   8   9
ATOM      9  S   UNL     1       6.877  -5.722  27.194  0.00  0.00    +0.080 S 
ATOM     10  O   UNL     1       6.032  -6.328  26.195  0.00  0.00    -0.147 OA
ATOM     11  O   UNL     1       6.883  -6.140  28.578  0.00  0.00    -0.147 OA
BRANCH   9  12
ATOM     12  O   UNL     1       8.410  -5.848  26.699  0.00  0.00    -0.254 OA
ATOM     13  H   UNL     1       8.646  -5.020  26.228  0.00  0.00    +0.244 HD
ENDBRANCH   9  12
ENDBRANCH   8   9
ENDBRANCH   1   8
TORSDOF 5
ENDMDL
MODEL 8
REMARK VINA RESULT:      -4.1      1.679      2.112
REMARK  Name = 
REMARK  6 active torsions:
REMARK  status: ('A' for Active; 'I' for Inactive)
REMARK    1  A    between atoms: C_1  and  C_2
REMARK    2  A    between atoms: N_4  and  C_5
REMARK    3  A    between atoms: C_5  and  C_6
REMARK    4  A    between atoms: C_6  and  C_7
REMARK    5  A    between atoms: C_7  and  S_8
REMARK    6  A    between atoms: S_8  and  O_9
REMARK                            x       y       z     vdW  Elec       q    Type
REMARK                         _______ _______ _______ _____ _____    ______ ____
ROOT
ATOM      1  C   UNL     1       7.284  -1.039  23.630  0.00  0.00    +0.044 C 
ENDROOT
BRANCH   1   2
ATOM      2  C   UNL     1       7.244   0.218  22.771  0.00  0.00    +0.106 C 
BRANCH   2   5
ATOM      3  C   UNL     1      10.274   2.460  23.061  0.00  0.00    +0.109 C 
ATOM      4  C   UNL     1       9.372   1.420  22.452  0.00  0.00    +0.210 C 
ATOM      5  N   UNL     1       8.233   1.187  23.189  0.00  0.00    -0.315 N 
ATOM      6  H   UNL     1       8.045   1.761  24.002  0.00  0.00    +0.149 HD
ATOM      7  O   UNL     1       9.641   0.836  21.410  0.00  0.00    -0.276 OA
ENDBRANCH   2   5
ENDBRANCH   1   2
BRANCH   1   8
ATOM      8  C   UNL     1       8.156  -2.100  22.975  0.00  0.00    +0.199 C 
BRANCH   8   9
ATOM      9  S   UNL     1       9.765  -2.188  23.736  0.00  0.00    +0.080 S 
ATOM     10  O   UNL     1      10.058  -3.544  24.130  0.00  0.00    -0.147 OA
ATOM     11  O   UNL     1       9.943  -1.056  24.619  0.00  0.00    -0.147 OA
BRANCH   9  12
ATOM     12  O   UNL     1      10.636  -1.848  22.419  0.00  0.00    -0.254 OA
ATOM     13  H   UNL     1      10.134  -1.196  21.882  0.00  0.00    +0.244 HD
ENDBRANCH   9  12
ENDBRANCH   8   9
ENDBRANCH   1   8
TORSDOF 5
ENDMDL
MODEL 9
REMARK VINA RESULT:      -3.9      1.429      2.076
REMARK  Name = 
REMARK  6 active torsions:
REMARK  status: ('A' for Active; 'I' for Inactive)
REMARK    1  A    between atoms: C_1  and  C_2
REMARK    2  A    between atoms: N_4  and  C_5
REMARK    3  A    between atoms: C_5  and  C_6
REMARK    4  A    between atoms: C_6  and  C_7
REMARK    5  A    between atoms: C_7  and  S_8
REMARK    6  A    between atoms: S_8  and  O_9
REMARK                            x       y       z     vdW  Elec       q    Type
REMARK                         _______ _______ _______ _____ _____    ______ ____
ROOT
ATOM      1  C   UNL     1       9.436  -0.717  21.536  0.00  0.00    +0.044 C 
ENDROOT
BRANCH   1   2
ATOM      2  C   UNL     1       9.631   0.781  21.734  0.00  0.00    +0.106 C 
BRANCH   2   5
ATOM      3  C   UNL     1       8.522   2.349  24.990  0.00  0.00    +0.109 C 
ATOM      4  C   UNL     1       9.485   1.915  23.917  0.00  0.00    +0.210 C 
ATOM      5  N   UNL     1       8.873   1.277  22.861  0.00  0.00    -0.315 N 
ATOM      6  H   UNL     1       7.863   1.222  22.836  0.00  0.00    +0.149 HD
ATOM      7  O   UNL     1      10.692   2.105  23.993  0.00  0.00    -0.276 OA
ENDBRANCH   2   5
ENDBRANCH   1   2
BRANCH   1   8
ATOM      8  C   UNL     1      10.314  -1.497  22.503  0.00  0.00    +0.199 C 
BRANCH   8   9
ATOM      9  S   UNL     1       9.339  -2.358  23.723  0.00  0.00    +0.080 S 
ATOM     10  O   UNL     1       8.709  -1.415  24.614  0.00  0.00    -0.147 OA
ATOM     11  O   UNL     1      10.065  -3.518  24.189  0.00  0.00    -0.147 OA
BRANCH   9  12
ATOM     12  O   UNL     1       8.210  -2.931  22.719  0.00  0.00    -0.254 OA
ATOM     13  H   UNL     1       7.462  -3.264  23.261  0.00  0.00    +0.244 HD
ENDBRANCH   9  12
ENDBRANCH   8   9
ENDBRANCH   1   8
TORSDOF 5
ENDMDL
