MODEL 1
REMARK VINA RESULT:      -5.8      0.000      0.000
REMARK  Name = 
REMARK  6 active torsions:
REMARK  status: ('A' for Active; 'I' for Inactive)
REMARK    1  A    between atoms: C_1  and  C_2
REMARK    2  A    between atoms: C_2  and  C_4
REMARK    3  A    between atoms: C_4  and  N_5
REMARK    4  A    between atoms: C_6  and  O_8
REMARK    5  A    between atoms: O_8  and  C_9
REMARK    6  A    between atoms: C_9  and  C_10
REMARK                            x       y       z     vdW  Elec       q    Type
REMARK                         _______ _______ _______ _____ _____    ______ ____
ROOT
ATOM      1  N   UNL     1       7.752  -4.120  23.879  0.00  0.00    -0.274 N 
ATOM      2  H   UNL     1       7.639  -5.126  23.957  0.00  0.00    +0.152 HD
ATOM      3  C   UNL     1       9.004  -3.721  24.233  0.00  0.00    +0.401 C 
ATOM      4  O   UNL     1       9.835  -4.536  24.619  0.00  0.00    -0.226 OA
ENDROOT
BRANCH   1   5
ATOM      5  C   UNL     1       6.952  -3.490  22.853  0.00  0.00    +0.181 C 
BRANCH   5   7
ATOM      6  C   UNL     1       7.205  -5.946  22.095  0.00  0.00    +0.087 C 
ATOM      7  C   UNL     1       6.580  -4.598  21.878  0.00  0.00    +0.147 C 
ATOM      8  O   UNL     1       5.759  -4.408  20.976  0.00  0.00    -0.296 OA
ENDBRANCH   5   7
ENDBRANCH   1   5
BRANCH   3   9
ATOM      9  O   UNL     1       9.179  -2.381  24.189  0.00  0.00    -0.446 OA
BRANCH   9  10
ATOM     10  C   UNL     1      10.190  -1.946  23.268  0.00  0.00    +0.269 C 
BRANCH  10  11
ATOM     11  C   UNL     1      10.192  -0.446  23.148  0.00  0.00    -0.010 A 
ATOM     12  C   UNL     1       9.809   0.167  21.947  0.00  0.00    +0.007 A 
ATOM     13  C   UNL     1       9.847   1.556  21.818  0.00  0.00    +0.000 A 
ATOM     14  C   UNL     1      10.262   2.345  22.890  0.00  0.00    +0.000 A 
ATOM     15  C   UNL     1      10.634   1.746  24.093  0.00  0.00    +0.000 A 
ATOM     16  C   UNL     1      10.596   0.358  24.223  0.00  0.00    +0.007 A 
ENDBRANCH  10  11
ENDBRANCH   9  10
ENDBRANCH   3   9
TORSDOF 5
ENDMDL
MODEL 2
REMARK VINA RESULT:      -5.5      1.535      2.844
REMARK  Name = 
REMARK  6 active torsions:
REMARK  status: ('A' for Active; 'I' for Inactive)
REMARK    1  A    between atoms: C_1  and  C_2
REMARK    2  A    between atoms: C_2  and  C_4
REMARK    3  A    between atoms: C_4  and  N_5
REMARK    4  A    between atoms: C_6  and  O_8
REMARK    5  A    between atoms: O_8  and  C_9
REMARK    6  A    between atoms: C_9  and  C_10
REMARK                            x       y       z     vdW  Elec       q    Type
REMARK                         _______ _______ _______ _____ _____    ______ ____
ROOT
ATOM      1  N   UNL     1       7.228  -3.661  24.083  0.00  0.00    -0.274 N 
ATOM      2  H   UNL     1       6.563  -3.676  24.850  0.00  0.00    +0.152 HD
ATOM      3  C   UNL     1       7.727  -2.413  23.867  0.00  0.00    +0.401 C 
ATOM      4  O   UNL     1       7.345  -1.461  24.541  0.00  0.00    -0.226 OA
ENDROOT
BRANCH   1   5
ATOM      5  C   UNL     1       7.976  -4.884  23.896  0.00  0.00    +0.181 C 
BRANCH   5   7
ATOM      6  C   UNL     1       8.189  -5.220  26.448  0.00  0.00    +0.087 C 
ATOM      7  C   UNL     1       8.866  -5.018  25.123  0.00  0.00    +0.147 C 
ATOM      8  O   UNL     1      10.097  -5.012  25.025  0.00  0.00    -0.296 OA
ENDBRANCH   5   7
ENDBRANCH   1   5
BRANCH   3   9
ATOM      9  O   UNL     1       8.580  -2.343  22.822  0.00  0.00    -0.446 OA
BRANCH   9  10
ATOM     10  C   UNL     1       9.918  -1.962  23.174  0.00  0.00    +0.269 C 
BRANCH  10  11
ATOM     11  C   UNL     1      10.087  -0.469  23.086  0.00  0.00    -0.010 A 
ATOM     12  C   UNL     1      10.516   0.260  24.205  0.00  0.00    +0.007 A 
ATOM     13  C   UNL     1      10.635   1.648  24.141  0.00  0.00    +0.000 A 
ATOM     14  C   UNL     1      10.333   2.321  22.958  0.00  0.00    +0.000 A 
ATOM     15  C   UNL     1       9.917   1.605  21.836  0.00  0.00    +0.000 A 
ATOM     16  C   UNL     1       9.797   0.216  21.898  0.00  0.00    +0.007 A 
ENDBRANCH  10  11
ENDBRANCH   9  10
ENDBRANCH   3   9
TORSDOF 5
ENDMDL
MODEL 3
REMARK VINA RESULT:      -5.4      1.915      3.043
REMARK  Name = 
REMARK  6 active torsions:
REMARK  status: ('A' for Active; 'I' for Inactive)
REMARK    1  A    between atoms: C_1  and  C_2
REMARK    2  A    between atoms: C_2  and  C_4
REMARK    3  A    between atoms: C_4  and  N_5
REMARK    4  A    between atoms: C_6  and  O_8
REMARK    5  A    between atoms: O_8  and  C_9
REMARK    6  A    between atoms: C_9  and  C_10
REMARK                            x       y       z     vdW  Elec       q    Type
REMARK                         _______ _______ _______ _____ _____    ______ ____
ROOT
ATOM      1  N   UNL     1       7.419  -2.504  24.174  0.00  0.00    -0.274 N 
ATOM      2  H   UNL     1       7.026  -3.059  24.928  0.00  0.00    +0.152 HD
ATOM      3  C   UNL     1       8.438  -3.151  23.544  0.00  0.00    +0.401 C 
ATOM      4  O   UNL     1       8.801  -4.261  23.919  0.00  0.00    -0.226 OA
ENDROOT
BRANCH   1   5
ATOM      5  C   UNL     1       6.490  -1.610  23.521  0.00  0.00    +0.181 C 
BRANCH   5   7
ATOM      6  C   UNL     1       7.301  -0.158  25.497  0.00  0.00    +0.087 C 
ATOM      7  C   UNL     1       6.770  -0.228  24.094  0.00  0.00    +0.147 C 
ATOM      8  O   UNL     1       6.615   0.790  23.414  0.00  0.00    -0.296 OA
ENDBRANCH   5   7
ENDBRANCH   1   5
BRANCH   3   9
ATOM      9  O   UNL     1       9.020  -2.423  22.564  0.00  0.00    -0.446 OA
BRANCH   9  10
ATOM     10  C   UNL     1      10.293  -1.865  22.919  0.00  0.00    +0.269 C 
BRANCH  10  11
ATOM     11  C   UNL     1      10.231  -0.361  22.928  0.00  0.00    -0.010 A 
ATOM     12  C   UNL     1      10.643   0.357  24.060  0.00  0.00    +0.007 A 
ATOM     13  C   UNL     1      10.549   1.748  24.088  0.00  0.00    +0.000 A 
ATOM     14  C   UNL     1      10.049   2.436  22.984  0.00  0.00    +0.000 A 
ATOM     15  C   UNL     1       9.647   1.734  21.849  0.00  0.00    +0.000 A 
ATOM     16  C   UNL     1       9.740   0.342  21.818  0.00  0.00    +0.007 A 
ENDBRANCH  10  11
ENDBRANCH   9  10
ENDBRANCH   3   9
TORSDOF 5
ENDMDL
MODEL 4
REMARK VINA RESULT:      -5.3      0.909      1.608
REMARK  Name = 
REMARK  6 active torsions:
REMARK  status: ('A' for Active; 'I' for Inactive)
REMARK    1  A    between atoms: C_1  and  C_2
REMARK    2  A    between atoms: C_2  and  C_4
REMARK    3  A    between atoms: C_4  and  N_5
REMARK    4  A    between atoms: C_6  and  O_8
REMARK    5  A    between atoms: O_8  and  C_9
REMARK    6  A    between atoms: C_9  and  C_10
REMARK                            x       y       z     vdW  Elec       q    Type
REMARK                         _______ _______ _______ _____ _____    ______ ____
ROOT
ATOM      1  N   UNL     1       7.427  -4.547  23.929  0.00  0.00    -0.274 N 
ATOM      2  H   UNL     1       7.266  -5.285  24.607  0.00  0.00    +0.152 HD
ATOM      3  C   UNL     1       8.357  -3.652  24.362  0.00  0.00    +0.401 C 
ATOM      4  O   UNL     1       8.875  -3.774  25.468  0.00  0.00    -0.226 OA
ENDROOT
BRANCH   1   5
ATOM      5  C   UNL     1       7.243  -4.932  22.548  0.00  0.00    +0.181 C 
BRANCH   5   7
ATOM      6  C   UNL     1       4.741  -5.457  22.918  0.00  0.00    +0.087 C 
ATOM      7  C   UNL     1       5.787  -4.632  22.223  0.00  0.00    +0.147 C 
ATOM      8  O   UNL     1       5.477  -3.713  21.460  0.00  0.00    -0.296 OA
ENDBRANCH   5   7
ENDBRANCH   1   5
BRANCH   3   9
ATOM      9  O   UNL     1       8.564  -2.627  23.506  0.00  0.00    -0.446 OA
BRANCH   9  10
ATOM     10  C   UNL     1       9.937  -2.232  23.375  0.00  0.00    +0.269 C 
BRANCH  10  11
ATOM     11  C   UNL     1      10.047  -0.744  23.178  0.00  0.00    -0.010 A 
ATOM     12  C   UNL     1      10.478   0.078  24.230  0.00  0.00    +0.007 A 
ATOM     13  C   UNL     1      10.542   1.461  24.066  0.00  0.00    +0.000 A 
ATOM     14  C   UNL     1      10.184   2.037  22.848  0.00  0.00    +0.000 A 
ATOM     15  C   UNL     1       9.766   1.229  21.792  0.00  0.00    +0.000 A 
ATOM     16  C   UNL     1       9.700  -0.155  21.954  0.00  0.00    +0.007 A 
ENDBRANCH  10  11
ENDBRANCH   9  10
ENDBRANCH   3   9
TORSDOF 5
ENDMDL
MODEL 5
REMARK VINA RESULT:      -5.3      1.744      2.602
REMARK  Name = 
REMARK  6 active torsions:
REMARK  status: ('A' for Active; 'I' for Inactive)
REMARK    1  A    between atoms: C_1  and  C_2
REMARK    2  A    between atoms: C_2  and  C_4
REMARK    3  A    between atoms: C_4  and  N_5
REMARK    4  A    between atoms: C_6  and  O_8
REMARK    5  A    between atoms: O_8  and  C_9
REMARK    6  A    between atoms: C_9  and  C_10
REMARK                            x       y       z     vdW  Elec       q    Type
REMARK                         _______ _______ _______ _____ _____    ______ ____
ROOT
ATOM      1  N   UNL     1       8.649  -2.905  23.285  0.00  0.00    -0.274 N 
ATOM      2  H   UNL     1       9.222  -3.535  23.837  0.00  0.00    +0.152 HD
ATOM      3  C   UNL     1       9.402  -2.003  22.597  0.00  0.00    +0.401 C 
ATOM      4  O   UNL     1      10.624  -1.995  22.707  0.00  0.00    -0.226 OA
ENDROOT
BRANCH   1   5
ATOM      5  C   UNL     1       7.406  -3.467  22.805  0.00  0.00    +0.181 C 
BRANCH   5   7
ATOM      6  C   UNL     1       6.567  -5.844  22.238  0.00  0.00    +0.087 C 
ATOM      7  C   UNL     1       7.534  -4.973  22.989  0.00  0.00    +0.147 C 
ATOM      8  O   UNL     1       8.429  -5.459  23.686  0.00  0.00    -0.296 OA
ENDBRANCH   5   7
ENDBRANCH   1   5
BRANCH   3   9
ATOM      9  O   UNL     1       8.671  -1.115  21.887  0.00  0.00    -0.446 OA
BRANCH   9  10
ATOM     10  C   UNL     1       9.441  -0.069  21.276  0.00  0.00    +0.269 C 
BRANCH  10  11
ATOM     11  C   UNL     1       9.147   1.257  21.926  0.00  0.00    -0.010 A 
ATOM     12  C   UNL     1      10.064   1.820  22.825  0.00  0.00    +0.007 A 
ATOM     13  C   UNL     1       9.779   3.029  23.461  0.00  0.00    +0.000 A 
ATOM     14  C   UNL     1       8.580   3.689  23.200  0.00  0.00    +0.000 A 
ATOM     15  C   UNL     1       7.666   3.143  22.299  0.00  0.00    +0.000 A 
ATOM     16  C   UNL     1       7.949   1.935  21.662  0.00  0.00    +0.007 A 
ENDBRANCH  10  11
ENDBRANCH   9  10
ENDBRANCH   3   9
TORSDOF 5
ENDMDL
MODEL 6
REMARK VINA RESULT:      -5.2      1.746      2.464
REMARK  Name = 
REMARK  6 active torsions:
REMARK  status: ('A' for Active; 'I' for Inactive)
REMARK    1  A    between atoms: C_1  and  C_2
REMARK    2  A    between atoms: C_2  and  C_4
REMARK    3  A    between atoms: C_4  and  N_5
REMARK    4  A    between atoms: C_6  and  O_8
REMARK    5  A    between atoms: O_8  and  C_9
REMARK    6  A    between atoms: C_9  and  C_10
REMARK                            x       y       z     vdW  Elec       q    Type
REMARK                         _______ _______ _______ _____ _____    ______ ____
ROOT
ATOM      1  N   UNL     1       7.994  -4.639  23.421  0.00  0.00    -0.274 N 
ATOM      2  H   UNL     1       7.298  -5.272  23.039  0.00  0.00    +0.152 HD
ATOM      3  C   UNL     1       7.847  -3.373  22.943  0.00  0.00    +0.401 C 
ATOM      4  O   UNL     1       6.971  -3.111  22.124  0.00  0.00    -0.226 OA
ENDROOT
BRANCH   1   5
ATOM      5  C   UNL     1       8.451  -4.961  24.754  0.00  0.00    +0.181 C 
BRANCH   5   7
ATOM      6  C   UNL     1       7.234  -4.666  27.013  0.00  0.00    +0.087 C 
ATOM      7  C   UNL     1       7.193  -5.146  25.590  0.00  0.00    +0.147 C 
ATOM      8  O   UNL     1       6.165  -5.624  25.103  0.00  0.00    -0.296 OA
ENDBRANCH   5   7
ENDBRANCH   1   5
BRANCH   3   9
ATOM      9  O   UNL     1       8.786  -2.510  23.392  0.00  0.00    -0.446 OA
BRANCH   9  10
ATOM     10  C   UNL     1       9.534  -1.858  22.355  0.00  0.00    +0.269 C 
BRANCH  10  11
ATOM     11  C   UNL     1       9.850  -0.437  22.741  0.00  0.00    -0.010 A 
ATOM     12  C   UNL     1       9.694   0.598  21.808  0.00  0.00    +0.007 A 
ATOM     13  C   UNL     1      10.024   1.910  22.147  0.00  0.00    +0.000 A 
ATOM     14  C   UNL     1      10.505   2.202  23.422  0.00  0.00    +0.000 A 
ATOM     15  C   UNL     1      10.653   1.182  24.361  0.00  0.00    +0.000 A 
ATOM     16  C   UNL     1      10.324  -0.131  24.024  0.00  0.00    +0.007 A 
ENDBRANCH  10  11
ENDBRANCH   9  10
ENDBRANCH   3   9
TORSDOF 5
ENDMDL
MODEL 7
REMARK VINA RESULT:      -5.2      3.706      5.435
REMARK  Name = 
REMARK  6 active torsions:
REMARK  status: ('A' for Active; 'I' for Inactive)
REMARK    1  A    between atoms: C_1  and  C_2
REMARK    2  A    between atoms: C_2  and  C_4
REMARK    3  A    between atoms: C_4  and  N_5
REMARK    4  A    between atoms: C_6  and  O_8
REMARK    5  A    between atoms: O_8  and  C_9
REMARK    6  A    between atoms: C_9  and  C_10
REMARK                            x       y       z     vdW  Elec       q    Type
REMARK                         _______ _______ _______ _____ _____    ______ ____
ROOT
ATOM      1  N   UNL     1       9.607   3.145  22.581  0.00  0.00    -0.274 N 
ATOM      2  H   UNL     1       9.896   3.811  21.871  0.00  0.00    +0.152 HD
ATOM      3  C   UNL     1      10.570   2.959  23.525  0.00  0.00    +0.401 C 
ATOM      4  O   UNL     1      11.648   3.540  23.442  0.00  0.00    -0.226 OA
ENDROOT
BRANCH   1   5
ATOM      5  C   UNL     1       8.186   3.107  22.844  0.00  0.00    +0.181 C 
BRANCH   5   7
ATOM      6  C   UNL     1       6.741   0.969  22.966  0.00  0.00    +0.087 C 
ATOM      7  C   UNL     1       7.674   1.840  22.174  0.00  0.00    +0.147 C 
ATOM      8  O   UNL     1       7.973   1.567  21.008  0.00  0.00    -0.296 OA
ENDBRANCH   5   7
ENDBRANCH   1   5
BRANCH   3   9
ATOM      9  O   UNL     1      10.242   2.042  24.462  0.00  0.00    -0.446 OA
BRANCH   9  10
ATOM     10  C   UNL     1      11.023   0.839  24.413  0.00  0.00    +0.269 C 
BRANCH  10  11
ATOM     11  C   UNL     1      10.204  -0.307  23.884  0.00  0.00    -0.010 A 
ATOM     12  C   UNL     1      10.240  -0.630  22.519  0.00  0.00    +0.007 A 
ATOM     13  C   UNL     1       9.451  -1.665  22.017  0.00  0.00    +0.000 A 
ATOM     14  C   UNL     1       8.625  -2.391  22.873  0.00  0.00    +0.000 A 
ATOM     15  C   UNL     1       8.590  -2.087  24.233  0.00  0.00    +0.000 A 
ATOM     16  C   UNL     1       9.378  -1.052  24.737  0.00  0.00    +0.007 A 
ENDBRANCH  10  11
ENDBRANCH   9  10
ENDBRANCH   3   9
TORSDOF 5
ENDMDL
MODEL 8
REMARK VINA RESULT:      -5.1      2.289      5.725
REMARK  Name = 
REMARK  6 active torsions:
REMARK  status: ('A' for Active; 'I' for Inactive)
REMARK    1  A    between atoms: C_1  and  C_2
REMARK    2  A    between atoms: C_2  and  C_4
REMARK    3  A    between atoms: C_4  and  N_5
REMARK    4  A    between atoms: C_6  and  O_8
REMARK    5  A    between atoms: O_8  and  C_9
REMARK    6  A    between atoms: C_9  and  C_10
REMARK                            x       y       z     vdW  Elec       q    Type
REMARK                         _______ _______ _______ _____ _____    ______ ____
ROOT
ATOM      1  N   UNL     1       8.656  -1.624  24.297  0.00  0.00    -0.274 N 
ATOM      2  H   UNL     1       8.281  -0.797  24.752  0.00  0.00    +0.152 HD
ATOM      3  C   UNL     1       8.749  -2.677  25.155  0.00  0.00    +0.401 C 
ATOM      4  O   UNL     1       8.426  -2.556  26.333  0.00  0.00    -0.226 OA
ENDROOT
BRANCH   1   5
ATOM      5  C   UNL     1       8.354  -1.741  22.889  0.00  0.00    +0.181 C 
BRANCH   5   7
ATOM      6  C   UNL     1       9.418   0.091  21.410  0.00  0.00    +0.087 C 
ATOM      7  C   UNL     1       9.575  -1.203  22.156  0.00  0.00    +0.147 C 
ATOM      8  O   UNL     1      10.664  -1.781  22.217  0.00  0.00    -0.296 OA
ENDBRANCH   5   7
ENDBRANCH   1   5
BRANCH   3   9
ATOM      9  O   UNL     1       9.290  -3.784  24.599  0.00  0.00    -0.446 OA
BRANCH   9  10
ATOM     10  C   UNL     1       8.640  -5.010  24.967  0.00  0.00    +0.269 C 
BRANCH  10  11
ATOM     11  C   UNL     1       7.440  -5.260  24.094  0.00  0.00    -0.010 A 
ATOM     12  C   UNL     1       7.601  -5.472  22.717  0.00  0.00    +0.007 A 
ATOM     13  C   UNL     1       6.489  -5.664  21.897  0.00  0.00    +0.000 A 
ATOM     14  C   UNL     1       5.208  -5.652  22.444  0.00  0.00    +0.000 A 
ATOM     15  C   UNL     1       5.037  -5.453  23.814  0.00  0.00    +0.000 A 
ATOM     16  C   UNL     1       6.148  -5.261  24.636  0.00  0.00    +0.007 A 
ENDBRANCH  10  11
ENDBRANCH   9  10
ENDBRANCH   3   9
TORSDOF 5
ENDMDL
MODEL 9
REMARK VINA RESULT:      -5.0      2.336      5.947
REMARK  Name = 
REMARK  6 active torsions:
REMARK  status: ('A' for Active; 'I' for Inactive)
REMARK    1  A    between atoms: C_1  and  C_2
REMARK    2  A    between atoms: C_2  and  C_4
REMARK    3  A    between atoms: C_4  and  N_5
REMARK    4  A    between atoms: C_6  and  O_8
REMARK    5  A    between atoms: O_8  and  C_9
REMARK    6  A    between atoms: C_9  and  C_10
REMARK                            x       y       z     vdW  Elec       q    Type
REMARK                         _______ _______ _______ _____ _____    ______ ____
ROOT
ATOM      1  N   UNL     1      10.121   0.166  25.389  0.00  0.00    -0.274 N 
ATOM      2  H   UNL     1       9.885   0.738  26.194  0.00  0.00    +0.152 HD
ATOM      3  C   UNL     1       9.133  -0.721  25.089  0.00  0.00    +0.401 C 
ATOM      4  O   UNL     1       8.118  -0.784  25.776  0.00  0.00    -0.226 OA
ENDROOT
BRANCH   1   5
ATOM      5  C   UNL     1      10.971   0.805  24.410  0.00  0.00    +0.181 C 
BRANCH   5   7
ATOM      6  C   UNL     1       9.966   1.762  22.232  0.00  0.00    +0.087 C 
ATOM      7  C   UNL     1      10.102   1.850  23.725  0.00  0.00    +0.147 C 
ATOM      8  O   UNL     1       9.493   2.703  24.376  0.00  0.00    -0.296 OA
ENDBRANCH   5   7
ENDBRANCH   1   5
BRANCH   3   9
ATOM      9  O   UNL     1       9.431  -1.535  24.052  0.00  0.00    -0.446 OA
BRANCH   9  10
ATOM     10  C   UNL     1       9.313  -2.935  24.345  0.00  0.00    +0.269 C 
BRANCH  10  11
ATOM     11  C   UNL     1       8.211  -3.558  23.532  0.00  0.00    -0.010 A 
ATOM     12  C   UNL     1       7.470  -2.778  22.632  0.00  0.00    +0.007 A 
ATOM     13  C   UNL     1       6.421  -3.342  21.906  0.00  0.00    +0.000 A 
ATOM     14  C   UNL     1       6.106  -4.690  22.066  0.00  0.00    +0.000 A 
ATOM     15  C   UNL     1       6.844  -5.478  22.949  0.00  0.00    +0.000 A 
ATOM     16  C   UNL     1       7.893  -4.916  23.676  0.00  0.00    +0.007 A 
ENDBRANCH  10  11
ENDBRANCH   9  10
ENDBRANCH   3   9
TORSDOF 5
ENDMDL
