MODEL 1
REMARK VINA RESULT:      -6.6      0.000      0.000
REMARK  Name = 
REMARK  3 active torsions:
REMARK  status: ('A' for Active; 'I' for Inactive)
REMARK    1  A    between atoms: N_1  and  S_2
REMARK    2  A    between atoms: S_2  and  C_5
REMARK    3  A    between atoms: C_10  and  C_14
REMARK                            x       y       z     vdW  Elec       q    Type
REMARK                         _______ _______ _______ _____ _____    ______ ____
ROOT
ATOM      1  C   UNL     1       9.200  -1.852  23.334  0.00  0.00    +0.107 A 
ATOM      2  C   UNL     1       9.483  -0.802  24.219  0.00  0.00    +0.058 A 
ATOM      3  C   UNL     1       9.784   0.450  23.675  0.00  0.00    +0.091 A 
ATOM      4  C   UNL     1       9.781   0.620  22.294  0.00  0.00    +0.067 A 
ATOM      5  N   UNL     1      10.118   1.938  22.123  0.00  0.00    -0.337 N 
ATOM      6  H   UNL     1      10.220   2.438  21.252  0.00  0.00    +0.167 HD
ATOM      7  C   UNL     1      10.315   2.495  23.362  0.00  0.00    +0.158 A 
ATOM      8  C   UNL     1       9.484  -0.408  21.395  0.00  0.00    +0.030 A 
ATOM      9  N   UNL     1      10.108   1.615  24.319  0.00  0.00    -0.226 NA
ATOM     10  C   UNL     1       9.189  -1.661  21.948  0.00  0.00    +0.030 A 
ENDROOT
BRANCH   7  11
ATOM     11  C   UNL     1      10.720   3.909  23.566  0.00  0.00    +0.113 A 
ATOM     12  N   UNL     1      12.007   4.341  23.292  0.00  0.00    -0.244 NA
ATOM     13  C   UNL     1      12.091   5.624  23.579  0.00  0.00    +0.156 A 
ATOM     14  S   UNL     1      10.664   6.371  24.171  0.00  0.00    -0.083 S 
ATOM     15  C   UNL     1       9.851   4.868  24.046  0.00  0.00    +0.078 A 
ENDBRANCH   7  11
BRANCH   1  16
ATOM     16  S   UNL     1       8.814  -3.436  24.019  0.00  0.00    +0.056 S 
ATOM     17  O   UNL     1       7.834  -4.093  23.184  0.00  0.00    -0.153 OA
ATOM     18  O   UNL     1      10.036  -4.083  24.432  0.00  0.00    -0.153 OA
BRANCH  16  19
ATOM     19  N   UNL     1       8.005  -3.015  25.430  0.00  0.00    -0.204 NA
ATOM     20  H   UNL     1       8.637  -3.073  26.226  0.00  0.00    +0.144 HD
ATOM     21  H   UNL     1       7.569  -2.100  25.309  0.00  0.00    +0.144 HD
ENDBRANCH  16  19
ENDBRANCH   1  16
TORSDOF 3
ENDMDL
MODEL 2
REMARK VINA RESULT:      -6.4      2.142      2.996
REMARK  Name = 
REMARK  3 active torsions:
REMARK  status: ('A' for Active; 'I' for Inactive)
REMARK    1  A    between atoms: N_1  and  S_2
REMARK    2  A    between atoms: S_2  and  C_5
REMARK    3  A    between atoms: C_10  and  C_14
REMARK                            x       y       z     vdW  Elec       q    Type
REMARK                         _______ _______ _______ _____ _____    ______ ____
ROOT
ATOM      1  C   UNL     1       8.602  -3.389  25.402  0.00  0.00    +0.107 A 
ATOM      2  C   UNL     1       9.316  -2.540  24.543  0.00  0.00    +0.058 A 
ATOM      3  C   UNL     1       9.234  -1.163  24.766  0.00  0.00    +0.091 A 
ATOM      4  C   UNL     1       8.471  -0.681  25.825  0.00  0.00    +0.067 A 
ATOM      5  N   UNL     1       8.611   0.681  25.740  0.00  0.00    -0.337 N 
ATOM      6  H   UNL     1       8.199   1.380  26.341  0.00  0.00    +0.167 HD
ATOM      7  C   UNL     1       9.417   0.963  24.666  0.00  0.00    +0.158 A 
ATOM      8  C   UNL     1       7.766  -1.509  26.703  0.00  0.00    +0.030 A 
ATOM      9  N   UNL     1       9.817  -0.139  24.066  0.00  0.00    -0.226 NA
ATOM     10  C   UNL     1       7.849  -2.888  26.469  0.00  0.00    +0.030 A 
ENDROOT
BRANCH   7  11
ATOM     11  C   UNL     1       9.770   2.345  24.250  0.00  0.00    +0.113 A 
ATOM     12  N   UNL     1      10.968   2.627  23.615  0.00  0.00    -0.244 NA
ATOM     13  C   UNL     1      11.025   3.921  23.379  0.00  0.00    +0.156 A 
ATOM     14  S   UNL     1       9.673   4.852  23.883  0.00  0.00    -0.083 S 
ATOM     15  C   UNL     1       8.938   3.422  24.476  0.00  0.00    +0.078 A 
ENDBRANCH   7  11
BRANCH   1  16
ATOM     16  S   UNL     1       8.708  -5.132  25.125  0.00  0.00    +0.056 S 
ATOM     17  O   UNL     1       7.972  -5.826  26.156  0.00  0.00    -0.153 OA
ATOM     18  O   UNL     1       8.511  -5.401  23.720  0.00  0.00    -0.153 OA
BRANCH  16  19
ATOM     19  N   UNL     1      10.331  -5.435  25.438  0.00  0.00    -0.204 NA
ATOM     20  H   UNL     1      10.879  -4.590  25.291  0.00  0.00    +0.144 HD
ATOM     21  H   UNL     1      10.425  -5.837  26.372  0.00  0.00    +0.144 HD
ENDBRANCH  16  19
ENDBRANCH   1  16
TORSDOF 3
ENDMDL
MODEL 3
REMARK VINA RESULT:      -6.3      3.682      6.945
REMARK  Name = 
REMARK  3 active torsions:
REMARK  status: ('A' for Active; 'I' for Inactive)
REMARK    1  A    between atoms: N_1  and  S_2
REMARK    2  A    between atoms: S_2  and  C_5
REMARK    3  A    between atoms: C_10  and  C_14
REMARK                            x       y       z     vdW  Elec       q    Type
REMARK                         _______ _______ _______ _____ _____    ______ ____
ROOT
ATOM      1  C   UNL     1       9.573   2.530  23.596  0.00  0.00    +0.107 A 
ATOM      2  C   UNL     1       9.270   1.678  24.668  0.00  0.00    +0.058 A 
ATOM      3  C   UNL     1       9.303   0.300  24.441  0.00  0.00    +0.091 A 
ATOM      4  C   UNL     1       9.645  -0.181  23.181  0.00  0.00    +0.067 A 
ATOM      5  N   UNL     1       9.570  -1.545  23.316  0.00  0.00    -0.337 N 
ATOM      6  H   UNL     1       9.748  -2.243  22.610  0.00  0.00    +0.167 HD
ATOM      7  C   UNL     1       9.190  -1.827  24.604  0.00  0.00    +0.158 A 
ATOM      8  C   UNL     1       9.968   0.648  22.103  0.00  0.00    +0.030 A 
ATOM      9  N   UNL     1       9.033  -0.726  25.308  0.00  0.00    -0.226 NA
ATOM     10  C   UNL     1       9.926   2.029  22.339  0.00  0.00    +0.030 A 
ENDROOT
BRANCH   7  11
ATOM     11  C   UNL     1       8.981  -3.208  25.110  0.00  0.00    +0.113 A 
ATOM     12  N   UNL     1       9.725  -4.275  24.634  0.00  0.00    -0.244 NA
ATOM     13  C   UNL     1       9.321  -5.373  25.238  0.00  0.00    +0.156 A 
ATOM     14  S   UNL     1       8.062  -5.194  26.391  0.00  0.00    -0.083 S 
ATOM     15  C   UNL     1       8.036  -3.511  26.068  0.00  0.00    +0.078 A 
ENDBRANCH   7  11
BRANCH   1  16
ATOM     16  S   UNL     1       9.537   4.274  23.884  0.00  0.00    +0.056 S 
ATOM     17  O   UNL     1       8.838   4.541  25.120  0.00  0.00    -0.153 OA
ATOM     18  O   UNL     1      10.839   4.828  23.596  0.00  0.00    -0.153 OA
BRANCH  16  19
ATOM     19  N   UNL     1       8.520   4.807  22.657  0.00  0.00    -0.204 NA
ATOM     20  H   UNL     1       7.646   4.285  22.676  0.00  0.00    +0.144 HD
ATOM     21  H   UNL     1       8.403   5.819  22.732  0.00  0.00    +0.144 HD
ENDBRANCH  16  19
ENDBRANCH   1  16
TORSDOF 3
ENDMDL
MODEL 4
REMARK VINA RESULT:      -6.2      4.157      7.871
REMARK  Name = 
REMARK  3 active torsions:
REMARK  status: ('A' for Active; 'I' for Inactive)
REMARK    1  A    between atoms: N_1  and  S_2
REMARK    2  A    between atoms: S_2  and  C_5
REMARK    3  A    between atoms: C_10  and  C_14
REMARK                            x       y       z     vdW  Elec       q    Type
REMARK                         _______ _______ _______ _____ _____    ______ ____
ROOT
ATOM      1  C   UNL     1       8.520   0.465  22.590  0.00  0.00    +0.107 A 
ATOM      2  C   UNL     1       7.328  -0.041  23.129  0.00  0.00    +0.058 A 
ATOM      3  C   UNL     1       7.107  -1.419  23.051  0.00  0.00    +0.091 A 
ATOM      4  C   UNL     1       8.067  -2.238  22.464  0.00  0.00    +0.067 A 
ATOM      5  N   UNL     1       7.527  -3.496  22.554  0.00  0.00    -0.337 N 
ATOM      6  H   UNL     1       7.931  -4.363  22.231  0.00  0.00    +0.167 HD
ATOM      7  C   UNL     1       6.301  -3.394  23.161  0.00  0.00    +0.158 A 
ATOM      8  C   UNL     1       9.269  -1.758  21.937  0.00  0.00    +0.030 A 
ATOM      9  N   UNL     1       6.029  -2.146  23.482  0.00  0.00    -0.226 NA
ATOM     10  C   UNL     1       9.480  -0.374  22.014  0.00  0.00    +0.030 A 
ENDROOT
BRANCH   7  11
ATOM     11  C   UNL     1       5.410  -4.558  23.404  0.00  0.00    +0.113 A 
ATOM     12  N   UNL     1       4.190  -4.684  22.760  0.00  0.00    -0.244 NA
ATOM     13  C   UNL     1       3.608  -5.791  23.173  0.00  0.00    +0.156 A 
ATOM     14  S   UNL     1       4.472  -6.727  24.323  0.00  0.00    -0.083 S 
ATOM     15  C   UNL     1       5.735  -5.570  24.284  0.00  0.00    +0.078 A 
ENDBRANCH   7  11
BRANCH   1  16
ATOM     16  S   UNL     1       8.804   2.207  22.692  0.00  0.00    +0.056 S 
ATOM     17  O   UNL     1       7.753   2.906  21.987  0.00  0.00    -0.153 OA
ATOM     18  O   UNL     1       9.188   2.546  24.042  0.00  0.00    -0.153 OA
BRANCH  16  19
ATOM     19  N   UNL     1      10.185   2.389  21.751  0.00  0.00    -0.204 NA
ATOM     20  H   UNL     1       9.963   2.234  20.770  0.00  0.00    +0.144 HD
ATOM     21  H   UNL     1      10.607   3.299  21.945  0.00  0.00    +0.144 HD
ENDBRANCH  16  19
ENDBRANCH   1  16
TORSDOF 3
ENDMDL
MODEL 5
REMARK VINA RESULT:      -6.1      3.361      4.561
REMARK  Name = 
REMARK  3 active torsions:
REMARK  status: ('A' for Active; 'I' for Inactive)
REMARK    1  A    between atoms: N_1  and  S_2
REMARK    2  A    between atoms: S_2  and  C_5
REMARK    3  A    between atoms: C_10  and  C_14
REMARK                            x       y       z     vdW  Elec       q    Type
REMARK                         _______ _______ _______ _____ _____    ______ ____
ROOT
ATOM      1  C   UNL     1       7.504  -4.584  26.502  0.00  0.00    +0.107 A 
ATOM      2  C   UNL     1       7.291  -3.209  26.326  0.00  0.00    +0.058 A 
ATOM      3  C   UNL     1       8.145  -2.519  25.462  0.00  0.00    +0.091 A 
ATOM      4  C   UNL     1       9.158  -3.206  24.800  0.00  0.00    +0.067 A 
ATOM      5  N   UNL     1       9.787  -2.236  24.061  0.00  0.00    -0.337 N 
ATOM      6  H   UNL     1      10.579  -2.350  23.446  0.00  0.00    +0.167 HD
ATOM      7  C   UNL     1       9.159  -1.040  24.301  0.00  0.00    +0.158 A 
ATOM      8  C   UNL     1       9.378  -4.579  24.947  0.00  0.00    +0.030 A 
ATOM      9  N   UNL     1       8.154  -1.187  25.139  0.00  0.00    -0.226 NA
ATOM     10  C   UNL     1       8.520  -5.262  25.820  0.00  0.00    +0.030 A 
ENDROOT
BRANCH   7  11
ATOM     11  C   UNL     1       9.588   0.244  23.689  0.00  0.00    +0.113 A 
ATOM     12  N   UNL     1       9.615   0.419  22.315  0.00  0.00    -0.244 NA
ATOM     13  C   UNL     1      10.048   1.635  22.054  0.00  0.00    +0.156 A 
ATOM     14  S   UNL     1      10.429   2.620  23.407  0.00  0.00    -0.083 S 
ATOM     15  C   UNL     1       9.990   1.327  24.443  0.00  0.00    +0.078 A 
ENDBRANCH   7  11
BRANCH   1  16
ATOM     16  S   UNL     1       6.422  -5.461  27.590  0.00  0.00    +0.056 S 
ATOM     17  O   UNL     1       7.201  -6.322  28.450  0.00  0.00    -0.153 OA
ATOM     18  O   UNL     1       5.428  -4.548  28.106  0.00  0.00    -0.153 OA
BRANCH  16  19
ATOM     19  N   UNL     1       5.614  -6.483  26.529  0.00  0.00    -0.204 NA
ATOM     20  H   UNL     1       4.654  -6.619  26.836  0.00  0.00    +0.144 HD
ATOM     21  H   UNL     1       5.701  -6.118  25.578  0.00  0.00    +0.144 HD
ENDBRANCH  16  19
ENDBRANCH   1  16
TORSDOF 3
ENDMDL
MODEL 6
REMARK VINA RESULT:      -5.9      4.047      5.363
REMARK  Name = 
REMARK  3 active torsions:
REMARK  status: ('A' for Active; 'I' for Inactive)
REMARK    1  A    between atoms: N_1  and  S_2
REMARK    2  A    between atoms: S_2  and  C_5
REMARK    3  A    between atoms: C_10  and  C_14
REMARK                            x       y       z     vdW  Elec       q    Type
REMARK                         _______ _______ _______ _____ _____    ______ ____
ROOT
ATOM      1  C   UNL     1       4.940  -5.041  23.201  0.00  0.00    +0.107 A 
ATOM      2  C   UNL     1       5.000  -3.666  23.472  0.00  0.00    +0.058 A 
ATOM      3  C   UNL     1       6.144  -2.969  23.074  0.00  0.00    +0.091 A 
ATOM      4  C   UNL     1       7.168  -3.644  22.417  0.00  0.00    +0.067 A 
ATOM      5  N   UNL     1       8.110  -2.673  22.188  0.00  0.00    -0.337 N 
ATOM      6  H   UNL     1       9.004  -2.780  21.731  0.00  0.00    +0.167 HD
ATOM      7  C   UNL     1       7.642  -1.492  22.704  0.00  0.00    +0.158 A 
ATOM      8  C   UNL     1       7.122  -5.009  22.121  0.00  0.00    +0.030 A 
ATOM      9  N   UNL     1       6.447  -1.643  23.237  0.00  0.00    -0.226 NA
ATOM     10  C   UNL     1       5.973  -5.702  22.529  0.00  0.00    +0.030 A 
ENDROOT
BRANCH   7  11
ATOM     11  C   UNL     1       8.410  -0.221  22.663  0.00  0.00    +0.113 A 
ATOM     12  N   UNL     1       9.302   0.054  21.640  0.00  0.00    -0.244 NA
ATOM     13  C   UNL     1       9.851   1.230  21.863  0.00  0.00    +0.156 A 
ATOM     14  S   UNL     1       9.335   2.060  23.275  0.00  0.00    -0.083 S 
ATOM     15  C   UNL     1       8.291   0.750  23.636  0.00  0.00    +0.078 A 
ENDBRANCH   7  11
BRANCH   1  16
ATOM     16  S   UNL     1       3.491  -5.924  23.698  0.00  0.00    +0.056 S 
ATOM     17  O   UNL     1       3.058  -5.444  24.991  0.00  0.00    -0.153 OA
ATOM     18  O   UNL     1       2.593  -6.032  22.573  0.00  0.00    -0.153 OA
BRANCH  16  19
ATOM     19  N   UNL     1       4.100  -7.467  23.963  0.00  0.00    -0.204 NA
ATOM     20  H   UNL     1       3.667  -7.877  24.788  0.00  0.00    +0.144 HD
ATOM     21  H   UNL     1       3.990  -8.024  23.114  0.00  0.00    +0.144 HD
ENDBRANCH  16  19
ENDBRANCH   1  16
TORSDOF 3
ENDMDL
MODEL 7
REMARK VINA RESULT:      -5.9      3.793      7.206
REMARK  Name = 
REMARK  3 active torsions:
REMARK  status: ('A' for Active; 'I' for Inactive)
REMARK    1  A    between atoms: N_1  and  S_2
REMARK    2  A    between atoms: S_2  and  C_5
REMARK    3  A    between atoms: C_10  and  C_14
REMARK                            x       y       z     vdW  Elec       q    Type
REMARK                         _______ _______ _______ _____ _____    ______ ____
ROOT
ATOM      1  C   UNL     1       9.389   2.085  23.839  0.00  0.00    +0.107 A 
ATOM      2  C   UNL     1       8.278   1.324  23.447  0.00  0.00    +0.058 A 
ATOM      3  C   UNL     1       8.432  -0.063  23.360  0.00  0.00    +0.091 A 
ATOM      4  C   UNL     1       9.658  -0.640  23.674  0.00  0.00    +0.067 A 
ATOM      5  N   UNL     1       9.451  -1.982  23.476  0.00  0.00    -0.337 N 
ATOM      6  H   UNL     1      10.116  -2.731  23.600  0.00  0.00    +0.167 HD
ATOM      7  C   UNL     1       8.157  -2.159  23.056  0.00  0.00    +0.158 A 
ATOM      8  C   UNL     1      10.772   0.097  24.084  0.00  0.00    +0.030 A 
ATOM      9  N   UNL     1       7.516  -1.011  22.988  0.00  0.00    -0.226 NA
ATOM     10  C   UNL     1      10.611   1.487  24.163  0.00  0.00    +0.030 A 
ENDROOT
BRANCH   7  11
ATOM     11  C   UNL     1       7.582  -3.487  22.717  0.00  0.00    +0.113 A 
ATOM     12  N   UNL     1       8.123  -4.659  23.217  0.00  0.00    -0.244 NA
ATOM     13  C   UNL     1       7.433  -5.677  22.745  0.00  0.00    +0.156 A 
ATOM     14  S   UNL     1       6.122  -5.295  21.705  0.00  0.00    -0.083 S 
ATOM     15  C   UNL     1       6.492  -3.632  21.885  0.00  0.00    +0.078 A 
ENDBRANCH   7  11
BRANCH   1  16
ATOM     16  S   UNL     1       9.195   3.839  23.955  0.00  0.00    +0.056 S 
ATOM     17  O   UNL     1       8.376   4.155  25.103  0.00  0.00    -0.153 OA
ATOM     18  O   UNL     1      10.471   4.472  23.718  0.00  0.00    -0.153 OA
BRANCH  16  19
ATOM     19  N   UNL     1       8.247   4.173  22.609  0.00  0.00    -0.204 NA
ATOM     20  H   UNL     1       7.267   3.994  22.818  0.00  0.00    +0.144 HD
ATOM     21  H   UNL     1       8.438   5.124  22.290  0.00  0.00    +0.144 HD
ENDBRANCH  16  19
ENDBRANCH   1  16
TORSDOF 3
ENDMDL
MODEL 8
REMARK VINA RESULT:      -5.9      1.936      2.450
REMARK  Name = 
REMARK  3 active torsions:
REMARK  status: ('A' for Active; 'I' for Inactive)
REMARK    1  A    between atoms: N_1  and  S_2
REMARK    2  A    between atoms: S_2  and  C_5
REMARK    3  A    between atoms: C_10  and  C_14
REMARK                            x       y       z     vdW  Elec       q    Type
REMARK                         _______ _______ _______ _____ _____    ______ ____
ROOT
ATOM      1  C   UNL     1       9.154  -2.740  24.782  0.00  0.00    +0.107 A 
ATOM      2  C   UNL     1       8.644  -1.602  25.423  0.00  0.00    +0.058 A 
ATOM      3  C   UNL     1       8.938  -0.352  24.871  0.00  0.00    +0.091 A 
ATOM      4  C   UNL     1       9.704  -0.274  23.713  0.00  0.00    +0.067 A 
ATOM      5  N   UNL     1       9.796   1.073  23.468  0.00  0.00    -0.337 N 
ATOM      6  H   UNL     1      10.280   1.528  22.708  0.00  0.00    +0.167 HD
ATOM      7  C   UNL     1       9.114   1.735  24.457  0.00  0.00    +0.158 A 
ATOM      8  C   UNL     1      10.208  -1.395  23.047  0.00  0.00    +0.030 A 
ATOM      9  N   UNL     1       8.576   0.893  25.314  0.00  0.00    -0.226 NA
ATOM     10  C   UNL     1       9.913  -2.645  23.610  0.00  0.00    +0.030 A 
ENDROOT
BRANCH   7  11
ATOM     11  C   UNL     1       9.021   3.217  24.533  0.00  0.00    +0.113 A 
ATOM     12  N   UNL     1       8.119   3.843  25.377  0.00  0.00    -0.244 NA
ATOM     13  C   UNL     1       8.239   5.146  25.229  0.00  0.00    +0.156 A 
ATOM     14  S   UNL     1       9.419   5.684  24.104  0.00  0.00    -0.083 S 
ATOM     15  C   UNL     1       9.813   4.050  23.770  0.00  0.00    +0.078 A 
ENDBRANCH   7  11
BRANCH   1  16
ATOM     16  S   UNL     1       8.779  -4.323  25.474  0.00  0.00    +0.056 S 
ATOM     17  O   UNL     1       8.856  -4.246  26.915  0.00  0.00    -0.153 OA
ATOM     18  O   UNL     1       7.637  -4.881  24.790  0.00  0.00    -0.153 OA
BRANCH  16  19
ATOM     19  N   UNL     1      10.106  -5.236  24.994  0.00  0.00    -0.204 NA
ATOM     20  H   UNL     1      10.926  -4.640  24.903  0.00  0.00    +0.144 HD
ATOM     21  H   UNL     1      10.228  -6.019  25.638  0.00  0.00    +0.144 HD
ENDBRANCH  16  19
ENDBRANCH   1  16
TORSDOF 3
ENDMDL
MODEL 9
REMARK VINA RESULT:      -5.9      2.768      3.846
REMARK  Name = 
REMARK  3 active torsions:
REMARK  status: ('A' for Active; 'I' for Inactive)
REMARK    1  A    between atoms: N_1  and  S_2
REMARK    2  A    between atoms: S_2  and  C_5
REMARK    3  A    between atoms: C_10  and  C_14
REMARK                            x       y       z     vdW  Elec       q    Type
REMARK                         _______ _______ _______ _____ _____    ______ ____
ROOT
ATOM      1  C   UNL     1       7.112  -4.290  22.609  0.00  0.00    +0.107 A 
ATOM      2  C   UNL     1       7.013  -2.951  22.203  0.00  0.00    +0.058 A 
ATOM      3  C   UNL     1       7.791  -2.004  22.873  0.00  0.00    +0.091 A 
ATOM      4  C   UNL     1       8.640  -2.410  23.898  0.00  0.00    +0.067 A 
ATOM      5  N   UNL     1       9.227  -1.245  24.322  0.00  0.00    -0.337 N 
ATOM      6  H   UNL     1       9.908  -1.133  25.059  0.00  0.00    +0.167 HD
ATOM      7  C   UNL     1       8.723  -0.213  23.571  0.00  0.00    +0.158 A 
ATOM      8  C   UNL     1       8.768  -3.741  24.307  0.00  0.00    +0.030 A 
ATOM      9  N   UNL     1       7.859  -0.649  22.679  0.00  0.00    -0.226 NA
ATOM     10  C   UNL     1       7.980  -4.684  23.633  0.00  0.00    +0.030 A 
ENDROOT
BRANCH   7  11
ATOM     11  C   UNL     1       9.113   1.207  23.769  0.00  0.00    +0.113 A 
ATOM     12  N   UNL     1       8.403   2.042  24.615  0.00  0.00    -0.244 NA
ATOM     13  C   UNL     1       8.954   3.238  24.586  0.00  0.00    +0.156 A 
ATOM     14  S   UNL     1      10.328   3.424  23.574  0.00  0.00    -0.083 S 
ATOM     15  C   UNL     1      10.190   1.777  23.122  0.00  0.00    +0.078 A 
ENDBRANCH   7  11
BRANCH   1  16
ATOM     16  S   UNL     1       6.133  -5.492  21.759  0.00  0.00    +0.056 S 
ATOM     17  O   UNL     1       5.923  -5.061  20.395  0.00  0.00    -0.153 OA
ATOM     18  O   UNL     1       6.614  -6.812  22.087  0.00  0.00    -0.153 OA
BRANCH  16  19
ATOM     19  N   UNL     1       4.645  -5.330  22.523  0.00  0.00    -0.204 NA
ATOM     20  H   UNL     1       4.135  -6.211  22.485  0.00  0.00    +0.144 HD
ATOM     21  H   UNL     1       4.788  -4.971  23.468  0.00  0.00    +0.144 HD
ENDBRANCH  16  19
ENDBRANCH   1  16
TORSDOF 3
ENDMDL
