MODEL 1
REMARK VINA RESULT:      -6.0      0.000      0.000
REMARK  Name = 
REMARK  5 active torsions:
REMARK  status: ('A' for Active; 'I' for Inactive)
REMARK    1  A    between atoms: C_1  and  O_2
REMARK    2  A    between atoms: O_2  and  C_3
REMARK    3  A    between atoms: C_4  and  C_9
REMARK    4  A    between atoms: C_12  and  C_14
REMARK    5  A    between atoms: C_14  and  O_15
REMARK                            x       y       z     vdW  Elec       q    Type
REMARK                         _______ _______ _______ _____ _____    ______ ____
ROOT
ATOM      1  C   UNL     1      10.433   3.453  23.590  0.00  0.00    +0.139 A 
ATOM      2  O   UNL     1      11.693   3.614  23.085  0.00  0.00    -0.448 OA
ATOM      3  C   UNL     1      11.993   4.950  23.125  0.00  0.00    +0.212 A 
ATOM      4  C   UNL     1      10.943   5.642  23.691  0.00  0.00    +0.057 A 
ATOM      5  C   UNL     1       9.948   4.682  24.000  0.00  0.00    +0.051 A 
ENDROOT
BRANCH   1  11
ATOM      6  C   UNL     1       8.885   1.640  22.740  0.00  0.00    +0.131 A 
ATOM      7  C   UNL     1       8.395   0.329  22.849  0.00  0.00    +0.046 A 
ATOM      8  C   UNL     1       8.923  -0.553  23.792  0.00  0.00    +0.004 A 
ATOM      9  C   UNL     1       9.932  -0.130  24.647  0.00  0.00    +0.001 A 
ATOM     10  C   UNL     1      10.410   1.181  24.564  0.00  0.00    +0.015 A 
ATOM     11  C   UNL     1       9.899   2.088  23.615  0.00  0.00    +0.059 A 
BRANCH   6  13
ATOM     12  C   UNL     1       7.012   2.938  22.091  0.00  0.00    +0.277 C 
ATOM     13  O   UNL     1       8.358   2.544  21.848  0.00  0.00    -0.494 OA
ENDBRANCH   6  13
ENDBRANCH   1  11
BRANCH   3  14
ATOM     14  C   UNL     1      13.265   5.385  22.603  0.00  0.00    +0.372 C 
ATOM     15  O   UNL     1      13.442   6.055  21.596  0.00  0.00    -0.242 OA
BRANCH  14  16
ATOM     16  O   UNL     1      14.288   4.948  23.387  0.00  0.00    -0.475 OA
ATOM     17  H   UNL     1      13.947   4.266  24.008  0.00  0.00    +0.296 HD
ENDBRANCH  14  16
ENDBRANCH   3  14
TORSDOF 4
ENDMDL
MODEL 2
REMARK VINA RESULT:      -5.9      5.258      7.894
REMARK  Name = 
REMARK  5 active torsions:
REMARK  status: ('A' for Active; 'I' for Inactive)
REMARK    1  A    between atoms: C_1  and  O_2
REMARK    2  A    between atoms: O_2  and  C_3
REMARK    3  A    between atoms: C_4  and  C_9
REMARK    4  A    between atoms: C_12  and  C_14
REMARK    5  A    between atoms: C_14  and  O_15
REMARK                            x       y       z     vdW  Elec       q    Type
REMARK                         _______ _______ _______ _____ _____    ______ ____
ROOT
ATOM      1  C   UNL     1       8.024  -2.984  22.949  0.00  0.00    +0.139 A 
ATOM      2  O   UNL     1       8.636  -3.418  24.092  0.00  0.00    -0.448 OA
ATOM      3  C   UNL     1       8.328  -4.743  24.256  0.00  0.00    +0.212 A 
ATOM      4  C   UNL     1       7.551  -5.169  23.199  0.00  0.00    +0.057 A 
ATOM      5  C   UNL     1       7.366  -4.046  22.356  0.00  0.00    +0.051 A 
ENDROOT
BRANCH   1  11
ATOM      6  C   UNL     1       7.305  -0.558  22.997  0.00  0.00    +0.131 A 
ATOM      7  C   UNL     1       7.521   0.768  22.588  0.00  0.00    +0.046 A 
ATOM      8  C   UNL     1       8.633   1.104  21.818  0.00  0.00    +0.004 A 
ATOM      9  C   UNL     1       9.533   0.119  21.433  0.00  0.00    +0.001 A 
ATOM     10  C   UNL     1       9.315  -1.209  21.813  0.00  0.00    +0.015 A 
ATOM     11  C   UNL     1       8.203  -1.572  22.598  0.00  0.00    +0.059 A 
BRANCH   6  13
ATOM     12  C   UNL     1       6.121  -0.404  25.043  0.00  0.00    +0.277 C 
ATOM     13  O   UNL     1       6.197  -0.927  23.722  0.00  0.00    -0.494 OA
ENDBRANCH   6  13
ENDBRANCH   1  11
BRANCH   3  14
ATOM     14  C   UNL     1       8.827  -5.426  25.424  0.00  0.00    +0.372 C 
ATOM     15  O   UNL     1       8.175  -5.748  26.405  0.00  0.00    -0.242 OA
BRANCH  14  16
ATOM     16  O   UNL     1      10.158  -5.681  25.306  0.00  0.00    -0.475 OA
ATOM     17  H   UNL     1      10.337  -6.597  25.614  0.00  0.00    +0.296 HD
ENDBRANCH  14  16
ENDBRANCH   3  14
TORSDOF 4
ENDMDL
MODEL 3
REMARK VINA RESULT:      -5.7      5.147      8.309
REMARK  Name = 
REMARK  5 active torsions:
REMARK  status: ('A' for Active; 'I' for Inactive)
REMARK    1  A    between atoms: C_1  and  O_2
REMARK    2  A    between atoms: O_2  and  C_3
REMARK    3  A    between atoms: C_4  and  C_9
REMARK    4  A    between atoms: C_12  and  C_14
REMARK    5  A    between atoms: C_14  and  O_15
REMARK                            x       y       z     vdW  Elec       q    Type
REMARK                         _______ _______ _______ _____ _____    ______ ____
ROOT
ATOM      1  C   UNL     1       7.936  -2.836  22.803  0.00  0.00    +0.139 A 
ATOM      2  O   UNL     1       7.157  -3.513  21.906  0.00  0.00    -0.448 OA
ATOM      3  C   UNL     1       7.092  -4.820  22.308  0.00  0.00    +0.212 A 
ATOM      4  C   UNL     1       7.796  -4.976  23.484  0.00  0.00    +0.057 A 
ATOM      5  C   UNL     1       8.326  -3.703  23.808  0.00  0.00    +0.051 A 
ENDROOT
BRANCH   1  11
ATOM      6  C   UNL     1       7.302  -0.396  23.019  0.00  0.00    +0.131 A 
ATOM      7  C   UNL     1       7.560   0.946  22.697  0.00  0.00    +0.046 A 
ATOM      8  C   UNL     1       8.676   1.295  21.938  0.00  0.00    +0.004 A 
ATOM      9  C   UNL     1       9.537   0.308  21.479  0.00  0.00    +0.001 A 
ATOM     10  C   UNL     1       9.277  -1.034  21.773  0.00  0.00    +0.015 A 
ATOM     11  C   UNL     1       8.160  -1.411  22.544  0.00  0.00    +0.059 A 
BRANCH   6  13
ATOM     12  C   UNL     1       6.151  -0.353  25.090  0.00  0.00    +0.277 C 
ATOM     13  O   UNL     1       6.188  -0.774  23.731  0.00  0.00    -0.494 OA
ENDBRANCH   6  13
ENDBRANCH   1  11
BRANCH   3  14
ATOM     14  C   UNL     1       6.356  -5.755  21.494  0.00  0.00    +0.372 C 
ATOM     15  O   UNL     1       5.958  -5.563  20.355  0.00  0.00    -0.242 OA
BRANCH  14  16
ATOM     16  O   UNL     1       6.144  -6.920  22.163  0.00  0.00    -0.475 OA
ATOM     17  H   UNL     1       5.222  -7.221  22.000  0.00  0.00    +0.296 HD
ENDBRANCH  14  16
ENDBRANCH   3  14
TORSDOF 4
ENDMDL
MODEL 4
REMARK VINA RESULT:      -5.7      1.625      1.997
REMARK  Name = 
REMARK  5 active torsions:
REMARK  status: ('A' for Active; 'I' for Inactive)
REMARK    1  A    between atoms: C_1  and  O_2
REMARK    2  A    between atoms: O_2  and  C_3
REMARK    3  A    between atoms: C_4  and  C_9
REMARK    4  A    between atoms: C_12  and  C_14
REMARK    5  A    between atoms: C_14  and  O_15
REMARK                            x       y       z     vdW  Elec       q    Type
REMARK                         _______ _______ _______ _____ _____    ______ ____
ROOT
ATOM      1  C   UNL     1       9.961   3.197  23.377  0.00  0.00    +0.139 A 
ATOM      2  O   UNL     1      11.293   3.494  23.299  0.00  0.00    -0.448 OA
ATOM      3  C   UNL     1      11.443   4.826  23.578  0.00  0.00    +0.212 A 
ATOM      4  C   UNL     1      10.214   5.376  23.874  0.00  0.00    +0.057 A 
ATOM      5  C   UNL     1       9.266   4.330  23.757  0.00  0.00    +0.051 A 
ENDROOT
BRANCH   1  11
ATOM      6  C   UNL     1       8.980   0.960  24.040  0.00  0.00    +0.131 A 
ATOM      7  C   UNL     1       8.671  -0.366  23.697  0.00  0.00    +0.046 A 
ATOM      8  C   UNL     1       8.910  -0.844  22.410  0.00  0.00    +0.004 A 
ATOM      9  C   UNL     1       9.477  -0.009  21.455  0.00  0.00    +0.001 A 
ATOM     10  C   UNL     1       9.811   1.306  21.792  0.00  0.00    +0.015 A 
ATOM     11  C   UNL     1       9.572   1.814  23.084  0.00  0.00    +0.059 A 
BRANCH   6  13
ATOM     12  C   UNL     1       7.442   1.519  25.754  0.00  0.00    +0.277 C 
ATOM     13  O   UNL     1       8.793   1.448  25.312  0.00  0.00    -0.494 OA
ENDBRANCH   6  13
ENDBRANCH   1  11
BRANCH   3  14
ATOM     14  C   UNL     1      12.766   5.397  23.518  0.00  0.00    +0.372 C 
ATOM     15  O   UNL     1      13.633   5.127  22.701  0.00  0.00    -0.242 OA
BRANCH  14  16
ATOM     16  O   UNL     1      12.948   6.306  24.514  0.00  0.00    -0.475 OA
ATOM     17  H   UNL     1      12.561   5.953  25.346  0.00  0.00    +0.296 HD
ENDBRANCH  14  16
ENDBRANCH   3  14
TORSDOF 4
ENDMDL
MODEL 5
REMARK VINA RESULT:      -5.6      3.159      5.416
REMARK  Name = 
REMARK  5 active torsions:
REMARK  status: ('A' for Active; 'I' for Inactive)
REMARK    1  A    between atoms: C_1  and  O_2
REMARK    2  A    between atoms: O_2  and  C_3
REMARK    3  A    between atoms: C_4  and  C_9
REMARK    4  A    between atoms: C_12  and  C_14
REMARK    5  A    between atoms: C_14  and  O_15
REMARK                            x       y       z     vdW  Elec       q    Type
REMARK                         _______ _______ _______ _____ _____    ______ ____
ROOT
ATOM      1  C   UNL     1       8.789  -1.034  23.862  0.00  0.00    +0.139 A 
ATOM      2  O   UNL     1       9.022  -0.066  22.926  0.00  0.00    -0.448 OA
ATOM      3  C   UNL     1       9.819   0.889  23.500  0.00  0.00    +0.212 A 
ATOM      4  C   UNL     1      10.130   0.515  24.790  0.00  0.00    +0.057 A 
ATOM      5  C   UNL     1       9.480  -0.723  25.019  0.00  0.00    +0.051 A 
ENDROOT
BRANCH   1  11
ATOM      6  C   UNL     1       8.293  -3.504  23.619  0.00  0.00    +0.131 A 
ATOM      7  C   UNL     1       7.430  -4.519  23.174  0.00  0.00    +0.046 A 
ATOM      8  C   UNL     1       6.196  -4.207  22.606  0.00  0.00    +0.004 A 
ATOM      9  C   UNL     1       5.816  -2.879  22.460  0.00  0.00    +0.001 A 
ATOM     10  C   UNL     1       6.677  -1.860  22.876  0.00  0.00    +0.015 A 
ATOM     11  C   UNL     1       7.926  -2.150  23.460  0.00  0.00    +0.059 A 
BRANCH   6  13
ATOM     12  C   UNL     1       9.551  -4.696  25.234  0.00  0.00    +0.277 C 
ATOM     13  O   UNL     1       9.532  -3.779  24.146  0.00  0.00    -0.494 OA
ENDBRANCH   6  13
ENDBRANCH   1  11
BRANCH   3  14
ATOM     14  C   UNL     1      10.174   2.048  22.719  0.00  0.00    +0.372 C 
ATOM     15  O   UNL     1      10.810   3.016  23.111  0.00  0.00    -0.242 OA
BRANCH  14  16
ATOM     16  O   UNL     1       9.703   1.941  21.447  0.00  0.00    -0.475 OA
ATOM     17  H   UNL     1       9.648   2.838  21.050  0.00  0.00    +0.296 HD
ENDBRANCH  14  16
ENDBRANCH   3  14
TORSDOF 4
ENDMDL
MODEL 6
REMARK VINA RESULT:      -5.5      2.625      5.343
REMARK  Name = 
REMARK  5 active torsions:
REMARK  status: ('A' for Active; 'I' for Inactive)
REMARK    1  A    between atoms: C_1  and  O_2
REMARK    2  A    between atoms: O_2  and  C_3
REMARK    3  A    between atoms: C_4  and  C_9
REMARK    4  A    between atoms: C_12  and  C_14
REMARK    5  A    between atoms: C_14  and  O_15
REMARK                            x       y       z     vdW  Elec       q    Type
REMARK                         _______ _______ _______ _____ _____    ______ ____
ROOT
ATOM      1  C   UNL     1      10.205   2.227  23.049  0.00  0.00    +0.139 A 
ATOM      2  O   UNL     1      10.220   1.254  24.008  0.00  0.00    -0.448 OA
ATOM      3  C   UNL     1       9.919   0.063  23.402  0.00  0.00    +0.212 A 
ATOM      4  C   UNL     1       9.749   0.265  22.049  0.00  0.00    +0.057 A 
ATOM      5  C   UNL     1       9.945   1.649  21.820  0.00  0.00    +0.051 A 
ENDROOT
BRANCH   1  11
ATOM      6  C   UNL     1       9.505   4.420  24.100  0.00  0.00    +0.131 A 
ATOM      7  C   UNL     1       9.830   5.738  24.462  0.00  0.00    +0.046 A 
ATOM      8  C   UNL     1      11.116   6.236  24.260  0.00  0.00    +0.004 A 
ATOM      9  C   UNL     1      12.087   5.431  23.679  0.00  0.00    +0.001 A 
ATOM     10  C   UNL     1      11.769   4.127  23.291  0.00  0.00    +0.015 A 
ATOM     11  C   UNL     1      10.478   3.598  23.492  0.00  0.00    +0.059 A 
BRANCH   6  13
ATOM     12  C   UNL     1       7.826   3.661  25.588  0.00  0.00    +0.277 C 
ATOM     13  O   UNL     1       8.236   3.915  24.250  0.00  0.00    -0.494 OA
ENDBRANCH   6  13
ENDBRANCH   1  11
BRANCH   3  14
ATOM     14  C   UNL     1       9.830  -1.122  24.219  0.00  0.00    +0.372 C 
ATOM     15  O   UNL     1      10.082  -2.264  23.865  0.00  0.00    -0.242 OA
BRANCH  14  16
ATOM     16  O   UNL     1       9.418  -0.814  25.479  0.00  0.00    -0.475 OA
ATOM     17  H   UNL     1       9.741  -1.506  26.099  0.00  0.00    +0.296 HD
ENDBRANCH  14  16
ENDBRANCH   3  14
TORSDOF 4
ENDMDL
MODEL 7
REMARK VINA RESULT:      -5.5      3.936      6.081
REMARK  Name = 
REMARK  5 active torsions:
REMARK  status: ('A' for Active; 'I' for Inactive)
REMARK    1  A    between atoms: C_1  and  O_2
REMARK    2  A    between atoms: O_2  and  C_3
REMARK    3  A    between atoms: C_4  and  C_9
REMARK    4  A    between atoms: C_12  and  C_14
REMARK    5  A    between atoms: C_14  and  O_15
REMARK                            x       y       z     vdW  Elec       q    Type
REMARK                         _______ _______ _______ _____ _____    ______ ____
ROOT
ATOM      1  C   UNL     1       8.900  -1.772  23.142  0.00  0.00    +0.139 A 
ATOM      2  O   UNL     1       8.073  -0.687  23.048  0.00  0.00    -0.448 OA
ATOM      3  C   UNL     1       8.659   0.216  22.202  0.00  0.00    +0.212 A 
ATOM      4  C   UNL     1       9.843  -0.304  21.721  0.00  0.00    +0.057 A 
ATOM      5  C   UNL     1       9.991  -1.582  22.314  0.00  0.00    +0.051 A 
ENDROOT
BRANCH   1  11
ATOM      6  C   UNL     1       7.777  -3.999  23.570  0.00  0.00    +0.131 A 
ATOM      7  C   UNL     1       7.362  -4.980  24.485  0.00  0.00    +0.046 A 
ATOM      8  C   UNL     1       7.657  -4.859  25.842  0.00  0.00    +0.004 A 
ATOM      9  C   UNL     1       8.354  -3.749  26.303  0.00  0.00    +0.001 A 
ATOM     10  C   UNL     1       8.750  -2.754  25.405  0.00  0.00    +0.015 A 
ATOM     11  C   UNL     1       8.470  -2.858  24.028  0.00  0.00    +0.059 A 
BRANCH   6  13
ATOM     12  C   UNL     1       7.046  -5.347  21.764  0.00  0.00    +0.277 C 
ATOM     13  O   UNL     1       7.466  -4.071  22.233  0.00  0.00    -0.494 OA
ENDBRANCH   6  13
ENDBRANCH   1  11
BRANCH   3  14
ATOM     14  C   UNL     1       7.994   1.474  21.970  0.00  0.00    +0.372 C 
ATOM     15  O   UNL     1       6.810   1.711  22.155  0.00  0.00    -0.242 OA
BRANCH  14  16
ATOM     16  O   UNL     1       8.868   2.407  21.502  0.00  0.00    -0.475 OA
ATOM     17  H   UNL     1       9.534   1.964  20.931  0.00  0.00    +0.296 HD
ENDBRANCH  14  16
ENDBRANCH   3  14
TORSDOF 4
ENDMDL
MODEL 8
REMARK VINA RESULT:      -5.4      2.265      5.606
REMARK  Name = 
REMARK  5 active torsions:
REMARK  status: ('A' for Active; 'I' for Inactive)
REMARK    1  A    between atoms: C_1  and  O_2
REMARK    2  A    between atoms: O_2  and  C_3
REMARK    3  A    between atoms: C_4  and  C_9
REMARK    4  A    between atoms: C_12  and  C_14
REMARK    5  A    between atoms: C_14  and  O_15
REMARK                            x       y       z     vdW  Elec       q    Type
REMARK                         _______ _______ _______ _____ _____    ______ ____
ROOT
ATOM      1  C   UNL     1       9.856   2.580  23.334  0.00  0.00    +0.139 A 
ATOM      2  O   UNL     1       9.768   1.690  24.368  0.00  0.00    -0.448 OA
ATOM      3  C   UNL     1       9.822   0.427  23.841  0.00  0.00    +0.212 A 
ATOM      4  C   UNL     1       9.985   0.505  22.474  0.00  0.00    +0.057 A 
ATOM      5  C   UNL     1      10.019   1.884  22.150  0.00  0.00    +0.051 A 
ENDROOT
BRANCH   1  11
ATOM      6  C   UNL     1      10.920   4.850  23.677  0.00  0.00    +0.131 A 
ATOM      7  C   UNL     1      10.786   6.196  24.056  0.00  0.00    +0.046 A 
ATOM      8  C   UNL     1       9.540   6.718  24.402  0.00  0.00    +0.004 A 
ATOM      9  C   UNL     1       8.418   5.900  24.390  0.00  0.00    +0.001 A 
ATOM     10  C   UNL     1       8.544   4.553  24.038  0.00  0.00    +0.015 A 
ATOM     11  C   UNL     1       9.790   4.004  23.678  0.00  0.00    +0.059 A 
BRANCH   6  13
ATOM     12  C   UNL     1      13.150   5.215  22.964  0.00  0.00    +0.277 C 
ATOM     13  O   UNL     1      12.140   4.298  23.370  0.00  0.00    -0.494 OA
ENDBRANCH   6  13
ENDBRANCH   1  11
BRANCH   3  14
ATOM     14  C   UNL     1       9.705  -0.697  24.735  0.00  0.00    +0.372 C 
ATOM     15  O   UNL     1       9.711  -1.877  24.418  0.00  0.00    -0.242 OA
BRANCH  14  16
ATOM     16  O   UNL     1       9.582  -0.282  26.025  0.00  0.00    -0.475 OA
ATOM     17  H   UNL     1       9.436   0.690  26.036  0.00  0.00    +0.296 HD
ENDBRANCH  14  16
ENDBRANCH   3  14
TORSDOF 4
ENDMDL
MODEL 9
REMARK VINA RESULT:      -5.3      3.744      6.324
REMARK  Name = 
REMARK  5 active torsions:
REMARK  status: ('A' for Active; 'I' for Inactive)
REMARK    1  A    between atoms: C_1  and  O_2
REMARK    2  A    between atoms: O_2  and  C_3
REMARK    3  A    between atoms: C_4  and  C_9
REMARK    4  A    between atoms: C_12  and  C_14
REMARK    5  A    between atoms: C_14  and  O_15
REMARK                            x       y       z     vdW  Elec       q    Type
REMARK                         _______ _______ _______ _____ _____    ______ ____
ROOT
ATOM      1  C   UNL     1       8.587  -2.117  22.879  0.00  0.00    +0.139 A 
ATOM      2  O   UNL     1       8.022  -0.975  22.384  0.00  0.00    -0.448 OA
ATOM      3  C   UNL     1       9.016  -0.046  22.233  0.00  0.00    +0.212 A 
ATOM      4  C   UNL     1      10.226  -0.602  22.593  0.00  0.00    +0.057 A 
ATOM      5  C   UNL     1       9.953  -1.933  22.996  0.00  0.00    +0.051 A 
ENDROOT
BRANCH   1  11
ATOM      6  C   UNL     1       7.243  -3.588  24.439  0.00  0.00    +0.131 A 
ATOM      7  C   UNL     1       6.410  -4.705  24.619  0.00  0.00    +0.046 A 
ATOM      8  C   UNL     1       5.984  -5.459  23.527  0.00  0.00    +0.004 A 
ATOM      9  C   UNL     1       6.398  -5.119  22.246  0.00  0.00    +0.001 A 
ATOM     10  C   UNL     1       7.247  -4.025  22.057  0.00  0.00    +0.015 A 
ATOM     11  C   UNL     1       7.685  -3.242  23.144  0.00  0.00    +0.059 A 
BRANCH   6  13
ATOM     12  C   UNL     1       8.524  -3.554  26.432  0.00  0.00    +0.277 C 
ATOM     13  O   UNL     1       7.712  -2.850  25.499  0.00  0.00    -0.494 OA
ENDBRANCH   6  13
ENDBRANCH   1  11
BRANCH   3  14
ATOM     14  C   UNL     1       8.663   1.269  21.760  0.00  0.00    +0.372 C 
ATOM     15  O   UNL     1       7.533   1.724  21.665  0.00  0.00    -0.242 OA
BRANCH  14  16
ATOM     16  O   UNL     1       9.773   1.977  21.417  0.00  0.00    -0.475 OA
ATOM     17  H   UNL     1       9.953   1.846  20.459  0.00  0.00    +0.296 HD
ENDBRANCH  14  16
ENDBRANCH   3  14
TORSDOF 4
ENDMDL
