MODEL 1
REMARK VINA RESULT:      -7.7      0.000      0.000
REMARK  Name = 
REMARK  8 active torsions:
REMARK  status: ('A' for Active; 'I' for Inactive)
REMARK    1  A    between atoms: C_1  and  C_2
REMARK    2  A    between atoms: C_2  and  N_3
REMARK    3  A    between atoms: C_7  and  C_8
REMARK    4  A    between atoms: C_14  and  C_17
REMARK    5  A    between atoms: C_19  and  C_20
REMARK    6  A    between atoms: N_22  and  C_23
REMARK    7  A    between atoms: N_22  and  C_24
REMARK    8  A    between atoms: C_25  and  N_26
REMARK                            x       y       z     vdW  Elec       q    Type
REMARK                         _______ _______ _______ _____ _____    ______ ____
ROOT
ATOM      1  C   UNL     1       5.409  -5.616  24.867  0.00  0.00    +0.027 A 
ATOM      2  C   UNL     1       5.822  -4.725  23.815  0.00  0.00    +0.028 A 
ATOM      3  C   UNL     1       5.399  -5.269  22.611  0.00  0.00    +0.139 A 
ATOM      4  N   UNL     1       5.638  -4.807  21.369  0.00  0.00    -0.237 NA
ATOM      5  C   UNL     1       6.411  -3.685  21.355  0.00  0.00    +0.121 A 
ATOM      6  C   UNL     1       6.896  -2.987  22.463  0.00  0.00    +0.001 A 
ATOM      7  N   UNL     1       4.671  -6.387  22.897  0.00  0.00    -0.345 N 
ATOM      8  H   UNL     1       4.230  -6.961  22.193  0.00  0.00    +0.167 HD
ATOM      9  C   UNL     1       6.530  -3.517  23.714  0.00  0.00    +0.022 A 
ATOM     10  C   UNL     1       4.681  -6.618  24.255  0.00  0.00    +0.095 A 
ENDROOT
BRANCH   6  11
ATOM     11  C   UNL     1       7.712  -1.751  22.396  0.00  0.00    -0.016 A 
ATOM     12  C   UNL     1       8.979  -1.708  21.803  0.00  0.00    +0.010 A 
ATOM     13  C   UNL     1       9.660  -0.493  21.655  0.00  0.00    +0.024 A 
ATOM     14  C   UNL     1       9.065   0.727  22.006  0.00  0.00    +0.037 A 
ATOM     15  C   UNL     1       7.793   0.710  22.614  0.00  0.00    +0.058 A 
ATOM     16  C   UNL     1       7.196  -0.530  22.881  0.00  0.00    +0.023 A 
BRANCH  15  17
ATOM     17  C   UNL     1       7.087   2.001  22.932  0.00  0.00    +0.248 C 
ATOM     18  N   UNL     1       7.209   2.634  24.184  0.00  0.00    -0.304 N 
ATOM     19  C   UNL     1       6.495   3.888  24.387  0.00  0.00    +0.132 C 
ATOM     20  C   UNL     1       8.051   2.231  25.299  0.00  0.00    +0.132 C 
ATOM     21  O   UNL     1       6.334   2.459  22.070  0.00  0.00    -0.270 OA
ENDBRANCH  15  17
BRANCH  14  22
ATOM     22  N   UNL     1       9.852   1.884  21.918  0.00  0.00    -0.357 N 
ATOM     23  H   UNL     1      10.819   1.797  22.204  0.00  0.00    +0.142 HD
ATOM     24  H   UNL     1       9.712   2.409  21.049  0.00  0.00    +0.142 HD
ENDBRANCH  14  22
ENDBRANCH   6  11
BRANCH   1  26
ATOM     25  N   UNL     1       6.970  -5.433  26.968  0.00  0.00    -0.264 N 
ATOM     26  C   UNL     1       5.747  -5.525  26.334  0.00  0.00    +0.071 A 
ATOM     27  C   UNL     1       4.828  -5.454  27.365  0.00  0.00    +0.049 A 
ATOM     28  C   UNL     1       5.566  -5.340  28.550  0.00  0.00    +0.135 A 
ATOM     29  N   UNL     1       6.874  -5.336  28.317  0.00  0.00    -0.179 NA
BRANCH  25  31
ATOM     30  C   UNL     1       8.879  -3.979  26.432  0.00  0.00    +0.029 C 
ATOM     31  C   UNL     1       8.309  -5.386  26.417  0.00  0.00    +0.141 C 
ENDBRANCH  25  31
ENDBRANCH   1  26
TORSDOF 5
ENDMDL
MODEL 2
REMARK VINA RESULT:      -7.4      3.538      9.010
REMARK  Name = 
REMARK  8 active torsions:
REMARK  status: ('A' for Active; 'I' for Inactive)
REMARK    1  A    between atoms: C_1  and  C_2
REMARK    2  A    between atoms: C_2  and  N_3
REMARK    3  A    between atoms: C_7  and  C_8
REMARK    4  A    between atoms: C_14  and  C_17
REMARK    5  A    between atoms: C_19  and  C_20
REMARK    6  A    between atoms: N_22  and  C_23
REMARK    7  A    between atoms: N_22  and  C_24
REMARK    8  A    between atoms: C_25  and  N_26
REMARK                            x       y       z     vdW  Elec       q    Type
REMARK                         _______ _______ _______ _____ _____    ______ ____
ROOT
ATOM      1  C   UNL     1       8.866   5.693  23.238  0.00  0.00    +0.027 A 
ATOM      2  C   UNL     1       8.379   4.361  22.996  0.00  0.00    +0.028 A 
ATOM      3  C   UNL     1       7.178   4.469  22.308  0.00  0.00    +0.139 A 
ATOM      4  N   UNL     1       6.343   3.476  21.947  0.00  0.00    -0.237 NA
ATOM      5  C   UNL     1       6.766   2.246  22.353  0.00  0.00    +0.121 A 
ATOM      6  C   UNL     1       7.955   1.948  23.022  0.00  0.00    +0.001 A 
ATOM      7  N   UNL     1       6.973   5.791  22.041  0.00  0.00    -0.345 N 
ATOM      8  H   UNL     1       6.176   6.140  21.530  0.00  0.00    +0.167 HD
ATOM      9  C   UNL     1       8.787   3.050  23.290  0.00  0.00    +0.022 A 
ATOM     10  C   UNL     1       7.977   6.544  22.609  0.00  0.00    +0.095 A 
ENDROOT
BRANCH   6  11
ATOM     11  C   UNL     1       8.386   0.585  23.420  0.00  0.00    -0.016 A 
ATOM     12  C   UNL     1       9.394   0.351  24.361  0.00  0.00    +0.010 A 
ATOM     13  C   UNL     1       9.681  -0.950  24.794  0.00  0.00    +0.024 A 
ATOM     14  C   UNL     1       8.916  -2.047  24.375  0.00  0.00    +0.037 A 
ATOM     15  C   UNL     1       7.900  -1.838  23.419  0.00  0.00    +0.058 A 
ATOM     16  C   UNL     1       7.729  -0.550  22.895  0.00  0.00    +0.023 A 
BRANCH  15  17
ATOM     17  C   UNL     1       7.005  -2.975  23.004  0.00  0.00    +0.248 C 
ATOM     18  N   UNL     1       5.769  -3.225  23.633  0.00  0.00    -0.304 N 
ATOM     19  C   UNL     1       4.972  -4.344  23.149  0.00  0.00    +0.132 C 
ATOM     20  C   UNL     1       5.131  -2.433  24.671  0.00  0.00    +0.132 C 
ATOM     21  O   UNL     1       7.425  -3.734  22.129  0.00  0.00    -0.270 OA
ENDBRANCH  15  17
BRANCH  14  22
ATOM     22  N   UNL     1       9.333  -3.324  24.778  0.00  0.00    -0.357 N 
ATOM     23  H   UNL     1       9.983  -3.801  24.167  0.00  0.00    +0.142 HD
ATOM     24  H   UNL     1       9.564  -3.383  25.775  0.00  0.00    +0.142 HD
ENDBRANCH  14  22
ENDBRANCH   6  11
BRANCH   1  26
ATOM     25  N   UNL     1      11.395   5.755  23.935  0.00  0.00    -0.264 N 
ATOM     26  C   UNL     1      10.064   6.098  24.060  0.00  0.00    +0.071 A 
ATOM     27  C   UNL     1      10.045   6.989  25.118  0.00  0.00    +0.049 A 
ATOM     28  C   UNL     1      11.367   7.106  25.563  0.00  0.00    +0.135 A 
ATOM     29  N   UNL     1      12.195   6.349  24.853  0.00  0.00    -0.179 NA
BRANCH  25  31
ATOM     30  C   UNL     1      13.230   5.604  22.304  0.00  0.00    +0.029 C 
ATOM     31  C   UNL     1      12.055   4.904  22.965  0.00  0.00    +0.141 C 
ENDBRANCH  25  31
ENDBRANCH   1  26
TORSDOF 5
ENDMDL
MODEL 3
REMARK VINA RESULT:      -7.4      1.564      3.529
REMARK  Name = 
REMARK  8 active torsions:
REMARK  status: ('A' for Active; 'I' for Inactive)
REMARK    1  A    between atoms: C_1  and  C_2
REMARK    2  A    between atoms: C_2  and  N_3
REMARK    3  A    between atoms: C_7  and  C_8
REMARK    4  A    between atoms: C_14  and  C_17
REMARK    5  A    between atoms: C_19  and  C_20
REMARK    6  A    between atoms: N_22  and  C_23
REMARK    7  A    between atoms: N_22  and  C_24
REMARK    8  A    between atoms: C_25  and  N_26
REMARK                            x       y       z     vdW  Elec       q    Type
REMARK                         _______ _______ _______ _____ _____    ______ ____
ROOT
ATOM      1  C   UNL     1       5.800  -5.260  25.422  0.00  0.00    +0.027 A 
ATOM      2  C   UNL     1       6.915  -4.350  25.385  0.00  0.00    +0.028 A 
ATOM      3  C   UNL     1       7.683  -4.576  26.518  0.00  0.00    +0.139 A 
ATOM      4  N   UNL     1       8.774  -3.898  26.922  0.00  0.00    -0.237 NA
ATOM      5  C   UNL     1       9.099  -2.865  26.096  0.00  0.00    +0.121 A 
ATOM      6  C   UNL     1       8.462  -2.513  24.904  0.00  0.00    +0.001 A 
ATOM      7  N   UNL     1       7.140  -5.639  27.179  0.00  0.00    -0.345 N 
ATOM      8  H   UNL     1       7.524  -6.022  28.030  0.00  0.00    +0.167 HD
ATOM      9  C   UNL     1       7.377  -3.329  24.539  0.00  0.00    +0.022 A 
ATOM     10  C   UNL     1       5.993  -6.053  26.538  0.00  0.00    +0.095 A 
ENDROOT
BRANCH   6  11
ATOM     11  C   UNL     1       8.872  -1.392  24.022  0.00  0.00    -0.016 A 
ATOM     12  C   UNL     1       9.338  -1.584  22.718  0.00  0.00    +0.010 A 
ATOM     13  C   UNL     1       9.597  -0.490  21.882  0.00  0.00    +0.024 A 
ATOM     14  C   UNL     1       9.314   0.823  22.284  0.00  0.00    +0.037 A 
ATOM     15  C   UNL     1       8.852   1.042  23.599  0.00  0.00    +0.058 A 
ATOM     16  C   UNL     1       8.738  -0.057  24.461  0.00  0.00    +0.023 A 
BRANCH  15  17
ATOM     17  C   UNL     1       8.460   2.427  24.043  0.00  0.00    +0.248 C 
ATOM     18  N   UNL     1       7.133   2.891  23.968  0.00  0.00    -0.304 N 
ATOM     19  C   UNL     1       6.856   4.243  24.434  0.00  0.00    +0.132 C 
ATOM     20  C   UNL     1       5.957   2.141  23.558  0.00  0.00    +0.132 C 
ATOM     21  O   UNL     1       9.365   3.176  24.416  0.00  0.00    -0.270 OA
ENDBRANCH  15  17
BRANCH  14  22
ATOM     22  N   UNL     1       9.695   1.864  21.426  0.00  0.00    -0.357 N 
ATOM     23  H   UNL     1      10.588   1.763  20.961  0.00  0.00    +0.142 HD
ATOM     24  H   UNL     1       8.936   2.195  20.822  0.00  0.00    +0.142 HD
ENDBRANCH  14  22
ENDBRANCH   6  11
BRANCH   1  26
ATOM     25  N   UNL     1       4.553  -5.651  23.148  0.00  0.00    -0.264 N 
ATOM     26  C   UNL     1       4.622  -5.308  24.483  0.00  0.00    +0.071 A 
ATOM     27  C   UNL     1       3.307  -5.058  24.834  0.00  0.00    +0.049 A 
ATOM     28  C   UNL     1       2.543  -5.254  23.677  0.00  0.00    +0.135 A 
ATOM     29  N   UNL     1       3.296  -5.606  22.642  0.00  0.00    -0.179 NA
BRANCH  25  31
ATOM     30  C   UNL     1       6.201  -4.911  21.478  0.00  0.00    +0.029 C 
ATOM     31  C   UNL     1       5.595  -6.079  22.237  0.00  0.00    +0.141 C 
ENDBRANCH  25  31
ENDBRANCH   1  26
TORSDOF 5
ENDMDL
MODEL 4
REMARK VINA RESULT:      -7.2      2.303      4.507
REMARK  Name = 
REMARK  8 active torsions:
REMARK  status: ('A' for Active; 'I' for Inactive)
REMARK    1  A    between atoms: C_1  and  C_2
REMARK    2  A    between atoms: C_2  and  N_3
REMARK    3  A    between atoms: C_7  and  C_8
REMARK    4  A    between atoms: C_14  and  C_17
REMARK    5  A    between atoms: C_19  and  C_20
REMARK    6  A    between atoms: N_22  and  C_23
REMARK    7  A    between atoms: N_22  and  C_24
REMARK    8  A    between atoms: C_25  and  N_26
REMARK                            x       y       z     vdW  Elec       q    Type
REMARK                         _______ _______ _______ _____ _____    ______ ____
ROOT
ATOM      1  C   UNL     1       7.476  -4.203  24.548  0.00  0.00    +0.027 A 
ATOM      2  C   UNL     1       7.860  -2.833  24.764  0.00  0.00    +0.028 A 
ATOM      3  C   UNL     1       8.339  -2.729  26.063  0.00  0.00    +0.139 A 
ATOM      4  N   UNL     1       8.733  -1.615  26.708  0.00  0.00    -0.237 NA
ATOM      5  C   UNL     1       8.600  -0.485  25.957  0.00  0.00    +0.121 A 
ATOM      6  C   UNL     1       8.170  -0.406  24.631  0.00  0.00    +0.001 A 
ATOM      7  N   UNL     1       8.352  -3.983  26.600  0.00  0.00    -0.345 N 
ATOM      8  H   UNL     1       8.678  -4.187  27.533  0.00  0.00    +0.167 HD
ATOM      9  C   UNL     1       7.848  -1.637  24.030  0.00  0.00    +0.022 A 
ATOM     10  C   UNL     1       7.819  -4.882  25.702  0.00  0.00    +0.095 A 
ENDROOT
BRANCH   6  11
ATOM     11  C   UNL     1       8.069   0.848  23.846  0.00  0.00    -0.016 A 
ATOM     12  C   UNL     1       7.185   1.003  22.773  0.00  0.00    +0.010 A 
ATOM     13  C   UNL     1       7.038   2.244  22.140  0.00  0.00    +0.024 A 
ATOM     14  C   UNL     1       7.695   3.389  22.611  0.00  0.00    +0.037 A 
ATOM     15  C   UNL     1       8.599   3.256  23.686  0.00  0.00    +0.058 A 
ATOM     16  C   UNL     1       8.835   1.977  24.207  0.00  0.00    +0.023 A 
BRANCH  15  17
ATOM     17  C   UNL     1       9.263   4.474  24.272  0.00  0.00    +0.248 C 
ATOM     18  N   UNL     1       8.694   5.198  25.337  0.00  0.00    -0.304 N 
ATOM     19  C   UNL     1       9.423   6.355  25.840  0.00  0.00    +0.132 C 
ATOM     20  C   UNL     1       7.485   4.877  26.078  0.00  0.00    +0.132 C 
ATOM     21  O   UNL     1      10.303   4.862  23.736  0.00  0.00    -0.270 OA
ENDBRANCH  15  17
BRANCH  14  22
ATOM     22  N   UNL     1       7.570   4.567  21.860  0.00  0.00    -0.357 N 
ATOM     23  H   UNL     1       7.035   5.316  22.280  0.00  0.00    +0.142 HD
ATOM     24  H   UNL     1       8.446   4.865  21.419  0.00  0.00    +0.142 HD
ENDBRANCH  14  22
ENDBRANCH   6  11
BRANCH   1  26
ATOM     25  N   UNL     1       5.437  -4.935  23.068  0.00  0.00    -0.264 N 
ATOM     26  C   UNL     1       6.781  -4.783  23.342  0.00  0.00    +0.071 A 
ATOM     27  C   UNL     1       7.410  -5.241  22.198  0.00  0.00    +0.049 A 
ATOM     28  C   UNL     1       6.397  -5.651  21.324  0.00  0.00    +0.135 A 
ATOM     29  N   UNL     1       5.190  -5.477  21.850  0.00  0.00    -0.179 NA
BRANCH  25  31
ATOM     30  C   UNL     1       3.017  -5.267  23.361  0.00  0.00    +0.029 C 
ATOM     31  C   UNL     1       4.275  -4.574  23.855  0.00  0.00    +0.141 C 
ENDBRANCH  25  31
ENDBRANCH   1  26
TORSDOF 5
ENDMDL
MODEL 5
REMARK VINA RESULT:      -7.2      2.665      4.549
REMARK  Name = 
REMARK  8 active torsions:
REMARK  status: ('A' for Active; 'I' for Inactive)
REMARK    1  A    between atoms: C_1  and  C_2
REMARK    2  A    between atoms: C_2  and  N_3
REMARK    3  A    between atoms: C_7  and  C_8
REMARK    4  A    between atoms: C_14  and  C_17
REMARK    5  A    between atoms: C_19  and  C_20
REMARK    6  A    between atoms: N_22  and  C_23
REMARK    7  A    between atoms: N_22  and  C_24
REMARK    8  A    between atoms: C_25  and  N_26
REMARK                            x       y       z     vdW  Elec       q    Type
REMARK                         _______ _______ _______ _____ _____    ______ ____
ROOT
ATOM      1  C   UNL     1       7.641  -3.302  23.891  0.00  0.00    +0.027 A 
ATOM      2  C   UNL     1       8.257  -2.016  23.694  0.00  0.00    +0.028 A 
ATOM      3  C   UNL     1       9.582  -2.117  24.094  0.00  0.00    +0.139 A 
ATOM      4  N   UNL     1      10.502  -1.135  24.152  0.00  0.00    -0.237 NA
ATOM      5  C   UNL     1      10.010   0.082  23.787  0.00  0.00    +0.121 A 
ATOM      6  C   UNL     1       8.721   0.362  23.329  0.00  0.00    +0.001 A 
ATOM      7  N   UNL     1       9.814  -3.419  24.427  0.00  0.00    -0.345 N 
ATOM      8  H   UNL     1      10.711  -3.765  24.734  0.00  0.00    +0.167 HD
ATOM      9  C   UNL     1       7.860  -0.748  23.241  0.00  0.00    +0.022 A 
ATOM     10  C   UNL     1       8.648  -4.144  24.324  0.00  0.00    +0.095 A 
ENDROOT
BRANCH   6  11
ATOM     11  C   UNL     1       8.240   1.703  22.915  0.00  0.00    -0.016 A 
ATOM     12  C   UNL     1       7.103   1.891  22.123  0.00  0.00    +0.010 A 
ATOM     13  C   UNL     1       6.618   3.179  21.860  0.00  0.00    +0.024 A 
ATOM     14  C   UNL     1       7.193   4.312  22.452  0.00  0.00    +0.037 A 
ATOM     15  C   UNL     1       8.346   4.149  23.248  0.00  0.00    +0.058 A 
ATOM     16  C   UNL     1       8.894   2.866  23.377  0.00  0.00    +0.023 A 
BRANCH  15  17
ATOM     17  C   UNL     1       8.945   5.330  23.964  0.00  0.00    +0.248 C 
ATOM     18  N   UNL     1       8.625   5.638  25.301  0.00  0.00    -0.304 N 
ATOM     19  C   UNL     1       9.268   6.795  25.907  0.00  0.00    +0.132 C 
ATOM     20  C   UNL     1       7.781   4.873  26.205  0.00  0.00    +0.132 C 
ATOM     21  O   UNL     1       9.684   6.071  23.312  0.00  0.00    -0.270 OA
ENDBRANCH  15  17
BRANCH  14  22
ATOM     22  N   UNL     1       6.710   5.568  22.058  0.00  0.00    -0.357 N 
ATOM     23  H   UNL     1       5.945   5.571  21.395  0.00  0.00    +0.142 HD
ATOM     24  H   UNL     1       6.601   6.227  22.835  0.00  0.00    +0.142 HD
ENDBRANCH  14  22
ENDBRANCH   6  11
BRANCH   1  26
ATOM     25  N   UNL     1       5.542  -4.367  22.732  0.00  0.00    -0.264 N 
ATOM     26  C   UNL     1       6.185  -3.658  23.727  0.00  0.00    +0.071 A 
ATOM     27  C   UNL     1       5.182  -3.367  24.634  0.00  0.00    +0.049 A 
ATOM     28  C   UNL     1       4.002  -3.911  24.109  0.00  0.00    +0.135 A 
ATOM     29  N   UNL     1       4.212  -4.514  22.945  0.00  0.00    -0.179 NA
BRANCH  25  31
ATOM     30  C   UNL     1       6.811  -6.285  21.860  0.00  0.00    +0.029 C 
ATOM     31  C   UNL     1       6.073  -4.997  21.540  0.00  0.00    +0.141 C 
ENDBRANCH  25  31
ENDBRANCH   1  26
TORSDOF 5
ENDMDL
MODEL 6
REMARK VINA RESULT:      -7.0      2.017      3.786
REMARK  Name = 
REMARK  8 active torsions:
REMARK  status: ('A' for Active; 'I' for Inactive)
REMARK    1  A    between atoms: C_1  and  C_2
REMARK    2  A    between atoms: C_2  and  N_3
REMARK    3  A    between atoms: C_7  and  C_8
REMARK    4  A    between atoms: C_14  and  C_17
REMARK    5  A    between atoms: C_19  and  C_20
REMARK    6  A    between atoms: N_22  and  C_23
REMARK    7  A    between atoms: N_22  and  C_24
REMARK    8  A    between atoms: C_25  and  N_26
REMARK                            x       y       z     vdW  Elec       q    Type
REMARK                         _______ _______ _______ _____ _____    ______ ____
ROOT
ATOM      1  C   UNL     1       5.078  -5.802  25.622  0.00  0.00    +0.027 A 
ATOM      2  C   UNL     1       6.277  -5.010  25.536  0.00  0.00    +0.028 A 
ATOM      3  C   UNL     1       7.047  -5.287  26.656  0.00  0.00    +0.139 A 
ATOM      4  N   UNL     1       8.210  -4.713  27.019  0.00  0.00    -0.237 NA
ATOM      5  C   UNL     1       8.616  -3.736  26.160  0.00  0.00    +0.121 A 
ATOM      6  C   UNL     1       7.988  -3.349  24.974  0.00  0.00    +0.001 A 
ATOM      7  N   UNL     1       6.417  -6.275  27.356  0.00  0.00    -0.345 N 
ATOM      8  H   UNL     1       6.783  -6.675  28.207  0.00  0.00    +0.167 HD
ATOM      9  C   UNL     1       6.817  -4.060  24.655  0.00  0.00    +0.022 A 
ATOM     10  C   UNL     1       5.219  -6.586  26.752  0.00  0.00    +0.095 A 
ENDROOT
BRANCH   6  11
ATOM     11  C   UNL     1       8.485  -2.295  24.056  0.00  0.00    -0.016 A 
ATOM     12  C   UNL     1       8.567  -2.472  22.671  0.00  0.00    +0.010 A 
ATOM     13  C   UNL     1       8.927  -1.408  21.834  0.00  0.00    +0.024 A 
ATOM     14  C   UNL     1       9.126  -0.115  22.337  0.00  0.00    +0.037 A 
ATOM     15  C   UNL     1       9.058   0.086  23.731  0.00  0.00    +0.058 A 
ATOM     16  C   UNL     1       8.838  -1.024  24.558  0.00  0.00    +0.023 A 
BRANCH  15  17
ATOM     17  C   UNL     1       9.187   1.473  24.303  0.00  0.00    +0.248 C 
ATOM     18  N   UNL     1       8.063   2.260  24.621  0.00  0.00    -0.304 N 
ATOM     19  C   UNL     1       8.295   3.585  25.182  0.00  0.00    +0.132 C 
ATOM     20  C   UNL     1       6.664   1.874  24.544  0.00  0.00    +0.132 C 
ATOM     21  O   UNL     1      10.325   1.931  24.422  0.00  0.00    -0.270 OA
ENDBRANCH  15  17
BRANCH  14  22
ATOM     22  N   UNL     1       9.580   0.868  21.445  0.00  0.00    -0.357 N 
ATOM     23  H   UNL     1      10.107   1.633  21.846  0.00  0.00    +0.142 HD
ATOM     24  H   UNL     1       9.975   0.485  20.581  0.00  0.00    +0.142 HD
ENDBRANCH  14  22
ENDBRANCH   6  11
BRANCH   1  26
ATOM     25  N   UNL     1       2.915  -4.777  24.549  0.00  0.00    -0.264 N 
ATOM     26  C   UNL     1       3.877  -5.753  24.712  0.00  0.00    +0.071 A 
ATOM     27  C   UNL     1       3.540  -6.716  23.777  0.00  0.00    +0.049 A 
ATOM     28  C   UNL     1       2.388  -6.256  23.129  0.00  0.00    +0.135 A 
ATOM     29  N   UNL     1       1.994  -5.078  23.600  0.00  0.00    -0.179 NA
BRANCH  25  31
ATOM     30  C   UNL     1       1.653  -3.500  26.230  0.00  0.00    +0.029 C 
ATOM     31  C   UNL     1       2.768  -3.490  25.198  0.00  0.00    +0.141 C 
ENDBRANCH  25  31
ENDBRANCH   1  26
TORSDOF 5
ENDMDL
MODEL 7
REMARK VINA RESULT:      -7.0      2.789      4.512
REMARK  Name = 
REMARK  8 active torsions:
REMARK  status: ('A' for Active; 'I' for Inactive)
REMARK    1  A    between atoms: C_1  and  C_2
REMARK    2  A    between atoms: C_2  and  N_3
REMARK    3  A    between atoms: C_7  and  C_8
REMARK    4  A    between atoms: C_14  and  C_17
REMARK    5  A    between atoms: C_19  and  C_20
REMARK    6  A    between atoms: N_22  and  C_23
REMARK    7  A    between atoms: N_22  and  C_24
REMARK    8  A    between atoms: C_25  and  N_26
REMARK                            x       y       z     vdW  Elec       q    Type
REMARK                         _______ _______ _______ _____ _____    ______ ____
ROOT
ATOM      1  C   UNL     1       6.997  -2.910  26.247  0.00  0.00    +0.027 A 
ATOM      2  C   UNL     1       7.149  -1.483  26.148  0.00  0.00    +0.028 A 
ATOM      3  C   UNL     1       6.006  -0.899  26.676  0.00  0.00    +0.139 A 
ATOM      4  N   UNL     1       5.691   0.410  26.713  0.00  0.00    -0.237 NA
ATOM      5  C   UNL     1       6.632   1.204  26.129  0.00  0.00    +0.121 A 
ATOM      6  C   UNL     1       7.849   0.796  25.580  0.00  0.00    +0.001 A 
ATOM      7  N   UNL     1       5.223  -1.900  27.173  0.00  0.00    -0.345 N 
ATOM      8  H   UNL     1       4.339  -1.741  27.632  0.00  0.00    +0.167 HD
ATOM      9  C   UNL     1       8.109  -0.585  25.654  0.00  0.00    +0.022 A 
ATOM     10  C   UNL     1       5.802  -3.122  26.908  0.00  0.00    +0.095 A 
ENDROOT
BRANCH   6  11
ATOM     11  C   UNL     1       8.855   1.704  24.978  0.00  0.00    -0.016 A 
ATOM     12  C   UNL     1      10.069   1.251  24.450  0.00  0.00    +0.010 A 
ATOM     13  C   UNL     1      10.932   2.129  23.782  0.00  0.00    +0.024 A 
ATOM     14  C   UNL     1      10.575   3.463  23.539  0.00  0.00    +0.037 A 
ATOM     15  C   UNL     1       9.361   3.946  24.069  0.00  0.00    +0.058 A 
ATOM     16  C   UNL     1       8.584   3.084  24.855  0.00  0.00    +0.023 A 
BRANCH  15  17
ATOM     17  C   UNL     1       8.905   5.348  23.762  0.00  0.00    +0.248 C 
ATOM     18  N   UNL     1       7.881   5.617  22.834  0.00  0.00    -0.304 N 
ATOM     19  C   UNL     1       7.504   7.007  22.617  0.00  0.00    +0.132 C 
ATOM     20  C   UNL     1       7.067   4.652  22.113  0.00  0.00    +0.132 C 
ATOM     21  O   UNL     1       9.513   6.271  24.307  0.00  0.00    -0.270 OA
ENDBRANCH  15  17
BRANCH  14  22
ATOM     22  N   UNL     1      11.537   4.298  22.953  0.00  0.00    -0.357 N 
ATOM     23  H   UNL     1      11.263   4.779  22.106  0.00  0.00    +0.142 HD
ATOM     24  H   UNL     1      12.040   4.881  23.630  0.00  0.00    +0.142 HD
ENDBRANCH  14  22
ENDBRANCH   6  11
BRANCH   1  26
ATOM     25  N   UNL     1       8.013  -4.493  24.418  0.00  0.00    -0.264 N 
ATOM     26  C   UNL     1       7.913  -3.972  25.692  0.00  0.00    +0.071 A 
ATOM     27  C   UNL     1       8.918  -4.611  26.396  0.00  0.00    +0.049 A 
ATOM     28  C   UNL     1       9.541  -5.484  25.496  0.00  0.00    +0.135 A 
ATOM     29  N   UNL     1       8.990  -5.424  24.289  0.00  0.00    -0.179 NA
BRANCH  25  31
ATOM     30  C   UNL     1       7.778  -2.894  22.564  0.00  0.00    +0.029 C 
ATOM     31  C   UNL     1       7.274  -4.170  23.214  0.00  0.00    +0.141 C 
ENDBRANCH  25  31
ENDBRANCH   1  26
TORSDOF 5
ENDMDL
MODEL 8
REMARK VINA RESULT:      -6.9      2.507      7.807
REMARK  Name = 
REMARK  8 active torsions:
REMARK  status: ('A' for Active; 'I' for Inactive)
REMARK    1  A    between atoms: C_1  and  C_2
REMARK    2  A    between atoms: C_2  and  N_3
REMARK    3  A    between atoms: C_7  and  C_8
REMARK    4  A    between atoms: C_14  and  C_17
REMARK    5  A    between atoms: C_19  and  C_20
REMARK    6  A    between atoms: N_22  and  C_23
REMARK    7  A    between atoms: N_22  and  C_24
REMARK    8  A    between atoms: C_25  and  N_26
REMARK                            x       y       z     vdW  Elec       q    Type
REMARK                         _______ _______ _______ _____ _____    ______ ____
ROOT
ATOM      1  C   UNL     1       8.923   2.263  23.557  0.00  0.00    +0.027 A 
ATOM      2  C   UNL     1       9.048   0.842  23.366  0.00  0.00    +0.028 A 
ATOM      3  C   UNL     1       9.437   0.625  22.052  0.00  0.00    +0.139 A 
ATOM      4  N   UNL     1       9.596  -0.555  21.424  0.00  0.00    -0.237 NA
ATOM      5  C   UNL     1       9.302  -1.626  22.214  0.00  0.00    +0.121 A 
ATOM      6  C   UNL     1       8.929  -1.597  23.559  0.00  0.00    +0.001 A 
ATOM      7  N   UNL     1       9.646   1.845  21.477  0.00  0.00    -0.345 N 
ATOM      8  H   UNL     1       9.957   1.966  20.524  0.00  0.00    +0.167 HD
ATOM      9  C   UNL     1       8.860  -0.316  24.136  0.00  0.00    +0.022 A 
ATOM     10  C   UNL     1       9.326   2.844  22.369  0.00  0.00    +0.095 A 
ENDROOT
BRANCH   6  11
ATOM     11  C   UNL     1       8.645  -2.795  24.386  0.00  0.00    -0.016 A 
ATOM     12  C   UNL     1       9.633  -3.714  24.757  0.00  0.00    +0.010 A 
ATOM     13  C   UNL     1       9.341  -4.762  25.640  0.00  0.00    +0.024 A 
ATOM     14  C   UNL     1       8.085  -4.876  26.252  0.00  0.00    +0.037 A 
ATOM     15  C   UNL     1       7.070  -3.968  25.887  0.00  0.00    +0.058 A 
ATOM     16  C   UNL     1       7.346  -3.017  24.895  0.00  0.00    +0.023 A 
BRANCH  15  17
ATOM     17  C   UNL     1       5.734  -4.007  26.580  0.00  0.00    +0.248 C 
ATOM     18  N   UNL     1       4.666  -4.795  26.107  0.00  0.00    -0.304 N 
ATOM     19  C   UNL     1       3.418  -4.772  26.857  0.00  0.00    +0.132 C 
ATOM     20  C   UNL     1       4.681  -5.722  24.987  0.00  0.00    +0.132 C 
ATOM     21  O   UNL     1       5.580  -3.264  27.551  0.00  0.00    -0.270 OA
ENDBRANCH  15  17
BRANCH  14  22
ATOM     22  N   UNL     1       7.847  -6.009  27.043  0.00  0.00    -0.357 N 
ATOM     23  H   UNL     1       6.957  -6.472  26.913  0.00  0.00    +0.142 HD
ATOM     24  H   UNL     1       8.651  -6.641  27.105  0.00  0.00    +0.142 HD
ENDBRANCH  14  22
ENDBRANCH   6  11
BRANCH   1  26
ATOM     25  N   UNL     1       8.630   4.270  25.220  0.00  0.00    -0.264 N 
ATOM     26  C   UNL     1       8.402   2.984  24.774  0.00  0.00    +0.071 A 
ATOM     27  C   UNL     1       7.497   2.468  25.685  0.00  0.00    +0.049 A 
ATOM     28  C   UNL     1       7.259   3.479  26.624  0.00  0.00    +0.135 A 
ATOM     29  N   UNL     1       7.952   4.578  26.353  0.00  0.00    -0.179 NA
BRANCH  25  31
ATOM     30  C   UNL     1       8.622   6.241  23.748  0.00  0.00    +0.029 C 
ATOM     31  C   UNL     1       9.437   5.330  24.649  0.00  0.00    +0.141 C 
ENDBRANCH  25  31
ENDBRANCH   1  26
TORSDOF 5
ENDMDL
MODEL 9
REMARK VINA RESULT:      -6.9      2.667      4.053
REMARK  Name = 
REMARK  8 active torsions:
REMARK  status: ('A' for Active; 'I' for Inactive)
REMARK    1  A    between atoms: C_1  and  C_2
REMARK    2  A    between atoms: C_2  and  N_3
REMARK    3  A    between atoms: C_7  and  C_8
REMARK    4  A    between atoms: C_14  and  C_17
REMARK    5  A    between atoms: C_19  and  C_20
REMARK    6  A    between atoms: N_22  and  C_23
REMARK    7  A    between atoms: N_22  and  C_24
REMARK    8  A    between atoms: C_25  and  N_26
REMARK                            x       y       z     vdW  Elec       q    Type
REMARK                         _______ _______ _______ _____ _____    ______ ____
ROOT
ATOM      1  C   UNL     1       5.737  -3.401  24.270  0.00  0.00    +0.027 A 
ATOM      2  C   UNL     1       6.100  -2.054  24.624  0.00  0.00    +0.028 A 
ATOM      3  C   UNL     1       5.064  -1.522  25.378  0.00  0.00    +0.139 A 
ATOM      4  N   UNL     1       4.951  -0.267  25.852  0.00  0.00    -0.237 NA
ATOM      5  C   UNL     1       5.992   0.537  25.496  0.00  0.00    +0.121 A 
ATOM      6  C   UNL     1       7.127   0.166  24.773  0.00  0.00    +0.001 A 
ATOM      7  N   UNL     1       4.147  -2.513  25.576  0.00  0.00    -0.345 N 
ATOM      8  H   UNL     1       3.302  -2.391  26.114  0.00  0.00    +0.167 HD
ATOM      9  C   UNL     1       7.178  -1.186  24.385  0.00  0.00    +0.022 A 
ATOM     10  C   UNL     1       4.532  -3.649  24.900  0.00  0.00    +0.095 A 
ENDROOT
BRANCH   6  11
ATOM     11  C   UNL     1       8.251   1.073  24.433  0.00  0.00    -0.016 A 
ATOM     12  C   UNL     1       9.408   0.637  23.780  0.00  0.00    +0.010 A 
ATOM     13  C   UNL     1      10.387   1.552  23.371  0.00  0.00    +0.024 A 
ATOM     14  C   UNL     1      10.205   2.934  23.517  0.00  0.00    +0.037 A 
ATOM     15  C   UNL     1       9.050   3.397  24.181  0.00  0.00    +0.058 A 
ATOM     16  C   UNL     1       8.156   2.455  24.707  0.00  0.00    +0.023 A 
BRANCH  15  17
ATOM     17  C   UNL     1       8.779   4.875  24.287  0.00  0.00    +0.248 C 
ATOM     18  N   UNL     1       7.984   5.560  23.347  0.00  0.00    -0.304 N 
ATOM     19  C   UNL     1       7.772   6.988  23.546  0.00  0.00    +0.132 C 
ATOM     20  C   UNL     1       7.255   4.992  22.226  0.00  0.00    +0.132 C 
ATOM     21  O   UNL     1       9.339   5.488  25.198  0.00  0.00    -0.270 OA
ENDBRANCH  15  17
BRANCH  14  22
ATOM     22  N   UNL     1      11.275   3.772  23.173  0.00  0.00    -0.357 N 
ATOM     23  H   UNL     1      11.270   4.151  22.235  0.00  0.00    +0.142 HD
ATOM     24  H   UNL     1      11.516   4.449  23.904  0.00  0.00    +0.142 HD
ENDBRANCH  14  22
ENDBRANCH   6  11
BRANCH   1  26
ATOM     25  N   UNL     1       7.636  -5.061  23.547  0.00  0.00    -0.264 N 
ATOM     26  C   UNL     1       6.476  -4.340  23.350  0.00  0.00    +0.071 A 
ATOM     27  C   UNL     1       6.061  -4.712  22.083  0.00  0.00    +0.049 A 
ATOM     28  C   UNL     1       7.012  -5.621  21.604  0.00  0.00    +0.135 A 
ATOM     29  N   UNL     1       7.981  -5.832  22.487  0.00  0.00    -0.179 NA
BRANCH  25  31
ATOM     30  C   UNL     1       9.458  -3.971  24.788  0.00  0.00    +0.029 C 
ATOM     31  C   UNL     1       8.499  -5.145  24.708  0.00  0.00    +0.141 C 
ENDBRANCH  25  31
ENDBRANCH   1  26
TORSDOF 5
ENDMDL
