MODEL 1
REMARK VINA RESULT:      -7.4      0.000      0.000
REMARK  Name = 
REMARK  3 active torsions:
REMARK  status: ('A' for Active; 'I' for Inactive)
REMARK    1  A    between atoms: CA_9  and  CB_11
REMARK    2  A    between atoms: CB_11  and  CG_12
REMARK    3  A    between atoms: CZ_15  and  OH_16
REMARK                            x       y       z     vdW  Elec       q    Type
REMARK                         _______ _______ _______ _____ _____    ______ ____
ROOT
ATOM      1  CA  PRO A   2       7.330  -4.790  23.508  0.00  0.00    +0.162 C 
ATOM      2  C   PRO A   2       8.669  -4.758  24.238  0.00  0.00    +0.234 C 
ATOM      3  O   PRO A   2       9.329  -5.743  24.544  0.00  0.00    -0.274 OA
ATOM      4  N   TYR A   1       8.920  -3.522  24.797  0.00  0.00    -0.302 N 
ATOM      5  H   TYR A   1       9.738  -3.513  25.395  0.00  0.00    +0.150 HD
ATOM      6  CA  TYR A   1       8.670  -2.289  24.033  0.00  0.00    +0.163 C 
ATOM      7  C   TYR A   1       7.443  -2.372  23.083  0.00  0.00    +0.237 C 
ATOM      8  O   TYR A   1       6.920  -1.369  22.603  0.00  0.00    -0.274 OA
ATOM      9  N   PRO A   2       7.168  -3.650  22.632  0.00  0.00    -0.288 N 
ATOM     10  CD  PRO A   2       6.152  -3.942  21.651  0.00  0.00    +0.109 C 
ATOM     11  CG  PRO A   2       6.323  -5.434  21.391  0.00  0.00    +0.021 C 
ATOM     12  CB  PRO A   2       7.065  -5.994  22.616  0.00  0.00    +0.033 C 
ENDROOT
BRANCH   6  13
ATOM     13  CB  TYR A   1       9.902  -1.877  23.198  0.00  0.00    +0.067 C 
BRANCH  13  14
ATOM     14  CG  TYR A   1      10.102  -0.375  23.148  0.00  0.00    -0.045 A 
ATOM     15  CD2 TYR A   1       9.867   0.343  21.967  0.00  0.00    +0.007 A 
ATOM     16  CE2 TYR A   1       9.981   1.736  21.956  0.00  0.00    +0.045 A 
ATOM     17  CZ  TYR A   1      10.315   2.412  23.121  0.00  0.00    +0.117 A 
ATOM     18  CE1 TYR A   1      10.568   1.718  24.299  0.00  0.00    +0.045 A 
ATOM     19  CD1 TYR A   1      10.469   0.326  24.308  0.00  0.00    +0.007 A 
BRANCH  17  20
ATOM     20  OH  TYR A   1      10.380   3.774  23.072  0.00  0.00    -0.507 OA
ATOM     21  HH  TYR A   1      10.626   4.103  23.954  0.00  0.00    +0.292 HD
ENDBRANCH  17  20
ENDBRANCH  13  14
ENDBRANCH   6  13
TORSDOF 3
ENDMDL
MODEL 2
REMARK VINA RESULT:      -6.7      2.198      3.272
REMARK  Name = 
REMARK  3 active torsions:
REMARK  status: ('A' for Active; 'I' for Inactive)
REMARK    1  A    between atoms: CA_9  and  CB_11
REMARK    2  A    between atoms: CB_11  and  CG_12
REMARK    3  A    between atoms: CZ_15  and  OH_16
REMARK                            x       y       z     vdW  Elec       q    Type
REMARK                         _______ _______ _______ _____ _____    ______ ____
ROOT
ATOM      1  CA  PRO A   2       5.928  -5.505  24.051  0.00  0.00    +0.162 C 
ATOM      2  C   PRO A   2       5.240  -4.701  22.953  0.00  0.00    +0.234 C 
ATOM      3  O   PRO A   2       4.091  -4.875  22.565  0.00  0.00    -0.274 OA
ATOM      4  N   TYR A   1       6.141  -3.955  22.220  0.00  0.00    -0.302 N 
ATOM      5  H   TYR A   1       5.727  -3.516  21.406  0.00  0.00    +0.150 HD
ATOM      6  CA  TYR A   1       7.202  -3.189  22.894  0.00  0.00    +0.163 C 
ATOM      7  C   TYR A   1       7.761  -3.873  24.172  0.00  0.00    +0.237 C 
ATOM      8  O   TYR A   1       8.826  -3.532  24.683  0.00  0.00    -0.274 OA
ATOM      9  N   PRO A   2       6.850  -4.693  24.814  0.00  0.00    -0.288 N 
ATOM     10  CD  PRO A   2       7.115  -5.332  26.080  0.00  0.00    +0.109 C 
ATOM     11  CG  PRO A   2       5.791  -6.001  26.427  0.00  0.00    +0.021 C 
ATOM     12  CB  PRO A   2       5.028  -6.142  25.100  0.00  0.00    +0.033 C 
ENDROOT
BRANCH   6  13
ATOM     13  CB  TYR A   1       6.726  -1.770  23.273  0.00  0.00    +0.067 C 
BRANCH  13  14
ATOM     14  CG  TYR A   1       7.636  -0.682  22.739  0.00  0.00    -0.045 A 
ATOM     15  CD2 TYR A   1       7.324   0.672  22.923  0.00  0.00    +0.007 A 
ATOM     16  CE2 TYR A   1       8.211   1.663  22.493  0.00  0.00    +0.045 A 
ATOM     17  CZ  TYR A   1       9.411   1.306  21.895  0.00  0.00    +0.117 A 
ATOM     18  CE1 TYR A   1       9.733  -0.031  21.688  0.00  0.00    +0.045 A 
ATOM     19  CD1 TYR A   1       8.841  -1.021  22.103  0.00  0.00    +0.007 A 
BRANCH  17  20
ATOM     20  OH  TYR A   1      10.262   2.306  21.524  0.00  0.00    -0.507 OA
ATOM     21  HH  TYR A   1      10.332   2.940  22.258  0.00  0.00    +0.292 HD
ENDBRANCH  17  20
ENDBRANCH  13  14
ENDBRANCH   6  13
TORSDOF 3
ENDMDL
MODEL 3
REMARK VINA RESULT:      -6.6      1.847      2.000
REMARK  Name = 
REMARK  3 active torsions:
REMARK  status: ('A' for Active; 'I' for Inactive)
REMARK    1  A    between atoms: CA_9  and  CB_11
REMARK    2  A    between atoms: CB_11  and  CG_12
REMARK    3  A    between atoms: CZ_15  and  OH_16
REMARK                            x       y       z     vdW  Elec       q    Type
REMARK                         _______ _______ _______ _____ _____    ______ ____
ROOT
ATOM      1  CA  PRO A   2       6.082  -4.675  25.625  0.00  0.00    +0.162 C 
ATOM      2  C   PRO A   2       7.511  -4.792  26.145  0.00  0.00    +0.234 C 
ATOM      3  O   PRO A   2       7.994  -5.789  26.667  0.00  0.00    -0.274 OA
ATOM      4  N   TYR A   1       8.122  -3.558  26.250  0.00  0.00    -0.302 N 
ATOM      5  H   TYR A   1       9.022  -3.597  26.714  0.00  0.00    +0.150 HD
ATOM      6  CA  TYR A   1       7.998  -2.566  25.170  0.00  0.00    +0.163 C 
ATOM      7  C   TYR A   1       6.623  -2.588  24.446  0.00  0.00    +0.237 C 
ATOM      8  O   TYR A   1       6.243  -1.658  23.738  0.00  0.00    -0.274 OA
ATOM      9  N   PRO A   2       6.002  -3.824  24.458  0.00  0.00    -0.288 N 
ATOM     10  CD  PRO A   2       4.779  -4.102  23.747  0.00  0.00    +0.109 C 
ATOM     11  CG  PRO A   2       4.576  -5.598  23.955  0.00  0.00    +0.021 C 
ATOM     12  CB  PRO A   2       5.402  -5.968  25.198  0.00  0.00    +0.033 C 
ENDROOT
BRANCH   6  13
ATOM     13  CB  TYR A   1       9.107  -2.739  24.109  0.00  0.00    +0.067 C 
BRANCH  13  14
ATOM     14  CG  TYR A   1       9.478  -1.436  23.430  0.00  0.00    -0.045 A 
ATOM     15  CD2 TYR A   1       9.244  -1.247  22.060  0.00  0.00    +0.007 A 
ATOM     16  CE2 TYR A   1       9.519  -0.013  21.463  0.00  0.00    +0.045 A 
ATOM     17  CZ  TYR A   1      10.013   1.032  22.231  0.00  0.00    +0.117 A 
ATOM     18  CE1 TYR A   1      10.269   0.861  23.586  0.00  0.00    +0.045 A 
ATOM     19  CD1 TYR A   1      10.008  -0.375  24.181  0.00  0.00    +0.007 A 
BRANCH  17  20
ATOM     20  OH  TYR A   1      10.234   2.228  21.613  0.00  0.00    -0.507 OA
ATOM     21  HH  TYR A   1      10.971   2.121  20.987  0.00  0.00    +0.292 HD
ENDBRANCH  17  20
ENDBRANCH  13  14
ENDBRANCH   6  13
TORSDOF 3
ENDMDL
MODEL 4
REMARK VINA RESULT:      -6.6      1.960      3.480
REMARK  Name = 
REMARK  3 active torsions:
REMARK  status: ('A' for Active; 'I' for Inactive)
REMARK    1  A    between atoms: CA_9  and  CB_11
REMARK    2  A    between atoms: CB_11  and  CG_12
REMARK    3  A    between atoms: CZ_15  and  OH_16
REMARK                            x       y       z     vdW  Elec       q    Type
REMARK                         _______ _______ _______ _____ _____    ______ ____
ROOT
ATOM      1  CA  PRO A   2       6.297  -3.911  25.433  0.00  0.00    +0.162 C 
ATOM      2  C   PRO A   2       6.501  -2.596  24.688  0.00  0.00    +0.234 C 
ATOM      3  O   PRO A   2       5.839  -1.580  24.855  0.00  0.00    -0.274 OA
ATOM      4  N   TYR A   1       7.310  -2.753  23.581  0.00  0.00    -0.302 N 
ATOM      5  H   TYR A   1       7.354  -1.926  22.998  0.00  0.00    +0.150 HD
ATOM      6  CA  TYR A   1       8.547  -3.547  23.663  0.00  0.00    +0.163 C 
ATOM      7  C   TYR A   1       8.451  -4.770  24.617  0.00  0.00    +0.237 C 
ATOM      8  O   TYR A   1       9.264  -5.690  24.584  0.00  0.00    -0.274 OA
ATOM      9  N   PRO A   2       7.549  -4.604  25.653  0.00  0.00    -0.288 N 
ATOM     10  CD  PRO A   2       7.385  -5.559  26.721  0.00  0.00    +0.109 C 
ATOM     11  CG  PRO A   2       6.398  -4.878  27.662  0.00  0.00    +0.021 C 
ATOM     12  CB  PRO A   2       5.666  -3.823  26.816  0.00  0.00    +0.033 C 
ENDROOT
BRANCH   6  13
ATOM     13  CB  TYR A   1       9.750  -2.684  24.102  0.00  0.00    +0.067 C 
BRANCH  13  14
ATOM     14  CG  TYR A   1       9.768  -1.321  23.439  0.00  0.00    -0.045 A 
ATOM     15  CD2 TYR A   1      10.067  -0.167  24.177  0.00  0.00    +0.007 A 
ATOM     16  CE2 TYR A   1      10.156   1.073  23.538  0.00  0.00    +0.045 A 
ATOM     17  CZ  TYR A   1       9.960   1.160  22.166  0.00  0.00    +0.117 A 
ATOM     18  CE1 TYR A   1       9.645   0.031  21.419  0.00  0.00    +0.045 A 
ATOM     19  CD1 TYR A   1       9.542  -1.205  22.058  0.00  0.00    +0.007 A 
BRANCH  17  20
ATOM     20  OH  TYR A   1      10.092   2.385  21.580  0.00  0.00    -0.507 OA
ATOM     21  HH  TYR A   1      11.039   2.580  21.480  0.00  0.00    +0.292 HD
ENDBRANCH  17  20
ENDBRANCH  13  14
ENDBRANCH   6  13
TORSDOF 3
ENDMDL
MODEL 5
REMARK VINA RESULT:      -6.5      1.607      2.550
REMARK  Name = 
REMARK  3 active torsions:
REMARK  status: ('A' for Active; 'I' for Inactive)
REMARK    1  A    between atoms: CA_9  and  CB_11
REMARK    2  A    between atoms: CB_11  and  CG_12
REMARK    3  A    between atoms: CZ_15  and  OH_16
REMARK                            x       y       z     vdW  Elec       q    Type
REMARK                         _______ _______ _______ _____ _____    ______ ____
ROOT
ATOM      1  CA  PRO A   2       6.623  -4.893  23.296  0.00  0.00    +0.162 C 
ATOM      2  C   PRO A   2       6.426  -3.831  22.219  0.00  0.00    +0.234 C 
ATOM      3  O   PRO A   2       5.523  -3.823  21.392  0.00  0.00    -0.274 OA
ATOM      4  N   TYR A   1       7.546  -3.039  22.068  0.00  0.00    -0.302 N 
ATOM      5  H   TYR A   1       7.489  -2.414  21.273  0.00  0.00    +0.150 HD
ATOM      6  CA  TYR A   1       8.259  -2.517  23.246  0.00  0.00    +0.163 C 
ATOM      7  C   TYR A   1       8.266  -3.485  24.461  0.00  0.00    +0.237 C 
ATOM      8  O   TYR A   1       9.044  -3.347  25.402  0.00  0.00    -0.274 OA
ATOM      9  N   PRO A   2       7.172  -4.331  24.511  0.00  0.00    -0.288 N 
ATOM     10  CD  PRO A   2       6.914  -5.227  25.611  0.00  0.00    +0.109 C 
ATOM     11  CG  PRO A   2       5.557  -5.831  25.270  0.00  0.00    +0.021 C 
ATOM     12  CB  PRO A   2       5.379  -5.641  23.755  0.00  0.00    +0.033 C 
ENDROOT
BRANCH   6  13
ATOM     13  CB  TYR A   1       7.678  -1.163  23.709  0.00  0.00    +0.067 C 
BRANCH  13  14
ATOM     14  CG  TYR A   1       8.617  -0.002  23.452  0.00  0.00    -0.045 A 
ATOM     15  CD2 TYR A   1       8.978   0.356  22.145  0.00  0.00    +0.007 A 
ATOM     16  CE2 TYR A   1       9.783   1.476  21.919  0.00  0.00    +0.045 A 
ATOM     17  CZ  TYR A   1      10.216   2.244  22.991  0.00  0.00    +0.117 A 
ATOM     18  CE1 TYR A   1       9.884   1.898  24.296  0.00  0.00    +0.045 A 
ATOM     19  CD1 TYR A   1       9.093   0.771  24.524  0.00  0.00    +0.007 A 
BRANCH  17  20
ATOM     20  OH  TYR A   1      10.970   3.349  22.721  0.00  0.00    -0.507 OA
ATOM     21  HH  TYR A   1      10.714   4.056  23.337  0.00  0.00    +0.292 HD
ENDBRANCH  17  20
ENDBRANCH  13  14
ENDBRANCH   6  13
TORSDOF 3
ENDMDL
MODEL 6
REMARK VINA RESULT:      -6.4      2.377      6.890
REMARK  Name = 
REMARK  3 active torsions:
REMARK  status: ('A' for Active; 'I' for Inactive)
REMARK    1  A    between atoms: CA_9  and  CB_11
REMARK    2  A    between atoms: CB_11  and  CG_12
REMARK    3  A    between atoms: CZ_15  and  OH_16
REMARK                            x       y       z     vdW  Elec       q    Type
REMARK                         _______ _______ _______ _____ _____    ______ ____
ROOT
ATOM      1  CA  PRO A   2       8.456   1.201  23.760  0.00  0.00    +0.162 C 
ATOM      2  C   PRO A   2       7.442   1.041  22.632  0.00  0.00    +0.234 C 
ATOM      3  O   PRO A   2       7.297   1.820  21.698  0.00  0.00    -0.274 OA
ATOM      4  N   TYR A   1       6.489   0.089  22.929  0.00  0.00    -0.302 N 
ATOM      5  H   TYR A   1       5.733   0.057  22.255  0.00  0.00    +0.150 HD
ATOM      6  CA  TYR A   1       6.878  -1.202  23.518  0.00  0.00    +0.163 C 
ATOM      7  C   TYR A   1       8.082  -1.114  24.497  0.00  0.00    +0.237 C 
ATOM      8  O   TYR A   1       8.349  -2.015  25.288  0.00  0.00    -0.274 OA
ATOM      9  N   PRO A   2       8.955  -0.077  24.219  0.00  0.00    -0.288 N 
ATOM     10  CD  PRO A   2      10.199   0.120  24.923  0.00  0.00    +0.109 C 
ATOM     11  CG  PRO A   2      10.849   1.281  24.181  0.00  0.00    +0.021 C 
ATOM     12  CB  PRO A   2       9.709   2.006  23.446  0.00  0.00    +0.033 C 
ENDROOT
BRANCH   6  13
ATOM     13  CB  TYR A   1       7.214  -2.247  22.431  0.00  0.00    +0.067 C 
BRANCH  13  14
ATOM     14  CG  TYR A   1       6.499  -3.566  22.643  0.00  0.00    -0.045 A 
ATOM     15  CD2 TYR A   1       7.092  -4.776  22.255  0.00  0.00    +0.007 A 
ATOM     16  CE2 TYR A   1       6.456  -5.990  22.527  0.00  0.00    +0.045 A 
ATOM     17  CZ  TYR A   1       5.239  -6.000  23.194  0.00  0.00    +0.117 A 
ATOM     18  CE1 TYR A   1       4.625  -4.812  23.572  0.00  0.00    +0.045 A 
ATOM     19  CD1 TYR A   1       5.252  -3.597  23.288  0.00  0.00    +0.007 A 
BRANCH  17  20
ATOM     20  OH  TYR A   1       4.672  -7.210  23.469  0.00  0.00    -0.507 OA
ATOM     21  HH  TYR A   1       3.826  -7.270  22.992  0.00  0.00    +0.292 HD
ENDBRANCH  17  20
ENDBRANCH  13  14
ENDBRANCH   6  13
TORSDOF 3
ENDMDL
MODEL 7
REMARK VINA RESULT:      -6.3      1.985      3.006
REMARK  Name = 
REMARK  3 active torsions:
REMARK  status: ('A' for Active; 'I' for Inactive)
REMARK    1  A    between atoms: CA_9  and  CB_11
REMARK    2  A    between atoms: CB_11  and  CG_12
REMARK    3  A    between atoms: CZ_15  and  OH_16
REMARK                            x       y       z     vdW  Elec       q    Type
REMARK                         _______ _______ _______ _____ _____    ______ ____
ROOT
ATOM      1  CA  PRO A   2       6.844  -3.306  24.220  0.00  0.00    +0.162 C 
ATOM      2  C   PRO A   2       6.405  -1.847  24.289  0.00  0.00    +0.234 C 
ATOM      3  O   PRO A   2       5.304  -1.457  24.657  0.00  0.00    -0.274 OA
ATOM      4  N   TYR A   1       7.268  -1.017  23.602  0.00  0.00    -0.302 N 
ATOM      5  H   TYR A   1       6.930  -0.066  23.524  0.00  0.00    +0.150 HD
ATOM      6  CA  TYR A   1       8.725  -1.171  23.742  0.00  0.00    +0.163 C 
ATOM      7  C   TYR A   1       9.192  -2.642  23.924  0.00  0.00    +0.237 C 
ATOM      8  O   TYR A   1      10.362  -2.982  23.763  0.00  0.00    -0.274 OA
ATOM      9  N   PRO A   2       8.250  -3.459  24.524  0.00  0.00    -0.288 N 
ATOM     10  CD  PRO A   2       8.512  -4.828  24.896  0.00  0.00    +0.109 C 
ATOM     11  CG  PRO A   2       7.242  -5.249  25.625  0.00  0.00    +0.021 C 
ATOM     12  CB  PRO A   2       6.146  -4.276  25.162  0.00  0.00    +0.033 C 
ENDROOT
BRANCH   6  13
ATOM     13  CB  TYR A   1       9.275  -0.340  24.923  0.00  0.00    +0.067 C 
BRANCH  13  14
ATOM     14  CG  TYR A   1       9.472   1.121  24.571  0.00  0.00    -0.045 A 
ATOM     15  CD2 TYR A   1      10.577   1.535  23.815  0.00  0.00    +0.007 A 
ATOM     16  CE2 TYR A   1      10.706   2.874  23.432  0.00  0.00    +0.045 A 
ATOM     17  CZ  TYR A   1       9.730   3.793  23.791  0.00  0.00    +0.117 A 
ATOM     18  CE1 TYR A   1       8.635   3.406  24.556  0.00  0.00    +0.045 A 
ATOM     19  CD1 TYR A   1       8.513   2.073  24.951  0.00  0.00    +0.007 A 
BRANCH  17  20
ATOM     20  OH  TYR A   1       9.879   5.081  23.366  0.00  0.00    -0.507 OA
ATOM     21  HH  TYR A   1      10.607   5.110  22.721  0.00  0.00    +0.292 HD
ENDBRANCH  17  20
ENDBRANCH  13  14
ENDBRANCH   6  13
TORSDOF 3
ENDMDL
MODEL 8
REMARK VINA RESULT:      -6.2      1.953      2.830
REMARK  Name = 
REMARK  3 active torsions:
REMARK  status: ('A' for Active; 'I' for Inactive)
REMARK    1  A    between atoms: CA_9  and  CB_11
REMARK    2  A    between atoms: CB_11  and  CG_12
REMARK    3  A    between atoms: CZ_15  and  OH_16
REMARK                            x       y       z     vdW  Elec       q    Type
REMARK                         _______ _______ _______ _____ _____    ______ ____
ROOT
ATOM      1  CA  PRO A   2       5.086  -3.197  24.103  0.00  0.00    +0.162 C 
ATOM      2  C   PRO A   2       5.652  -1.783  24.193  0.00  0.00    +0.234 C 
ATOM      3  O   PRO A   2       5.293  -0.928  24.993  0.00  0.00    -0.274 OA
ATOM      4  N   TYR A   1       6.397  -1.456  23.078  0.00  0.00    -0.302 N 
ATOM      5  H   TYR A   1       6.673  -0.481  23.054  0.00  0.00    +0.150 HD
ATOM      6  CA  TYR A   1       7.366  -2.412  22.518  0.00  0.00    +0.163 C 
ATOM      7  C   TYR A   1       6.928  -3.898  22.634  0.00  0.00    +0.237 C 
ATOM      8  O   TYR A   1       7.457  -4.789  21.974  0.00  0.00    -0.274 OA
ATOM      9  N   PRO A   2       6.096  -4.155  23.710  0.00  0.00    -0.288 N 
ATOM     10  CD  PRO A   2       5.665  -5.482  24.077  0.00  0.00    +0.109 C 
ATOM     11  CG  PRO A   2       4.894  -5.261  25.373  0.00  0.00    +0.021 C 
ATOM     12  CB  PRO A   2       4.490  -3.777  25.377  0.00  0.00    +0.033 C 
ENDROOT
BRANCH   6  13
ATOM     13  CB  TYR A   1       8.756  -2.264  23.175  0.00  0.00    +0.067 C 
BRANCH  13  14
ATOM     14  CG  TYR A   1       9.304  -0.855  23.079  0.00  0.00    -0.045 A 
ATOM     15  CD2 TYR A   1       9.410  -0.207  21.840  0.00  0.00    +0.007 A 
ATOM     16  CE2 TYR A   1       9.844   1.120  21.775  0.00  0.00    +0.045 A 
ATOM     17  CZ  TYR A   1      10.160   1.803  22.941  0.00  0.00    +0.117 A 
ATOM     18  CE1 TYR A   1      10.079   1.175  24.178  0.00  0.00    +0.045 A 
ATOM     19  CD1 TYR A   1       9.659  -0.155  24.244  0.00  0.00    +0.007 A 
BRANCH  17  20
ATOM     20  OH  TYR A   1      10.546   3.108  22.832  0.00  0.00    -0.507 OA
ATOM     21  HH  TYR A   1       9.847   3.598  22.365  0.00  0.00    +0.292 HD
ENDBRANCH  17  20
ENDBRANCH  13  14
ENDBRANCH   6  13
TORSDOF 3
ENDMDL
MODEL 9
REMARK VINA RESULT:      -6.1      2.274      6.572
REMARK  Name = 
REMARK  3 active torsions:
REMARK  status: ('A' for Active; 'I' for Inactive)
REMARK    1  A    between atoms: CA_9  and  CB_11
REMARK    2  A    between atoms: CB_11  and  CG_12
REMARK    3  A    between atoms: CZ_15  and  OH_16
REMARK                            x       y       z     vdW  Elec       q    Type
REMARK                         _______ _______ _______ _____ _____    ______ ____
ROOT
ATOM      1  CA  PRO A   2       9.695   0.475  24.176  0.00  0.00    +0.162 C 
ATOM      2  C   PRO A   2       8.825  -0.443  25.028  0.00  0.00    +0.234 C 
ATOM      3  O   PRO A   2       8.459  -0.207  26.172  0.00  0.00    -0.274 OA
ATOM      4  N   TYR A   1       8.742  -1.713  24.494  0.00  0.00    -0.302 N 
ATOM      5  H   TYR A   1       8.280  -2.374  25.106  0.00  0.00    +0.150 HD
ATOM      6  CA  TYR A   1       8.516  -1.906  23.052  0.00  0.00    +0.163 C 
ATOM      7  C   TYR A   1       9.192  -0.832  22.156  0.00  0.00    +0.237 C 
ATOM      8  O   TYR A   1       9.356  -0.996  20.949  0.00  0.00    -0.274 OA
ATOM      9  N   PRO A   2       9.347   0.396  22.774  0.00  0.00    -0.288 N 
ATOM     10  CD  PRO A   2       9.841   1.568  22.092  0.00  0.00    +0.109 C 
ATOM     11  CG  PRO A   2       9.704   2.672  23.134  0.00  0.00    +0.021 C 
ATOM     12  CB  PRO A   2       9.638   1.962  24.496  0.00  0.00    +0.033 C 
ENDROOT
BRANCH   6  13
ATOM     13  CB  TYR A   1       7.010  -1.942  22.712  0.00  0.00    +0.067 C 
BRANCH  13  14
ATOM     14  CG  TYR A   1       6.415  -3.331  22.828  0.00  0.00    -0.045 A 
ATOM     15  CD2 TYR A   1       7.151  -4.463  22.450  0.00  0.00    +0.007 A 
ATOM     16  CE2 TYR A   1       6.619  -5.742  22.635  0.00  0.00    +0.045 A 
ATOM     17  CZ  TYR A   1       5.363  -5.893  23.206  0.00  0.00    +0.117 A 
ATOM     18  CE1 TYR A   1       4.609  -4.784  23.573  0.00  0.00    +0.045 A 
ATOM     19  CD1 TYR A   1       5.133  -3.506  23.375  0.00  0.00    +0.007 A 
BRANCH  17  20
ATOM     20  OH  TYR A   1       4.899  -7.162  23.400  0.00  0.00    -0.507 OA
ATOM     21  HH  TYR A   1       4.722  -7.285  24.349  0.00  0.00    +0.292 HD
ENDBRANCH  17  20
ENDBRANCH  13  14
ENDBRANCH   6  13
TORSDOF 3
ENDMDL
