MODEL 1
REMARK VINA RESULT:      -6.9      0.000      0.000
REMARK  Name = 
REMARK  4 active torsions:
REMARK  status: ('A' for Active; 'I' for Inactive)
REMARK    1  A    between atoms: C_2  and  C_14
REMARK    2  A    between atoms: N_4  and  C_5
REMARK    3  A    between atoms: N_16  and  C_17
REMARK    4  A    between atoms: C_18  and  C_19
REMARK                            x       y       z     vdW  Elec       q    Type
REMARK                         _______ _______ _______ _____ _____    ______ ____
ROOT
ATOM      1  C   UNL     1       8.623  -3.381  25.726  0.00  0.00    +0.101 C 
ATOM      2  C   UNL     1       7.823  -4.185  26.745  0.00  0.00    +0.110 C 
ATOM      3  C   UNL     1       7.139  -5.253  25.932  0.00  0.00    +0.217 C 
ATOM      4  O   UNL     1       6.494  -6.170  26.408  0.00  0.00    -0.276 OA
ATOM      5  N   UNL     1       7.310  -4.928  24.588  0.00  0.00    -0.298 N 
ATOM      6  C   UNL     1       8.547  -4.194  24.445  0.00  0.00    +0.121 C 
ENDROOT
BRANCH   5   7
ATOM      7  C   UNL     1       6.574  -5.533  23.462  0.00  0.00    +0.076 C 
ATOM      8  C   UNL     1       7.091  -5.032  22.098  0.00  0.00    +0.022 C 
ATOM      9  C   UNL     1       6.964  -3.510  21.980  0.00  0.00    +0.002 C 
ATOM     10  C   UNL     1       5.566  -2.977  22.297  0.00  0.00    +0.000 C 
ATOM     11  C   UNL     1       4.885  -3.643  23.492  0.00  0.00    +0.002 C 
ATOM     12  C   UNL     1       5.076  -5.163  23.497  0.00  0.00    +0.022 C 
ENDBRANCH   5   7
BRANCH   1  13
ATOM     13  C   UNL     1       8.245  -1.937  25.392  0.00  0.00    +0.222 C 
ATOM     14  N   UNL     1       8.682  -1.382  24.204  0.00  0.00    -0.285 N 
ATOM     15  H   UNL     1       8.892  -1.988  23.425  0.00  0.00    +0.155 HD
ATOM     16  O   UNL     1       7.632  -1.297  26.242  0.00  0.00    -0.275 OA
BRANCH  14  17
ATOM     17  C   UNL     1       8.611   0.014  23.927  0.00  0.00    +0.038 A 
ATOM     18  C   UNL     1       7.468   0.554  23.314  0.00  0.00    +0.043 A 
ATOM     19  C   UNL     1       7.332   1.934  23.140  0.00  0.00    +0.043 A 
ATOM     20 CL   UNL     1       5.894   2.574  22.443  0.00  0.00    -0.083 Cl
ATOM     21  C   UNL     1       8.341   2.798  23.546  0.00  0.00    +0.020 A 
ATOM     22  C   UNL     1       9.494   2.272  24.127  0.00  0.00    +0.006 A 
ATOM     23  C   UNL     1       9.643   0.882  24.326  0.00  0.00    -0.029 A 
ATOM     24  C   UNL     1      10.972   0.411  24.847  0.00  0.00    +0.045 C 
ENDBRANCH  14  17
ENDBRANCH   1  13
TORSDOF 3
ENDMDL
MODEL 2
REMARK VINA RESULT:      -6.9      2.587      6.341
REMARK  Name = 
REMARK  4 active torsions:
REMARK  status: ('A' for Active; 'I' for Inactive)
REMARK    1  A    between atoms: C_2  and  C_14
REMARK    2  A    between atoms: N_4  and  C_5
REMARK    3  A    between atoms: N_16  and  C_17
REMARK    4  A    between atoms: C_18  and  C_19
REMARK                            x       y       z     vdW  Elec       q    Type
REMARK                         _______ _______ _______ _____ _____    ______ ____
ROOT
ATOM      1  C   UNL     1       6.192   0.840  23.960  0.00  0.00    +0.101 C 
ATOM      2  C   UNL     1       6.404   1.802  25.123  0.00  0.00    +0.110 C 
ATOM      3  C   UNL     1       7.644   2.575  24.753  0.00  0.00    +0.217 C 
ATOM      4  O   UNL     1       8.074   3.524  25.383  0.00  0.00    -0.276 OA
ATOM      5  N   UNL     1       8.216   1.942  23.652  0.00  0.00    -0.298 N 
ATOM      6  C   UNL     1       7.168   1.301  22.891  0.00  0.00    +0.121 C 
ENDROOT
BRANCH   5   7
ATOM      7  C   UNL     1       9.578   2.186  23.138  0.00  0.00    +0.076 C 
ATOM      8  C   UNL     1       9.831   1.456  21.803  0.00  0.00    +0.022 C 
ATOM      9  C   UNL     1       9.650  -0.058  21.956  0.00  0.00    +0.002 C 
ATOM     10  C   UNL     1      10.451  -0.667  23.108  0.00  0.00    +0.000 C 
ATOM     11  C   UNL     1      10.460   0.166  24.389  0.00  0.00    +0.002 C 
ATOM     12  C   UNL     1      10.655   1.660  24.109  0.00  0.00    +0.022 C 
ENDBRANCH   5   7
BRANCH   1  13
ATOM     13  C   UNL     1       6.370  -0.668  24.143  0.00  0.00    +0.222 C 
ATOM     14  N   UNL     1       7.293  -1.339  23.363  0.00  0.00    -0.285 N 
ATOM     15  H   UNL     1       8.079  -0.831  22.983  0.00  0.00    +0.155 HD
ATOM     16  O   UNL     1       5.617  -1.240  24.926  0.00  0.00    -0.275 OA
BRANCH  14  17
ATOM     17  C   UNL     1       7.345  -2.759  23.271  0.00  0.00    +0.038 A 
ATOM     18  C   UNL     1       6.726  -3.419  22.196  0.00  0.00    +0.043 A 
ATOM     19  C   UNL     1       6.864  -4.799  22.027  0.00  0.00    +0.043 A 
ATOM     20 CL   UNL     1       6.147  -5.573  20.667  0.00  0.00    -0.083 Cl
ATOM     21  C   UNL     1       7.597  -5.551  22.937  0.00  0.00    +0.020 A 
ATOM     22  C   UNL     1       8.190  -4.913  24.025  0.00  0.00    +0.006 A 
ATOM     23  C   UNL     1       8.075  -3.518  24.205  0.00  0.00    -0.029 A 
ATOM     24  C   UNL     1       8.647  -2.948  25.473  0.00  0.00    +0.045 C 
ENDBRANCH  14  17
ENDBRANCH   1  13
TORSDOF 3
ENDMDL
MODEL 3
REMARK VINA RESULT:      -6.8      1.685      2.121
REMARK  Name = 
REMARK  4 active torsions:
REMARK  status: ('A' for Active; 'I' for Inactive)
REMARK    1  A    between atoms: C_2  and  C_14
REMARK    2  A    between atoms: N_4  and  C_5
REMARK    3  A    between atoms: N_16  and  C_17
REMARK    4  A    between atoms: C_18  and  C_19
REMARK                            x       y       z     vdW  Elec       q    Type
REMARK                         _______ _______ _______ _____ _____    ______ ____
ROOT
ATOM      1  C   UNL     1       9.060  -4.236  25.110  0.00  0.00    +0.101 C 
ATOM      2  C   UNL     1       8.393  -4.623  26.426  0.00  0.00    +0.110 C 
ATOM      3  C   UNL     1       7.182  -5.419  26.016  0.00  0.00    +0.217 C 
ATOM      4  O   UNL     1       6.450  -6.003  26.793  0.00  0.00    -0.276 OA
ATOM      5  N   UNL     1       7.031  -5.269  24.638  0.00  0.00    -0.298 N 
ATOM      6  C   UNL     1       8.334  -5.049  24.053  0.00  0.00    +0.121 C 
ENDROOT
BRANCH   5   7
ATOM      7  C   UNL     1       5.830  -5.638  23.865  0.00  0.00    +0.076 C 
ATOM      8  C   UNL     1       6.108  -5.675  22.348  0.00  0.00    +0.022 C 
ATOM      9  C   UNL     1       6.596  -4.315  21.840  0.00  0.00    +0.002 C 
ATOM     10  C   UNL     1       5.693  -3.144  22.232  0.00  0.00    +0.000 C 
ATOM     11  C   UNL     1       5.158  -3.203  23.662  0.00  0.00    +0.002 C 
ATOM     12  C   UNL     1       4.694  -4.610  24.052  0.00  0.00    +0.022 C 
ENDBRANCH   5   7
BRANCH   1  13
ATOM     13  C   UNL     1       9.096  -2.780  24.644  0.00  0.00    +0.222 C 
ATOM     14  N   UNL     1       9.064  -1.768  25.586  0.00  0.00    -0.285 N 
ATOM     15  H   UNL     1       9.396  -1.954  26.521  0.00  0.00    +0.155 HD
ATOM     16  O   UNL     1       9.067  -2.567  23.436  0.00  0.00    -0.275 OA
BRANCH  14  17
ATOM     17  C   UNL     1       8.827  -0.404  25.252  0.00  0.00    +0.038 A 
ATOM     18  C   UNL     1       9.882   0.403  24.792  0.00  0.00    +0.043 A 
ATOM     19  C   UNL     1       9.647   1.708  24.351  0.00  0.00    +0.043 A 
ATOM     20 CL   UNL     1      10.946   2.653  23.734  0.00  0.00    -0.083 Cl
ATOM     21  C   UNL     1       8.365   2.243  24.384  0.00  0.00    +0.020 A 
ATOM     22  C   UNL     1       7.315   1.463  24.867  0.00  0.00    +0.006 A 
ATOM     23  C   UNL     1       7.530   0.138  25.302  0.00  0.00    -0.029 A 
ATOM     24  C   UNL     1       6.356  -0.572  25.918  0.00  0.00    +0.045 C 
ENDBRANCH  14  17
ENDBRANCH   1  13
TORSDOF 3
ENDMDL
MODEL 4
REMARK VINA RESULT:      -6.7      3.002      4.409
REMARK  Name = 
REMARK  4 active torsions:
REMARK  status: ('A' for Active; 'I' for Inactive)
REMARK    1  A    between atoms: C_2  and  C_14
REMARK    2  A    between atoms: N_4  and  C_5
REMARK    3  A    between atoms: N_16  and  C_17
REMARK    4  A    between atoms: C_18  and  C_19
REMARK                            x       y       z     vdW  Elec       q    Type
REMARK                         _______ _______ _______ _____ _____    ______ ____
ROOT
ATOM      1  C   UNL     1       9.800  -0.748  22.937  0.00  0.00    +0.101 C 
ATOM      2  C   UNL     1      10.516  -2.010  23.403  0.00  0.00    +0.110 C 
ATOM      3  C   UNL     1       9.429  -2.864  24.001  0.00  0.00    +0.217 C 
ATOM      4  O   UNL     1       9.587  -4.009  24.383  0.00  0.00    -0.276 OA
ATOM      5  N   UNL     1       8.288  -2.070  24.109  0.00  0.00    -0.298 N 
ATOM      6  C   UNL     1       8.321  -1.071  23.066  0.00  0.00    +0.121 C 
ENDROOT
BRANCH   5   7
ATOM      7  C   UNL     1       7.084  -2.407  24.892  0.00  0.00    +0.076 C 
ATOM      8  C   UNL     1       5.950  -1.383  24.677  0.00  0.00    +0.022 C 
ATOM      9  C   UNL     1       6.393   0.028  25.078  0.00  0.00    +0.002 C 
ATOM     10  C   UNL     1       6.992   0.116  26.483  0.00  0.00    +0.000 C 
ATOM     11  C   UNL     1       7.922  -1.038  26.853  0.00  0.00    +0.002 C 
ATOM     12  C   UNL     1       7.369  -2.396  26.408  0.00  0.00    +0.022 C 
ENDBRANCH   5   7
BRANCH   1  13
ATOM     13  C   UNL     1      10.051   0.597  23.620  0.00  0.00    +0.222 C 
ATOM     14  N   UNL     1       9.680   1.762  22.976  0.00  0.00    -0.285 N 
ATOM     15  H   UNL     1       8.938   1.732  22.290  0.00  0.00    +0.155 HD
ATOM     16  O   UNL     1      10.655   0.590  24.689  0.00  0.00    -0.275 OA
BRANCH  14  17
ATOM     17  C   UNL     1      10.104   3.054  23.401  0.00  0.00    +0.038 A 
ATOM     18  C   UNL     1      11.387   3.520  23.067  0.00  0.00    +0.043 A 
ATOM     19  C   UNL     1      11.778   4.825  23.376  0.00  0.00    +0.043 A 
ATOM     20 CL   UNL     1      13.333   5.391  22.900  0.00  0.00    -0.083 Cl
ATOM     21  C   UNL     1      10.912   5.681  24.045  0.00  0.00    +0.020 A 
ATOM     22  C   UNL     1       9.648   5.221  24.409  0.00  0.00    +0.006 A 
ATOM     23  C   UNL     1       9.229   3.911  24.093  0.00  0.00    -0.029 A 
ATOM     24  C   UNL     1       7.897   3.475  24.637  0.00  0.00    +0.045 C 
ENDBRANCH  14  17
ENDBRANCH   1  13
TORSDOF 3
ENDMDL
MODEL 5
REMARK VINA RESULT:      -6.7      1.683      2.050
REMARK  Name = 
REMARK  4 active torsions:
REMARK  status: ('A' for Active; 'I' for Inactive)
REMARK    1  A    between atoms: C_2  and  C_14
REMARK    2  A    between atoms: N_4  and  C_5
REMARK    3  A    between atoms: N_16  and  C_17
REMARK    4  A    between atoms: C_18  and  C_19
REMARK                            x       y       z     vdW  Elec       q    Type
REMARK                         _______ _______ _______ _____ _____    ______ ____
ROOT
ATOM      1  C   UNL     1       8.910  -3.918  25.053  0.00  0.00    +0.101 C 
ATOM      2  C   UNL     1       8.961  -4.353  26.513  0.00  0.00    +0.110 C 
ATOM      3  C   UNL     1       7.742  -5.219  26.694  0.00  0.00    +0.217 C 
ATOM      4  O   UNL     1       7.493  -5.851  27.704  0.00  0.00    -0.276 OA
ATOM      5  N   UNL     1       6.952  -5.070  25.555  0.00  0.00    -0.298 N 
ATOM      6  C   UNL     1       7.812  -4.767  24.434  0.00  0.00    +0.121 C 
ENDROOT
BRANCH   5   7
ATOM      7  C   UNL     1       5.549  -5.506  25.425  0.00  0.00    +0.076 C 
ATOM      8  C   UNL     1       4.923  -5.048  24.091  0.00  0.00    +0.022 C 
ATOM      9  C   UNL     1       4.956  -3.521  23.958  0.00  0.00    +0.002 C 
ATOM     10  C   UNL     1       4.365  -2.780  25.158  0.00  0.00    +0.000 C 
ATOM     11  C   UNL     1       4.737  -3.369  26.518  0.00  0.00    +0.002 C 
ATOM     12  C   UNL     1       4.659  -4.899  26.530  0.00  0.00    +0.022 C 
ENDBRANCH   5   7
BRANCH   1  13
ATOM     13  C   UNL     1       8.648  -2.460  24.675  0.00  0.00    +0.222 C 
ATOM     14  N   UNL     1       8.085  -2.171  23.445  0.00  0.00    -0.285 N 
ATOM     15  H   UNL     1       7.516  -2.868  22.988  0.00  0.00    +0.155 HD
ATOM     16  O   UNL     1       9.030  -1.591  25.454  0.00  0.00    -0.275 OA
BRANCH  14  17
ATOM     17  C   UNL     1       8.048  -0.856  22.898  0.00  0.00    +0.038 A 
ATOM     18  C   UNL     1       6.937  -0.028  23.127  0.00  0.00    +0.043 A 
ATOM     19  C   UNL     1       6.933   1.302  22.697  0.00  0.00    +0.043 A 
ATOM     20 CL   UNL     1       5.584   2.312  23.046  0.00  0.00    -0.083 Cl
ATOM     21  C   UNL     1       8.021   1.823  22.009  0.00  0.00    +0.020 A 
ATOM     22  C   UNL     1       9.117   1.003  21.748  0.00  0.00    +0.006 A 
ATOM     23  C   UNL     1       9.147  -0.339  22.188  0.00  0.00    -0.029 A 
ATOM     24  C   UNL     1      10.320  -1.170  21.749  0.00  0.00    +0.045 C 
ENDBRANCH  14  17
ENDBRANCH   1  13
TORSDOF 3
ENDMDL
MODEL 6
REMARK VINA RESULT:      -6.6      2.850      6.318
REMARK  Name = 
REMARK  4 active torsions:
REMARK  status: ('A' for Active; 'I' for Inactive)
REMARK    1  A    between atoms: C_2  and  C_14
REMARK    2  A    between atoms: N_4  and  C_5
REMARK    3  A    between atoms: N_16  and  C_17
REMARK    4  A    between atoms: C_18  and  C_19
REMARK                            x       y       z     vdW  Elec       q    Type
REMARK                         _______ _______ _______ _____ _____    ______ ____
ROOT
ATOM      1  C   UNL     1      10.193  -1.434  22.784  0.00  0.00    +0.101 C 
ATOM      2  C   UNL     1       9.695  -0.813  21.484  0.00  0.00    +0.110 C 
ATOM      3  C   UNL     1       9.108   0.511  21.897  0.00  0.00    +0.217 C 
ATOM      4  O   UNL     1       8.707   1.357  21.118  0.00  0.00    -0.276 OA
ATOM      5  N   UNL     1       9.036   0.519  23.289  0.00  0.00    -0.298 N 
ATOM      6  C   UNL     1      10.091  -0.319  23.811  0.00  0.00    +0.121 C 
ENDROOT
BRANCH   5   7
ATOM      7  C   UNL     1       8.274   1.488  24.100  0.00  0.00    +0.076 C 
ATOM      8  C   UNL     1       8.400   1.203  25.611  0.00  0.00    +0.022 C 
ATOM      9  C   UNL     1       7.893  -0.201  25.955  0.00  0.00    +0.002 C 
ATOM     10  C   UNL     1       6.490  -0.502  25.427  0.00  0.00    +0.000 C 
ATOM     11  C   UNL     1       6.216   0.010  24.014  0.00  0.00    +0.002 C 
ATOM     12  C   UNL     1       6.763   1.425  23.792  0.00  0.00    +0.022 C 
ENDBRANCH   5   7
BRANCH   1  13
ATOM     13  C   UNL     1       9.522  -2.678  23.370  0.00  0.00    +0.222 C 
ATOM     14  N   UNL     1       8.180  -2.900  23.127  0.00  0.00    -0.285 N 
ATOM     15  H   UNL     1       7.756  -2.501  22.301  0.00  0.00    +0.155 HD
ATOM     16  O   UNL     1      10.193  -3.392  24.110  0.00  0.00    -0.275 OA
BRANCH  14  17
ATOM     17  C   UNL     1       7.413  -3.868  23.834  0.00  0.00    +0.038 A 
ATOM     18  C   UNL     1       7.317  -3.807  25.235  0.00  0.00    +0.043 A 
ATOM     19  C   UNL     1       6.478  -4.678  25.935  0.00  0.00    +0.043 A 
ATOM     20 CL   UNL     1       6.333  -4.540  27.645  0.00  0.00    -0.083 Cl
ATOM     21  C   UNL     1       5.740  -5.641  25.260  0.00  0.00    +0.020 A 
ATOM     22  C   UNL     1       5.849  -5.732  23.873  0.00  0.00    +0.006 A 
ATOM     23  C   UNL     1       6.679  -4.853  23.146  0.00  0.00    -0.029 A 
ATOM     24  C   UNL     1       6.820  -5.115  21.672  0.00  0.00    +0.045 C 
ENDBRANCH  14  17
ENDBRANCH   1  13
TORSDOF 3
ENDMDL
MODEL 7
REMARK VINA RESULT:      -6.5      3.260      6.474
REMARK  Name = 
REMARK  4 active torsions:
REMARK  status: ('A' for Active; 'I' for Inactive)
REMARK    1  A    between atoms: C_2  and  C_14
REMARK    2  A    between atoms: N_4  and  C_5
REMARK    3  A    between atoms: N_16  and  C_17
REMARK    4  A    between atoms: C_18  and  C_19
REMARK                            x       y       z     vdW  Elec       q    Type
REMARK                         _______ _______ _______ _____ _____    ______ ____
ROOT
ATOM      1  C   UNL     1       6.172   0.657  24.267  0.00  0.00    +0.101 C 
ATOM      2  C   UNL     1       6.594   1.700  25.295  0.00  0.00    +0.110 C 
ATOM      3  C   UNL     1       7.859   2.294  24.735  0.00  0.00    +0.217 C 
ATOM      4  O   UNL     1       8.441   3.249  25.217  0.00  0.00    -0.276 OA
ATOM      5  N   UNL     1       8.254   1.498  23.661  0.00  0.00    -0.298 N 
ATOM      6  C   UNL     1       7.077   0.902  23.071  0.00  0.00    +0.121 C 
ENDROOT
BRANCH   5   7
ATOM      7  C   UNL     1       9.574   1.542  23.004  0.00  0.00    +0.076 C 
ATOM      8  C   UNL     1       9.610   0.686  21.721  0.00  0.00    +0.022 C 
ATOM      9  C   UNL     1       9.283  -0.780  22.022  0.00  0.00    +0.002 C 
ATOM     10  C   UNL     1      10.126  -1.387  23.145  0.00  0.00    +0.000 C 
ATOM     11  C   UNL     1      10.356  -0.465  24.341  0.00  0.00    +0.002 C 
ATOM     12  C   UNL     1      10.682   0.970  23.914  0.00  0.00    +0.022 C 
ENDBRANCH   5   7
BRANCH   1  13
ATOM     13  C   UNL     1       6.219  -0.836  24.596  0.00  0.00    +0.222 C 
ATOM     14  N   UNL     1       6.622  -1.238  25.855  0.00  0.00    -0.285 N 
ATOM     15  H   UNL     1       6.512  -0.604  26.634  0.00  0.00    +0.155 HD
ATOM     16  O   UNL     1       5.974  -1.628  23.690  0.00  0.00    -0.275 OA
BRANCH  14  17
ATOM     17  C   UNL     1       6.951  -2.588  26.172  0.00  0.00    +0.038 A 
ATOM     18  C   UNL     1       8.152  -3.149  25.708  0.00  0.00    +0.043 A 
ATOM     19  C   UNL     1       8.545  -4.430  26.103  0.00  0.00    +0.043 A 
ATOM     20 CL   UNL     1      10.051  -5.069  25.570  0.00  0.00    -0.083 Cl
ATOM     21  C   UNL     1       7.738  -5.187  26.943  0.00  0.00    +0.020 A 
ATOM     22  C   UNL     1       6.528  -4.654  27.385  0.00  0.00    +0.006 A 
ATOM     23  C   UNL     1       6.121  -3.355  27.010  0.00  0.00    -0.029 A 
ATOM     24  C   UNL     1       4.747  -2.924  27.440  0.00  0.00    +0.045 C 
ENDBRANCH  14  17
ENDBRANCH   1  13
TORSDOF 3
ENDMDL
MODEL 8
REMARK VINA RESULT:      -6.3      2.776      6.685
REMARK  Name = 
REMARK  4 active torsions:
REMARK  status: ('A' for Active; 'I' for Inactive)
REMARK    1  A    between atoms: C_2  and  C_14
REMARK    2  A    between atoms: N_4  and  C_5
REMARK    3  A    between atoms: N_16  and  C_17
REMARK    4  A    between atoms: C_18  and  C_19
REMARK                            x       y       z     vdW  Elec       q    Type
REMARK                         _______ _______ _______ _____ _____    ______ ____
ROOT
ATOM      1  C   UNL     1       9.766  -0.952  23.517  0.00  0.00    +0.101 C 
ATOM      2  C   UNL     1      10.205  -0.161  22.290  0.00  0.00    +0.110 C 
ATOM      3  C   UNL     1      10.039   1.282  22.691  0.00  0.00    +0.217 C 
ATOM      4  O   UNL     1      10.397   2.228  22.012  0.00  0.00    -0.276 OA
ATOM      5  N   UNL     1       9.335   1.302  23.894  0.00  0.00    -0.298 N 
ATOM      6  C   UNL     1       9.624   0.086  24.618  0.00  0.00    +0.121 C 
ENDROOT
BRANCH   5   7
ATOM      7  C   UNL     1       8.711   2.495  24.498  0.00  0.00    +0.076 C 
ATOM      8  C   UNL     1       7.825   2.132  25.708  0.00  0.00    +0.022 C 
ATOM      9  C   UNL     1       6.705   1.166  25.306  0.00  0.00    +0.002 C 
ATOM     10  C   UNL     1       5.880   1.634  24.107  0.00  0.00    +0.000 C 
ATOM     11  C   UNL     1       6.695   2.264  22.978  0.00  0.00    +0.002 C 
ATOM     12  C   UNL     1       7.777   3.214  23.503  0.00  0.00    +0.022 C 
ENDBRANCH   5   7
BRANCH   1  13
ATOM     13  C   UNL     1       8.489  -1.794  23.496  0.00  0.00    +0.222 C 
ATOM     14  N   UNL     1       8.543  -3.113  23.905  0.00  0.00    -0.285 N 
ATOM     15  H   UNL     1       9.267  -3.400  24.549  0.00  0.00    +0.155 HD
ATOM     16  O   UNL     1       7.476  -1.281  23.031  0.00  0.00    -0.275 OA
BRANCH  14  17
ATOM     17  C   UNL     1       7.488  -4.041  23.674  0.00  0.00    +0.038 A 
ATOM     18  C   UNL     1       7.231  -4.510  22.375  0.00  0.00    +0.043 A 
ATOM     19  C   UNL     1       6.278  -5.505  22.146  0.00  0.00    +0.043 A 
ATOM     20 CL   UNL     1       6.028  -6.105  20.553  0.00  0.00    -0.083 Cl
ATOM     21  C   UNL     1       5.544  -6.033  23.201  0.00  0.00    +0.020 A 
ATOM     22  C   UNL     1       5.767  -5.555  24.491  0.00  0.00    +0.006 A 
ATOM     23  C   UNL     1       6.736  -4.561  24.745  0.00  0.00    -0.029 A 
ATOM     24  C   UNL     1       6.812  -4.029  26.149  0.00  0.00    +0.045 C 
ENDBRANCH  14  17
ENDBRANCH   1  13
TORSDOF 3
ENDMDL
MODEL 9
REMARK VINA RESULT:      -6.1      2.688      6.317
REMARK  Name = 
REMARK  4 active torsions:
REMARK  status: ('A' for Active; 'I' for Inactive)
REMARK    1  A    between atoms: C_2  and  C_14
REMARK    2  A    between atoms: N_4  and  C_5
REMARK    3  A    between atoms: N_16  and  C_17
REMARK    4  A    between atoms: C_18  and  C_19
REMARK                            x       y       z     vdW  Elec       q    Type
REMARK                         _______ _______ _______ _____ _____    ______ ____
ROOT
ATOM      1  C   UNL     1       9.684  -1.738  23.210  0.00  0.00    +0.101 C 
ATOM      2  C   UNL     1       9.894  -0.961  21.915  0.00  0.00    +0.110 C 
ATOM      3  C   UNL     1       9.850   0.487  22.332  0.00  0.00    +0.217 C 
ATOM      4  O   UNL     1      10.093   1.421  21.591  0.00  0.00    -0.276 OA
ATOM      5  N   UNL     1       9.398   0.528  23.650  0.00  0.00    -0.298 N 
ATOM      6  C   UNL     1       9.790  -0.696  24.310  0.00  0.00    +0.121 C 
ENDROOT
BRANCH   5   7
ATOM      7  C   UNL     1       8.937   1.737  24.358  0.00  0.00    +0.076 C 
ATOM      8  C   UNL     1       8.095   1.392  25.603  0.00  0.00    +0.022 C 
ATOM      9  C   UNL     1       6.859   0.568  25.227  0.00  0.00    +0.002 C 
ATOM     10  C   UNL     1       6.015   1.187  24.113  0.00  0.00    +0.000 C 
ATOM     11  C   UNL     1       6.819   1.799  22.967  0.00  0.00    +0.002 C 
ATOM     12  C   UNL     1       8.023   2.605  23.467  0.00  0.00    +0.022 C 
ENDBRANCH   5   7
BRANCH   1  13
ATOM     13  C   UNL     1       8.405  -2.544  23.445  0.00  0.00    +0.222 C 
ATOM     14  N   UNL     1       7.891  -2.637  24.725  0.00  0.00    -0.285 N 
ATOM     15  H   UNL     1       8.099  -1.910  25.394  0.00  0.00    +0.155 HD
ATOM     16  O   UNL     1       7.930  -3.152  22.490  0.00  0.00    -0.275 OA
BRANCH  14  17
ATOM     17  C   UNL     1       6.874  -3.566  25.087  0.00  0.00    +0.038 A 
ATOM     18  C   UNL     1       5.520  -3.236  24.908  0.00  0.00    +0.043 A 
ATOM     19  C   UNL     1       4.514  -4.176  25.149  0.00  0.00    +0.043 A 
ATOM     20 CL   UNL     1       2.868  -3.764  24.862  0.00  0.00    -0.083 Cl
ATOM     21  C   UNL     1       4.835  -5.451  25.597  0.00  0.00    +0.020 A 
ATOM     22  C   UNL     1       6.172  -5.781  25.809  0.00  0.00    +0.006 A 
ATOM     23  C   UNL     1       7.203  -4.851  25.556  0.00  0.00    -0.029 A 
ATOM     24  C   UNL     1       8.598  -5.266  25.932  0.00  0.00    +0.045 C 
ENDBRANCH  14  17
ENDBRANCH   1  13
TORSDOF 3
ENDMDL
