MODEL 1
REMARK VINA RESULT:      -5.8      0.000      0.000
REMARK  Name = 
REMARK  5 active torsions:
REMARK  status: ('A' for Active; 'I' for Inactive)
REMARK    1  A    between atoms: O_1  and  C_2
REMARK    2  A    between atoms: C_2  and  C_4
REMARK    3  A    between atoms: C_5  and  C_6
REMARK    4  A    between atoms: C_8  and  O_9
REMARK    5  A    between atoms: C_10  and  O_11
REMARK                            x       y       z     vdW  Elec       q    Type
REMARK                         _______ _______ _______ _____ _____    ______ ____
ROOT
ATOM      1  C   UNL     1       9.911  -1.512  23.380  0.00  0.00    -0.021 A 
ATOM      2  C   UNL     1       9.480  -1.408  22.045  0.00  0.00    +0.012 A 
ATOM      3  C   UNL     1       9.470  -0.174  21.389  0.00  0.00    +0.050 A 
ATOM      4  C   UNL     1       9.876   0.958  22.075  0.00  0.00    +0.158 A 
ATOM      5  C   UNL     1      10.289   0.876  23.401  0.00  0.00    +0.159 A 
ATOM      6  C   UNL     1      10.308  -0.351  24.061  0.00  0.00    +0.057 A 
ENDROOT
BRANCH   1   8
ATOM      7  C   UNL     1       8.821  -3.612  24.135  0.00  0.00    +0.092 C 
ATOM      8  C   UNL     1       9.885  -2.794  24.102  0.00  0.00    +0.015 C 
BRANCH   7   9
ATOM      9  C   UNL     1       8.884  -4.858  24.925  0.00  0.00    +0.330 C 
ATOM     10  O   UNL     1       7.943  -5.347  25.526  0.00  0.00    -0.246 OA
BRANCH   9  11
ATOM     11  O   UNL     1      10.112  -5.412  24.898  0.00  0.00    -0.478 OA
ATOM     12  H   UNL     1      10.855  -4.793  24.785  0.00  0.00    +0.295 HD
ENDBRANCH   9  11
ENDBRANCH   7   9
ENDBRANCH   1   8
BRANCH   4  13
ATOM     13  O   UNL     1       9.851   2.164  21.438  0.00  0.00    -0.503 OA
ATOM     14  H   UNL     1      10.599   2.662  21.825  0.00  0.00    +0.292 HD
ENDBRANCH   4  13
BRANCH   5  15
ATOM     15  O   UNL     1      10.661   2.038  24.019  0.00  0.00    -0.503 OA
ATOM     16  H   UNL     1       9.958   2.290  24.643  0.00  0.00    +0.292 HD
ENDBRANCH   5  15
TORSDOF 5
ENDMDL
MODEL 2
REMARK VINA RESULT:      -5.5      2.800      6.778
REMARK  Name = 
REMARK  5 active torsions:
REMARK  status: ('A' for Active; 'I' for Inactive)
REMARK    1  A    between atoms: O_1  and  C_2
REMARK    2  A    between atoms: C_2  and  C_4
REMARK    3  A    between atoms: C_5  and  C_6
REMARK    4  A    between atoms: C_8  and  O_9
REMARK    5  A    between atoms: C_10  and  O_11
REMARK                            x       y       z     vdW  Elec       q    Type
REMARK                         _______ _______ _______ _____ _____    ______ ____
ROOT
ATOM      1  C   UNL     1      10.297   1.842  23.422  0.00  0.00    -0.021 A 
ATOM      2  C   UNL     1      10.430   1.032  24.564  0.00  0.00    +0.012 A 
ATOM      3  C   UNL     1      10.294  -0.355  24.479  0.00  0.00    +0.050 A 
ATOM      4  C   UNL     1      10.007  -0.931  23.253  0.00  0.00    +0.158 A 
ATOM      5  C   UNL     1       9.855  -0.144  22.116  0.00  0.00    +0.159 A 
ATOM      6  C   UNL     1       9.995   1.241  22.190  0.00  0.00    +0.057 A 
ENDROOT
BRANCH   1   8
ATOM      7  C   UNL     1      11.542   3.991  23.397  0.00  0.00    +0.092 C 
ATOM      8  C   UNL     1      10.391   3.309  23.499  0.00  0.00    +0.015 C 
BRANCH   7   9
ATOM      9  C   UNL     1      11.533   5.462  23.530  0.00  0.00    +0.330 C 
ATOM     10  O   UNL     1      12.425   6.118  24.039  0.00  0.00    -0.246 OA
BRANCH   9  11
ATOM     11  O   UNL     1      10.417   6.009  23.008  0.00  0.00    -0.478 OA
ATOM     12  H   UNL     1       9.592   5.516  23.157  0.00  0.00    +0.295 HD
ENDBRANCH   9  11
ENDBRANCH   7   9
ENDBRANCH   1   8
BRANCH   4  13
ATOM     13  O   UNL     1       9.859  -2.285  23.174  0.00  0.00    -0.503 OA
ATOM     14  H   UNL     1       9.199  -2.501  23.862  0.00  0.00    +0.292 HD
ENDBRANCH   4  13
BRANCH   5  15
ATOM     15  O   UNL     1       9.557  -0.781  20.942  0.00  0.00    -0.503 OA
ATOM     16  H   UNL     1      10.017  -0.320  20.220  0.00  0.00    +0.292 HD
ENDBRANCH   5  15
TORSDOF 5
ENDMDL
MODEL 3
REMARK VINA RESULT:      -5.3      0.991      1.903
REMARK  Name = 
REMARK  5 active torsions:
REMARK  status: ('A' for Active; 'I' for Inactive)
REMARK    1  A    between atoms: O_1  and  C_2
REMARK    2  A    between atoms: C_2  and  C_4
REMARK    3  A    between atoms: C_5  and  C_6
REMARK    4  A    between atoms: C_8  and  O_9
REMARK    5  A    between atoms: C_10  and  O_11
REMARK                            x       y       z     vdW  Elec       q    Type
REMARK                         _______ _______ _______ _____ _____    ______ ____
ROOT
ATOM      1  C   UNL     1       9.455  -0.800  23.982  0.00  0.00    -0.021 A 
ATOM      2  C   UNL     1      10.326   0.137  24.567  0.00  0.00    +0.012 A 
ATOM      3  C   UNL     1      10.662   1.317  23.899  0.00  0.00    +0.050 A 
ATOM      4  C   UNL     1      10.143   1.550  22.638  0.00  0.00    +0.158 A 
ATOM      5  C   UNL     1       9.294   0.626  22.036  0.00  0.00    +0.159 A 
ATOM      6  C   UNL     1       8.948  -0.551  22.697  0.00  0.00    +0.057 A 
ENDROOT
BRANCH   1   8
ATOM      7  C   UNL     1       9.672  -3.251  24.321  0.00  0.00    +0.092 C 
ATOM      8  C   UNL     1       9.125  -2.070  24.649  0.00  0.00    +0.015 C 
BRANCH   7   9
ATOM      9  C   UNL     1       9.240  -4.475  25.026  0.00  0.00    +0.330 C 
ATOM     10  O   UNL     1       8.122  -4.660  25.474  0.00  0.00    -0.246 OA
BRANCH   9  11
ATOM     11  O   UNL     1      10.231  -5.385  25.110  0.00  0.00    -0.478 OA
ATOM     12  H   UNL     1      10.874  -5.382  24.379  0.00  0.00    +0.295 HD
ENDBRANCH   9  11
ENDBRANCH   7   9
ENDBRANCH   1   8
BRANCH   4  13
ATOM     13  O   UNL     1      10.485   2.695  21.980  0.00  0.00    -0.503 OA
ATOM     14  H   UNL     1      10.994   2.391  21.203  0.00  0.00    +0.292 HD
ENDBRANCH   4  13
BRANCH   5  15
ATOM     15  O   UNL     1       8.831   0.917  20.782  0.00  0.00    -0.503 OA
ATOM     16  H   UNL     1       9.063   0.178  20.193  0.00  0.00    +0.292 HD
ENDBRANCH   5  15
TORSDOF 5
ENDMDL
MODEL 4
REMARK VINA RESULT:      -5.3      2.984      6.575
REMARK  Name = 
REMARK  5 active torsions:
REMARK  status: ('A' for Active; 'I' for Inactive)
REMARK    1  A    between atoms: O_1  and  C_2
REMARK    2  A    between atoms: C_2  and  C_4
REMARK    3  A    between atoms: C_5  and  C_6
REMARK    4  A    between atoms: C_8  and  O_9
REMARK    5  A    between atoms: C_10  and  O_11
REMARK                            x       y       z     vdW  Elec       q    Type
REMARK                         _______ _______ _______ _____ _____    ______ ____
ROOT
ATOM      1  C   UNL     1      10.150   2.096  23.128  0.00  0.00    -0.021 A 
ATOM      2  C   UNL     1       9.787   1.739  21.816  0.00  0.00    +0.012 A 
ATOM      3  C   UNL     1       9.489   0.414  21.491  0.00  0.00    +0.050 A 
ATOM      4  C   UNL     1       9.572  -0.558  22.473  0.00  0.00    +0.158 A 
ATOM      5  C   UNL     1       9.946  -0.225  23.772  0.00  0.00    +0.159 A 
ATOM      6  C   UNL     1      10.239   1.095  24.107  0.00  0.00    +0.057 A 
ENDROOT
BRANCH   1   8
ATOM      7  C   UNL     1      11.733   4.004  23.287  0.00  0.00    +0.092 C 
ATOM      8  C   UNL     1      10.512   3.478  23.480  0.00  0.00    +0.015 C 
BRANCH   7   9
ATOM      9  C   UNL     1      12.005   5.391  23.715  0.00  0.00    +0.330 C 
ATOM     10  O   UNL     1      11.151   6.201  24.027  0.00  0.00    -0.246 OA
BRANCH   9  11
ATOM     11  O   UNL     1      13.325   5.663  23.734  0.00  0.00    -0.478 OA
ATOM     12  H   UNL     1      13.639   6.189  24.490  0.00  0.00    +0.295 HD
ENDBRANCH   9  11
ENDBRANCH   7   9
ENDBRANCH   1   8
BRANCH   4  13
ATOM     13  O   UNL     1       9.295  -1.854  22.151  0.00  0.00    -0.503 OA
ATOM     14  H   UNL     1       9.132  -1.838  21.186  0.00  0.00    +0.292 HD
ENDBRANCH   4  13
BRANCH   5  15
ATOM     15  O   UNL     1      10.022  -1.240  24.686  0.00  0.00    -0.503 OA
ATOM     16  H   UNL     1       9.242  -1.186  25.266  0.00  0.00    +0.292 HD
ENDBRANCH   5  15
TORSDOF 5
ENDMDL
MODEL 5
REMARK VINA RESULT:      -5.1      2.107      2.989
REMARK  Name = 
REMARK  5 active torsions:
REMARK  status: ('A' for Active; 'I' for Inactive)
REMARK    1  A    between atoms: O_1  and  C_2
REMARK    2  A    between atoms: C_2  and  C_4
REMARK    3  A    between atoms: C_5  and  C_6
REMARK    4  A    between atoms: C_8  and  O_9
REMARK    5  A    between atoms: C_10  and  O_11
REMARK                            x       y       z     vdW  Elec       q    Type
REMARK                         _______ _______ _______ _____ _____    ______ ____
ROOT
ATOM      1  C   UNL     1       9.098  -1.052  22.716  0.00  0.00    -0.021 A 
ATOM      2  C   UNL     1       9.657  -0.962  24.005  0.00  0.00    +0.012 A 
ATOM      3  C   UNL     1      10.312   0.199  24.422  0.00  0.00    +0.050 A 
ATOM      4  C   UNL     1      10.426   1.263  23.544  0.00  0.00    +0.158 A 
ATOM      5  C   UNL     1       9.895   1.186  22.260  0.00  0.00    +0.159 A 
ATOM      6  C   UNL     1       9.233   0.034  21.837  0.00  0.00    +0.057 A 
ENDROOT
BRANCH   1   8
ATOM      7  C   UNL     1       7.177  -2.614  22.530  0.00  0.00    +0.092 C 
ATOM      8  C   UNL     1       8.445  -2.281  22.242  0.00  0.00    +0.015 C 
BRANCH   7   9
ATOM      9  C   UNL     1       6.628  -3.894  22.038  0.00  0.00    +0.330 C 
ATOM     10  O   UNL     1       7.231  -4.952  22.038  0.00  0.00    -0.246 OA
BRANCH   9  11
ATOM     11  O   UNL     1       5.362  -3.763  21.595  0.00  0.00    -0.478 OA
ATOM     12  H   UNL     1       4.951  -2.892  21.733  0.00  0.00    +0.295 HD
ENDBRANCH   9  11
ENDBRANCH   7   9
ENDBRANCH   1   8
BRANCH   4  13
ATOM     13  O   UNL     1      11.079   2.390  23.948  0.00  0.00    -0.503 OA
ATOM     14  H   UNL     1      12.025   2.194  23.797  0.00  0.00    +0.292 HD
ENDBRANCH   4  13
BRANCH   5  15
ATOM     15  O   UNL     1      10.058   2.270  21.442  0.00  0.00    -0.503 OA
ATOM     16  H   UNL     1       9.906   1.986  20.525  0.00  0.00    +0.292 HD
ENDBRANCH   5  15
TORSDOF 5
ENDMDL
MODEL 6
REMARK VINA RESULT:      -5.0      3.811      5.930
REMARK  Name = 
REMARK  5 active torsions:
REMARK  status: ('A' for Active; 'I' for Inactive)
REMARK    1  A    between atoms: O_1  and  C_2
REMARK    2  A    between atoms: C_2  and  C_4
REMARK    3  A    between atoms: C_5  and  C_6
REMARK    4  A    between atoms: C_8  and  O_9
REMARK    5  A    between atoms: C_10  and  O_11
REMARK                            x       y       z     vdW  Elec       q    Type
REMARK                         _______ _______ _______ _____ _____    ______ ____
ROOT
ATOM      1  C   UNL     1      10.521   3.857  23.428  0.00  0.00    -0.021 A 
ATOM      2  C   UNL     1       9.959   4.949  24.116  0.00  0.00    +0.012 A 
ATOM      3  C   UNL     1      10.743   6.045  24.481  0.00  0.00    +0.050 A 
ATOM      4  C   UNL     1      12.093   6.042  24.175  0.00  0.00    +0.158 A 
ATOM      5  C   UNL     1      12.669   4.964  23.511  0.00  0.00    +0.159 A 
ATOM      6  C   UNL     1      11.894   3.868  23.137  0.00  0.00    +0.057 A 
ENDROOT
BRANCH   1   8
ATOM      7  C   UNL     1      10.171   1.672  22.301  0.00  0.00    +0.092 C 
ATOM      8  C   UNL     1       9.723   2.673  23.075  0.00  0.00    +0.015 C 
BRANCH   7   9
ATOM      9  C   UNL     1       9.273   0.546  21.972  0.00  0.00    +0.330 C 
ATOM     10  O   UNL     1       9.129   0.077  20.857  0.00  0.00    -0.246 OA
BRANCH   9  11
ATOM     11  O   UNL     1       8.629   0.079  23.061  0.00  0.00    -0.478 OA
ATOM     12  H   UNL     1       9.150  -0.499  23.646  0.00  0.00    +0.295 HD
ENDBRANCH   9  11
ENDBRANCH   7   9
ENDBRANCH   1   8
BRANCH   4  13
ATOM     13  O   UNL     1      12.860   7.107  24.547  0.00  0.00    -0.503 OA
ATOM     14  H   UNL     1      12.714   7.192  25.510  0.00  0.00    +0.292 HD
ENDBRANCH   4  13
BRANCH   5  15
ATOM     15  O   UNL     1      14.012   5.024  23.256  0.00  0.00    -0.503 OA
ATOM     16  H   UNL     1      14.372   4.121  23.307  0.00  0.00    +0.292 HD
ENDBRANCH   5  15
TORSDOF 5
ENDMDL
MODEL 7
REMARK VINA RESULT:      -5.0      2.247      6.311
REMARK  Name = 
REMARK  5 active torsions:
REMARK  status: ('A' for Active; 'I' for Inactive)
REMARK    1  A    between atoms: O_1  and  C_2
REMARK    2  A    between atoms: C_2  and  C_4
REMARK    3  A    between atoms: C_5  and  C_6
REMARK    4  A    between atoms: C_8  and  O_9
REMARK    5  A    between atoms: C_10  and  O_11
REMARK                            x       y       z     vdW  Elec       q    Type
REMARK                         _______ _______ _______ _____ _____    ______ ____
ROOT
ATOM      1  C   UNL     1       7.883  -3.722  24.486  0.00  0.00    -0.021 A 
ATOM      2  C   UNL     1       6.669  -4.173  23.936  0.00  0.00    +0.012 A 
ATOM      3  C   UNL     1       5.902  -5.142  24.590  0.00  0.00    +0.050 A 
ATOM      4  C   UNL     1       6.359  -5.672  25.784  0.00  0.00    +0.158 A 
ATOM      5  C   UNL     1       7.566  -5.249  26.334  0.00  0.00    +0.159 A 
ATOM      6  C   UNL     1       8.334  -4.280  25.692  0.00  0.00    +0.057 A 
ENDROOT
BRANCH   1   8
ATOM      7  C   UNL     1       8.470  -2.269  22.559  0.00  0.00    +0.092 C 
ATOM      8  C   UNL     1       8.727  -2.738  23.791  0.00  0.00    +0.015 C 
BRANCH   7   9
ATOM      9  C   UNL     1       9.405  -1.313  21.933  0.00  0.00    +0.330 C 
ATOM     10  O   UNL     1       9.084  -0.236  21.462  0.00  0.00    -0.246 OA
BRANCH   9  11
ATOM     11  O   UNL     1      10.676  -1.763  21.952  0.00  0.00    -0.478 OA
ATOM     12  H   UNL     1      11.329  -1.174  22.368  0.00  0.00    +0.295 HD
ENDBRANCH   9  11
ENDBRANCH   7   9
ENDBRANCH   1   8
BRANCH   4  13
ATOM     13  O   UNL     1       5.617  -6.628  26.413  0.00  0.00    -0.503 OA
ATOM     14  H   UNL     1       4.864  -6.790  25.811  0.00  0.00    +0.292 HD
ENDBRANCH   4  13
BRANCH   5  15
ATOM     15  O   UNL     1       7.961  -5.829  27.508  0.00  0.00    -0.503 OA
ATOM     16  H   UNL     1       8.928  -5.936  27.485  0.00  0.00    +0.292 HD
ENDBRANCH   5  15
TORSDOF 5
ENDMDL
MODEL 8
REMARK VINA RESULT:      -5.0      1.563      1.846
REMARK  Name = 
REMARK  5 active torsions:
REMARK  status: ('A' for Active; 'I' for Inactive)
REMARK    1  A    between atoms: O_1  and  C_2
REMARK    2  A    between atoms: C_2  and  C_4
REMARK    3  A    between atoms: C_5  and  C_6
REMARK    4  A    between atoms: C_8  and  O_9
REMARK    5  A    between atoms: C_10  and  O_11
REMARK                            x       y       z     vdW  Elec       q    Type
REMARK                         _______ _______ _______ _____ _____    ______ ____
ROOT
ATOM      1  C   UNL     1       9.009  -1.617  23.109  0.00  0.00    -0.021 A 
ATOM      2  C   UNL     1      10.079  -1.030  22.409  0.00  0.00    +0.012 A 
ATOM      3  C   UNL     1       9.942   0.227  21.815  0.00  0.00    +0.050 A 
ATOM      4  C   UNL     1       8.730   0.889  21.907  0.00  0.00    +0.158 A 
ATOM      5  C   UNL     1       7.656   0.315  22.581  0.00  0.00    +0.159 A 
ATOM      6  C   UNL     1       7.785  -0.936  23.181  0.00  0.00    +0.057 A 
ENDROOT
BRANCH   1   8
ATOM      7  C   UNL     1       9.085  -3.201  25.021  0.00  0.00    +0.092 C 
ATOM      8  C   UNL     1       9.119  -2.960  23.701  0.00  0.00    +0.015 C 
BRANCH   7   9
ATOM      9  C   UNL     1       9.246  -4.583  25.515  0.00  0.00    +0.330 C 
ATOM     10  O   UNL     1       8.494  -5.130  26.302  0.00  0.00    -0.246 OA
BRANCH   9  11
ATOM     11  O   UNL     1      10.326  -5.188  24.982  0.00  0.00    -0.478 OA
ATOM     12  H   UNL     1      11.153  -4.675  25.002  0.00  0.00    +0.295 HD
ENDBRANCH   9  11
ENDBRANCH   7   9
ENDBRANCH   1   8
BRANCH   4  13
ATOM     13  O   UNL     1       8.593   2.110  21.314  0.00  0.00    -0.503 OA
ATOM     14  H   UNL     1       9.101   2.037  20.481  0.00  0.00    +0.292 HD
ENDBRANCH   4  13
BRANCH   5  15
ATOM     15  O   UNL     1       6.484   1.020  22.617  0.00  0.00    -0.503 OA
ATOM     16  H   UNL     1       5.755   0.411  22.407  0.00  0.00    +0.292 HD
ENDBRANCH   5  15
TORSDOF 5
ENDMDL
MODEL 9
REMARK VINA RESULT:      -4.9      1.513      6.230
REMARK  Name = 
REMARK  5 active torsions:
REMARK  status: ('A' for Active; 'I' for Inactive)
REMARK    1  A    between atoms: O_1  and  C_2
REMARK    2  A    between atoms: C_2  and  C_4
REMARK    3  A    between atoms: C_5  and  C_6
REMARK    4  A    between atoms: C_8  and  O_9
REMARK    5  A    between atoms: C_10  and  O_11
REMARK                            x       y       z     vdW  Elec       q    Type
REMARK                         _______ _______ _______ _____ _____    ______ ____
ROOT
ATOM      1  C   UNL     1       8.859  -2.478  25.070  0.00  0.00    -0.021 A 
ATOM      2  C   UNL     1       7.863  -2.519  26.063  0.00  0.00    +0.012 A 
ATOM      3  C   UNL     1       7.581  -3.704  26.746  0.00  0.00    +0.050 A 
ATOM      4  C   UNL     1       8.282  -4.852  26.424  0.00  0.00    +0.158 A 
ATOM      5  C   UNL     1       9.259  -4.835  25.433  0.00  0.00    +0.159 A 
ATOM      6  C   UNL     1       9.552  -3.656  24.750  0.00  0.00    +0.057 A 
ENDROOT
BRANCH   1   8
ATOM      7  C   UNL     1       9.872  -0.230  24.775  0.00  0.00    +0.092 C 
ATOM      8  C   UNL     1       9.139  -1.252  24.306  0.00  0.00    +0.015 C 
BRANCH   7   9
ATOM      9  C   UNL     1      10.060   0.976  23.943  0.00  0.00    +0.330 C 
ATOM     10  O   UNL     1      10.962   1.782  24.082  0.00  0.00    -0.246 OA
BRANCH   9  11
ATOM     11  O   UNL     1       9.114   1.082  22.989  0.00  0.00    -0.478 OA
ATOM     12  H   UNL     1       8.387   0.437  23.037  0.00  0.00    +0.295 HD
ENDBRANCH   9  11
ENDBRANCH   7   9
ENDBRANCH   1   8
BRANCH   4  13
ATOM     13  O   UNL     1       7.995  -6.012  27.082  0.00  0.00    -0.503 OA
ATOM     14  H   UNL     1       8.081  -5.786  28.030  0.00  0.00    +0.292 HD
ENDBRANCH   4  13
BRANCH   5  15
ATOM     15  O   UNL     1       9.900  -6.012  25.158  0.00  0.00    -0.503 OA
ATOM     16  H   UNL     1      10.696  -6.062  25.716  0.00  0.00    +0.292 HD
ENDBRANCH   5  15
TORSDOF 5
ENDMDL
