MODEL 1
REMARK VINA RESULT:      -7.3      0.000      0.000
REMARK  Name = 
REMARK  18 active torsions:
REMARK  status: ('A' for Active; 'I' for Inactive)
REMARK    1  A    between atoms: N_1  and  C_2
REMARK    2  A    between atoms: C_2  and  C_3
REMARK    3  A    between atoms: C_3  and  C_4
REMARK    4  A    between atoms: C_4  and  C_5
REMARK    5  A    between atoms: C_5  and  C_6
REMARK    6  A    between atoms: C_6  and  C_7
REMARK    7  A    between atoms: C_7  and  O_8
REMARK    8  A    between atoms: O_8  and  P_9
REMARK    9  A    between atoms: P_9  and  O_10
REMARK   10  A    between atoms: P_9  and  O_12
REMARK   11  A    between atoms: O_12  and  P_13
REMARK   12  A    between atoms: P_13  and  O_14
REMARK   13  A    between atoms: P_13  and  O_16
REMARK   14  A    between atoms: O_16  and  C_17
REMARK   15  A    between atoms: C_17  and  C_18
REMARK   16  A    between atoms: C_21  and  N_29
REMARK   17  A    between atoms: C_23  and  O_25
REMARK   18  A    between atoms: C_26  and  O_28
REMARK                            x       y       z     vdW  Elec       q    Type
REMARK                         _______ _______ _______ _____ _____    ______ ____
ROOT
ATOM      1  O   UNL     1       8.197  -2.945  22.240  0.00  0.00    -0.284 OA
ENDROOT
BRANCH   1   2
ATOM      2  P   UNL     1       9.040  -1.612  22.950  0.00  0.00    +0.483 P 
ATOM      3  O   UNL     1       9.454  -2.507  24.117  0.00  0.00    -0.227 OA
BRANCH   2   4
ATOM      4  O   UNL     1      10.281  -1.735  21.899  0.00  0.00    -0.302 OA
ATOM      5  H   UNL     1      11.108  -1.560  22.395  0.00  0.00    +0.222 HD
ENDBRANCH   2   4
BRANCH   2   6
ATOM      6  O   UNL     1       9.884  -0.279  23.661  0.00  0.00    -0.186 OA
BRANCH   6   7
ATOM      7  P   UNL     1       9.946   1.032  22.533  0.00  0.00    +0.483 P 
ATOM      8  O   UNL     1       8.733   0.495  21.781  0.00  0.00    -0.227 OA
BRANCH   7   9
ATOM      9  O   UNL     1      10.008   2.343  21.407  0.00  0.00    -0.302 OA
ATOM     10  H   UNL     1       9.340   3.006  21.660  0.00  0.00    +0.222 HD
ENDBRANCH   7   9
BRANCH   7  11
ATOM     11  O   UNL     1       9.506   2.101  23.705  0.00  0.00    -0.286 OA
BRANCH  11  12
ATOM     12  C   UNL     1       8.267   2.784  23.596  0.00  0.00    +0.172 C 
BRANCH  12  13
ATOM     13  C   UNL     1       8.457   4.304  23.707  0.00  0.00    +0.029 C 
BRANCH  13  14
ATOM     14  C   UNL     1       9.754   4.741  24.410  0.00  0.00    +0.002 C 
BRANCH  14  15
ATOM     15  C   UNL     1      10.425   5.917  23.674  0.00  0.00    +0.001 C 
BRANCH  15  16
ATOM     16  C   UNL     1      11.942   5.972  23.905  0.00  0.00    +0.015 C 
BRANCH  16  17
ATOM     17  C   UNL     1      12.695   5.107  22.888  0.00  0.00    +0.077 C 
BRANCH  17  18
ATOM     18  N   UNL     1      14.128   5.112  23.159  0.00  0.00    -0.330 NA
ATOM     19  H   UNL     1      14.460   6.071  23.249  0.00  0.00    +0.118 HD
ATOM     20  H   UNL     1      14.302   4.667  24.062  0.00  0.00    +0.118 HD
ENDBRANCH  17  18
ENDBRANCH  16  17
ENDBRANCH  15  16
ENDBRANCH  14  15
ENDBRANCH  13  14
ENDBRANCH  12  13
ENDBRANCH  11  12
ENDBRANCH   7  11
ENDBRANCH   6   7
ENDBRANCH   2   6
ENDBRANCH   1   2
BRANCH   1  21
ATOM     21  C   UNL     1       6.774  -2.923  22.444  0.00  0.00    +0.206 C 
BRANCH  21  22
ATOM     22  C   UNL     1       6.166  -4.320  22.584  0.00  0.00    +0.178 C 
ATOM     23  C   UNL     1       7.236  -5.406  22.415  0.00  0.00    +0.178 C 
ATOM     24  C   UNL     1       7.676  -5.765  23.840  0.00  0.00    +0.195 C 
ATOM     25  C   UNL     1       6.766  -4.908  24.741  0.00  0.00    +0.255 C 
ATOM     26  O   UNL     1       5.655  -4.515  23.917  0.00  0.00    -0.346 OA
BRANCH  25  27
ATOM     27  N   UNL     1       6.314  -5.586  25.955  0.00  0.00    -0.271 N 
ATOM     28  C   UNL     1       7.118  -5.460  27.081  0.00  0.00    +0.331 A 
ATOM     29  O   UNL     1       8.212  -4.893  27.075  0.00  0.00    -0.246 OA
ATOM     30  N   UNL     1       6.629  -6.026  28.228  0.00  0.00    -0.275 N 
ATOM     31  H   UNL     1       7.199  -5.946  29.059  0.00  0.00    +0.173 HD
ATOM     32  C   UNL     1       5.443  -6.679  28.366  0.00  0.00    +0.254 A 
ATOM     33  O   UNL     1       5.060  -7.167  29.417  0.00  0.00    -0.268 OA
ATOM     34  C   UNL     1       4.628  -6.772  27.136  0.00  0.00    +0.088 A 
ATOM     35  C   UNL     1       5.092  -6.226  26.010  0.00  0.00    +0.098 A 
ENDBRANCH  25  27
BRANCH  24  36
ATOM     36  O   UNL     1       9.058  -5.449  24.038  0.00  0.00    -0.385 OA
ATOM     37  H   UNL     1       9.178  -5.323  25.006  0.00  0.00    +0.210 HD
ENDBRANCH  24  36
BRANCH  23  38
ATOM     38  O   UNL     1       6.657  -6.556  21.780  0.00  0.00    -0.386 OA
ATOM     39  H   UNL     1       5.851  -6.798  22.268  0.00  0.00    +0.210 HD
ENDBRANCH  23  38
ENDBRANCH  21  22
ENDBRANCH   1  21
TORSDOF 18
ENDMDL
MODEL 2
REMARK VINA RESULT:      -6.9      2.148      3.344
REMARK  Name = 
REMARK  18 active torsions:
REMARK  status: ('A' for Active; 'I' for Inactive)
REMARK    1  A    between atoms: N_1  and  C_2
REMARK    2  A    between atoms: C_2  and  C_3
REMARK    3  A    between atoms: C_3  and  C_4
REMARK    4  A    between atoms: C_4  and  C_5
REMARK    5  A    between atoms: C_5  and  C_6
REMARK    6  A    between atoms: C_6  and  C_7
REMARK    7  A    between atoms: C_7  and  O_8
REMARK    8  A    between atoms: O_8  and  P_9
REMARK    9  A    between atoms: P_9  and  O_10
REMARK   10  A    between atoms: P_9  and  O_12
REMARK   11  A    between atoms: O_12  and  P_13
REMARK   12  A    between atoms: P_13  and  O_14
REMARK   13  A    between atoms: P_13  and  O_16
REMARK   14  A    between atoms: O_16  and  C_17
REMARK   15  A    between atoms: C_17  and  C_18
REMARK   16  A    between atoms: C_21  and  N_29
REMARK   17  A    between atoms: C_23  and  O_25
REMARK   18  A    between atoms: C_26  and  O_28
REMARK                            x       y       z     vdW  Elec       q    Type
REMARK                         _______ _______ _______ _____ _____    ______ ____
ROOT
ATOM      1  O   UNL     1      10.138   0.330  22.152  0.00  0.00    -0.284 OA
ENDROOT
BRANCH   1   2
ATOM      2  P   UNL     1       9.375   1.701  22.881  0.00  0.00    +0.483 P 
ATOM      3  O   UNL     1      10.742   2.212  23.331  0.00  0.00    -0.227 OA
BRANCH   2   4
ATOM      4  O   UNL     1       9.135   2.432  21.443  0.00  0.00    -0.302 OA
ATOM      5  H   UNL     1      10.013   2.564  21.027  0.00  0.00    +0.222 HD
ENDBRANCH   2   4
BRANCH   2   6
ATOM      6  O   UNL     1       8.612   3.073  23.610  0.00  0.00    -0.186 OA
BRANCH   6   7
ATOM      7  P   UNL     1       7.193   3.488  22.712  0.00  0.00    +0.483 P 
ATOM      8  O   UNL     1       6.394   3.698  23.994  0.00  0.00    -0.227 OA
BRANCH   7   9
ATOM      9  O   UNL     1       5.775   3.903  21.814  0.00  0.00    -0.302 OA
ATOM     10  H   UNL     1       5.042   3.328  22.100  0.00  0.00    +0.222 HD
ENDBRANCH   7   9
BRANCH   7  11
ATOM     11  O   UNL     1       7.889   4.887  22.198  0.00  0.00    -0.286 OA
BRANCH  11  12
ATOM     12  C   UNL     1       7.436   6.126  22.723  0.00  0.00    +0.172 C 
BRANCH  12  13
ATOM     13  C   UNL     1       8.473   6.736  23.679  0.00  0.00    +0.029 C 
BRANCH  13  14
ATOM     14  C   UNL     1       9.913   6.238  23.471  0.00  0.00    +0.002 C 
BRANCH  14  15
ATOM     15  C   UNL     1      10.761   6.421  24.745  0.00  0.00    +0.001 C 
BRANCH  15  16
ATOM     16  C   UNL     1      12.266   6.276  24.480  0.00  0.00    +0.015 C 
BRANCH  16  17
ATOM     17  C   UNL     1      12.546   5.229  23.395  0.00  0.00    +0.077 C 
BRANCH  17  18
ATOM     18  N   UNL     1      13.970   5.172  23.080  0.00  0.00    -0.330 NA
ATOM     19  H   UNL     1      14.099   4.847  22.124  0.00  0.00    +0.118 HD
ATOM     20  H   UNL     1      14.360   6.116  23.113  0.00  0.00    +0.118 HD
ENDBRANCH  17  18
ENDBRANCH  16  17
ENDBRANCH  15  16
ENDBRANCH  14  15
ENDBRANCH  13  14
ENDBRANCH  12  13
ENDBRANCH  11  12
ENDBRANCH   7  11
ENDBRANCH   6   7
ENDBRANCH   2   6
ENDBRANCH   1   2
BRANCH   1  21
ATOM     21  C   UNL     1       9.773  -0.932  22.736  0.00  0.00    +0.206 C 
BRANCH  21  22
ATOM     22  C   UNL     1       8.542  -0.841  23.641  0.00  0.00    +0.178 C 
ATOM     23  C   UNL     1       7.273  -1.262  22.889  0.00  0.00    +0.178 C 
ATOM     24  C   UNL     1       7.068  -2.742  23.239  0.00  0.00    +0.195 C 
ATOM     25  C   UNL     1       8.200  -3.051  24.238  0.00  0.00    +0.255 C 
ATOM     26  O   UNL     1       8.648  -1.777  24.731  0.00  0.00    -0.346 OA
BRANCH  25  27
ATOM     27  N   UNL     1       7.808  -3.937  25.332  0.00  0.00    -0.271 N 
ATOM     28  C   UNL     1       8.603  -5.056  25.551  0.00  0.00    +0.331 A 
ATOM     29  O   UNL     1       9.545  -5.372  24.823  0.00  0.00    -0.246 OA
ATOM     30  N   UNL     1       8.270  -5.819  26.638  0.00  0.00    -0.275 N 
ATOM     31  H   UNL     1       8.836  -6.638  26.814  0.00  0.00    +0.173 HD
ATOM     32  C   UNL     1       7.257  -5.581  27.514  0.00  0.00    +0.254 A 
ATOM     33  O   UNL     1       7.005  -6.302  28.466  0.00  0.00    -0.268 OA
ATOM     34  C   UNL     1       6.452  -4.372  27.235  0.00  0.00    +0.088 A 
ATOM     35  C   UNL     1       6.765  -3.619  26.179  0.00  0.00    +0.098 A 
ENDBRANCH  25  27
BRANCH  24  36
ATOM     36  O   UNL     1       7.164  -3.557  22.067  0.00  0.00    -0.385 OA
ATOM     37  H   UNL     1       6.451  -3.256  21.460  0.00  0.00    +0.210 HD
ENDBRANCH  24  36
BRANCH  23  38
ATOM     38  O   UNL     1       6.157  -0.491  23.360  0.00  0.00    -0.386 OA
ATOM     39  H   UNL     1       5.357  -1.041  23.291  0.00  0.00    +0.210 HD
ENDBRANCH  23  38
ENDBRANCH  21  22
ENDBRANCH   1  21
TORSDOF 18
ENDMDL
MODEL 3
REMARK VINA RESULT:      -6.8      1.929      2.864
REMARK  Name = 
REMARK  18 active torsions:
REMARK  status: ('A' for Active; 'I' for Inactive)
REMARK    1  A    between atoms: N_1  and  C_2
REMARK    2  A    between atoms: C_2  and  C_3
REMARK    3  A    between atoms: C_3  and  C_4
REMARK    4  A    between atoms: C_4  and  C_5
REMARK    5  A    between atoms: C_5  and  C_6
REMARK    6  A    between atoms: C_6  and  C_7
REMARK    7  A    between atoms: C_7  and  O_8
REMARK    8  A    between atoms: O_8  and  P_9
REMARK    9  A    between atoms: P_9  and  O_10
REMARK   10  A    between atoms: P_9  and  O_12
REMARK   11  A    between atoms: O_12  and  P_13
REMARK   12  A    between atoms: P_13  and  O_14
REMARK   13  A    between atoms: P_13  and  O_16
REMARK   14  A    between atoms: O_16  and  C_17
REMARK   15  A    between atoms: C_17  and  C_18
REMARK   16  A    between atoms: C_21  and  N_29
REMARK   17  A    between atoms: C_23  and  O_25
REMARK   18  A    between atoms: C_26  and  O_28
REMARK                            x       y       z     vdW  Elec       q    Type
REMARK                         _______ _______ _______ _____ _____    ______ ____
ROOT
ATOM      1  O   UNL     1       8.018  -2.490  21.961  0.00  0.00    -0.284 OA
ENDROOT
BRANCH   1   2
ATOM      2  P   UNL     1       9.058  -1.310  22.682  0.00  0.00    +0.483 P 
ATOM      3  O   UNL     1       9.433  -2.317  23.768  0.00  0.00    -0.227 OA
BRANCH   2   4
ATOM      4  O   UNL     1      10.207  -1.513  21.543  0.00  0.00    -0.302 OA
ATOM      5  H   UNL     1      10.208  -2.459  21.287  0.00  0.00    +0.222 HD
ENDBRANCH   2   4
BRANCH   2   6
ATOM      6  O   UNL     1      10.098  -0.130  23.402  0.00  0.00    -0.186 OA
BRANCH   6   7
ATOM      7  P   UNL     1       9.698   1.439  22.794  0.00  0.00    +0.483 P 
ATOM      8  O   UNL     1       8.400   0.918  22.186  0.00  0.00    -0.227 OA
BRANCH   7   9
ATOM      9  O   UNL     1       9.298   3.009  22.188  0.00  0.00    -0.302 OA
ATOM     10  H   UNL     1      10.104   3.555  22.174  0.00  0.00    +0.222 HD
ENDBRANCH   7   9
BRANCH   7  11
ATOM     11  O   UNL     1       9.464   2.005  24.322  0.00  0.00    -0.286 OA
BRANCH  11  12
ATOM     12  C   UNL     1       8.959   3.319  24.509  0.00  0.00    +0.172 C 
BRANCH  12  13
ATOM     13  C   UNL     1       7.468   3.293  24.882  0.00  0.00    +0.029 C 
BRANCH  13  14
ATOM     14  C   UNL     1       7.114   2.364  26.055  0.00  0.00    +0.002 C 
BRANCH  14  15
ATOM     15  C   UNL     1       6.235   1.185  25.594  0.00  0.00    +0.001 C 
BRANCH  15  16
ATOM     16  C   UNL     1       6.961  -0.165  25.680  0.00  0.00    +0.015 C 
BRANCH  16  17
ATOM     17  C   UNL     1       7.984  -0.179  26.822  0.00  0.00    +0.077 C 
BRANCH  17  18
ATOM     18  N   UNL     1       9.339  -0.339  26.306  0.00  0.00    -0.330 NA
ATOM     19  H   UNL     1       9.332  -0.269  25.290  0.00  0.00    +0.118 HD
ATOM     20  H   UNL     1       9.919   0.433  26.638  0.00  0.00    +0.118 HD
ENDBRANCH  17  18
ENDBRANCH  16  17
ENDBRANCH  15  16
ENDBRANCH  14  15
ENDBRANCH  13  14
ENDBRANCH  12  13
ENDBRANCH  11  12
ENDBRANCH   7  11
ENDBRANCH   6   7
ENDBRANCH   2   6
ENDBRANCH   1   2
BRANCH   1  21
ATOM     21  C   UNL     1       6.735  -2.618  22.598  0.00  0.00    +0.206 C 
BRANCH  21  22
ATOM     22  C   UNL     1       6.221  -4.059  22.628  0.00  0.00    +0.178 C 
ATOM     23  C   UNL     1       7.372  -5.059  22.457  0.00  0.00    +0.178 C 
ATOM     24  C   UNL     1       7.765  -5.470  23.882  0.00  0.00    +0.195 C 
ATOM     25  C   UNL     1       6.753  -4.730  24.779  0.00  0.00    +0.255 C 
ATOM     26  O   UNL     1       5.659  -4.366  23.919  0.00  0.00    -0.346 OA
BRANCH  25  27
ATOM     27  N   UNL     1       6.290  -5.507  25.927  0.00  0.00    -0.271 N 
ATOM     28  C   UNL     1       7.050  -5.427  27.088  0.00  0.00    +0.331 A 
ATOM     29  O   UNL     1       8.117  -4.817  27.159  0.00  0.00    -0.246 OA
ATOM     30  N   UNL     1       6.547  -6.088  28.176  0.00  0.00    -0.275 N 
ATOM     31  H   UNL     1       7.085  -6.042  29.030  0.00  0.00    +0.173 HD
ATOM     32  C   UNL     1       5.386  -6.796  28.227  0.00  0.00    +0.254 A 
ATOM     33  O   UNL     1       4.989  -7.370  29.229  0.00  0.00    -0.268 OA
ATOM     34  C   UNL     1       4.616  -6.838  26.965  0.00  0.00    +0.088 A 
ATOM     35  C   UNL     1       5.095  -6.198  25.896  0.00  0.00    +0.098 A 
ENDBRANCH  25  27
BRANCH  24  36
ATOM     36  O   UNL     1       9.109  -5.074  24.171  0.00  0.00    -0.385 OA
ATOM     37  H   UNL     1       9.583  -5.050  23.309  0.00  0.00    +0.210 HD
ENDBRANCH  24  36
BRANCH  23  38
ATOM     38  O   UNL     1       6.908  -6.206  21.730  0.00  0.00    -0.386 OA
ATOM     39  H   UNL     1       6.737  -5.934  20.811  0.00  0.00    +0.210 HD
ENDBRANCH  23  38
ENDBRANCH  21  22
ENDBRANCH   1  21
TORSDOF 18
ENDMDL
MODEL 4
REMARK VINA RESULT:      -6.7      2.908      8.824
REMARK  Name = 
REMARK  18 active torsions:
REMARK  status: ('A' for Active; 'I' for Inactive)
REMARK    1  A    between atoms: N_1  and  C_2
REMARK    2  A    between atoms: C_2  and  C_3
REMARK    3  A    between atoms: C_3  and  C_4
REMARK    4  A    between atoms: C_4  and  C_5
REMARK    5  A    between atoms: C_5  and  C_6
REMARK    6  A    between atoms: C_6  and  C_7
REMARK    7  A    between atoms: C_7  and  O_8
REMARK    8  A    between atoms: O_8  and  P_9
REMARK    9  A    between atoms: P_9  and  O_10
REMARK   10  A    between atoms: P_9  and  O_12
REMARK   11  A    between atoms: O_12  and  P_13
REMARK   12  A    between atoms: P_13  and  O_14
REMARK   13  A    between atoms: P_13  and  O_16
REMARK   14  A    between atoms: O_16  and  C_17
REMARK   15  A    between atoms: C_17  and  C_18
REMARK   16  A    between atoms: C_21  and  N_29
REMARK   17  A    between atoms: C_23  and  O_25
REMARK   18  A    between atoms: C_26  and  O_28
REMARK                            x       y       z     vdW  Elec       q    Type
REMARK                         _______ _______ _______ _____ _____    ______ ____
ROOT
ATOM      1  O   UNL     1       9.887  -3.659  24.332  0.00  0.00    -0.284 OA
ENDROOT
BRANCH   1   2
ATOM      2  P   UNL     1       8.933  -4.819  25.190  0.00  0.00    +0.483 P 
ATOM      3  O   UNL     1       8.810  -5.649  23.914  0.00  0.00    -0.227 OA
BRANCH   2   4
ATOM      4  O   UNL     1      10.236  -5.448  25.945  0.00  0.00    -0.302 OA
ATOM      5  H   UNL     1      10.000  -6.353  26.239  0.00  0.00    +0.222 HD
ENDBRANCH   2   4
BRANCH   2   6
ATOM      6  O   UNL     1       7.980  -5.981  26.048  0.00  0.00    -0.186 OA
BRANCH   6   7
ATOM      7  P   UNL     1       6.908  -5.160  27.131  0.00  0.00    +0.483 P 
ATOM      8  O   UNL     1       7.567  -3.818  26.830  0.00  0.00    -0.227 OA
BRANCH   7   9
ATOM      9  O   UNL     1       5.835  -4.341  28.212  0.00  0.00    -0.302 OA
ATOM     10  H   UNL     1       5.338  -5.005  28.724  0.00  0.00    +0.222 HD
ENDBRANCH   7   9
BRANCH   7  11
ATOM     11  O   UNL     1       5.632  -5.444  26.131  0.00  0.00    -0.286 OA
BRANCH  11  12
ATOM     12  C   UNL     1       4.737  -4.386  25.825  0.00  0.00    +0.172 C 
BRANCH  12  13
ATOM     13  C   UNL     1       4.597  -4.198  24.306  0.00  0.00    +0.029 C 
BRANCH  13  14
ATOM     14  C   UNL     1       5.567  -3.174  23.692  0.00  0.00    +0.002 C 
BRANCH  14  15
ATOM     15  C   UNL     1       5.596  -3.278  22.155  0.00  0.00    +0.001 C 
BRANCH  15  16
ATOM     16  C   UNL     1       6.731  -4.175  21.643  0.00  0.00    +0.015 C 
BRANCH  16  17
ATOM     17  C   UNL     1       6.195  -5.509  21.111  0.00  0.00    +0.077 C 
BRANCH  17  18
ATOM     18  N   UNL     1       6.364  -6.570  22.098  0.00  0.00    -0.330 NA
ATOM     19  H   UNL     1       7.040  -7.252  21.760  0.00  0.00    +0.118 HD
ATOM     20  H   UNL     1       6.763  -6.176  22.952  0.00  0.00    +0.118 HD
ENDBRANCH  17  18
ENDBRANCH  16  17
ENDBRANCH  15  16
ENDBRANCH  14  15
ENDBRANCH  13  14
ENDBRANCH  12  13
ENDBRANCH  11  12
ENDBRANCH   7  11
ENDBRANCH   6   7
ENDBRANCH   2   6
ENDBRANCH   1   2
BRANCH   1  21
ATOM     21  C   UNL     1       9.377  -2.315  24.387  0.00  0.00    +0.206 C 
BRANCH  21  22
ATOM     22  C   UNL     1       9.934  -1.416  23.281  0.00  0.00    +0.178 C 
ATOM     23  C   UNL     1       8.883  -1.164  22.193  0.00  0.00    +0.178 C 
ATOM     24  C   UNL     1       8.233   0.175  22.562  0.00  0.00    +0.195 C 
ATOM     25  C   UNL     1       9.015   0.643  23.805  0.00  0.00    +0.255 C 
ATOM     26  O   UNL     1      10.241  -0.108  23.802  0.00  0.00    -0.346 OA
BRANCH  25  27
ATOM     27  N   UNL     1       9.273   2.081  23.844  0.00  0.00    -0.271 N 
ATOM     28  C   UNL     1       8.313   2.875  24.459  0.00  0.00    +0.331 A 
ATOM     29  O   UNL     1       7.240   2.440  24.879  0.00  0.00    -0.246 OA
ATOM     30  N   UNL     1       8.619   4.205  24.566  0.00  0.00    -0.275 N 
ATOM     31  H   UNL     1       7.933   4.800  25.010  0.00  0.00    +0.173 HD
ATOM     32  C   UNL     1       9.763   4.808  24.143  0.00  0.00    +0.254 A 
ATOM     33  O   UNL     1       9.980   6.003  24.264  0.00  0.00    -0.268 OA
ATOM     34  C   UNL     1      10.751   3.911  23.506  0.00  0.00    +0.088 A 
ATOM     35  C   UNL     1      10.466   2.612  23.394  0.00  0.00    +0.098 A 
ENDBRANCH  25  27
BRANCH  24  36
ATOM     36  O   UNL     1       6.843   0.001  22.851  0.00  0.00    -0.385 OA
ATOM     37  H   UNL     1       6.679   0.453  23.710  0.00  0.00    +0.210 HD
ENDBRANCH  24  36
BRANCH  23  38
ATOM     38  O   UNL     1       9.530  -1.057  20.916  0.00  0.00    -0.386 OA
ATOM     39  H   UNL     1       9.434  -0.140  20.603  0.00  0.00    +0.210 HD
ENDBRANCH  23  38
ENDBRANCH  21  22
ENDBRANCH   1  21
TORSDOF 18
ENDMDL
MODEL 5
REMARK VINA RESULT:      -6.7      2.057      2.360
REMARK  Name = 
REMARK  18 active torsions:
REMARK  status: ('A' for Active; 'I' for Inactive)
REMARK    1  A    between atoms: N_1  and  C_2
REMARK    2  A    between atoms: C_2  and  C_3
REMARK    3  A    between atoms: C_3  and  C_4
REMARK    4  A    between atoms: C_4  and  C_5
REMARK    5  A    between atoms: C_5  and  C_6
REMARK    6  A    between atoms: C_6  and  C_7
REMARK    7  A    between atoms: C_7  and  O_8
REMARK    8  A    between atoms: O_8  and  P_9
REMARK    9  A    between atoms: P_9  and  O_10
REMARK   10  A    between atoms: P_9  and  O_12
REMARK   11  A    between atoms: O_12  and  P_13
REMARK   12  A    between atoms: P_13  and  O_14
REMARK   13  A    between atoms: P_13  and  O_16
REMARK   14  A    between atoms: O_16  and  C_17
REMARK   15  A    between atoms: C_17  and  C_18
REMARK   16  A    between atoms: C_21  and  N_29
REMARK   17  A    between atoms: C_23  and  O_25
REMARK   18  A    between atoms: C_26  and  O_28
REMARK                            x       y       z     vdW  Elec       q    Type
REMARK                         _______ _______ _______ _____ _____    ______ ____
ROOT
ATOM      1  O   UNL     1       8.067  -2.691  22.055  0.00  0.00    -0.284 OA
ENDROOT
BRANCH   1   2
ATOM      2  P   UNL     1       9.122  -1.544  22.806  0.00  0.00    +0.483 P 
ATOM      3  O   UNL     1       9.594  -2.626  23.776  0.00  0.00    -0.227 OA
BRANCH   2   4
ATOM      4  O   UNL     1      10.198  -1.616  21.582  0.00  0.00    -0.302 OA
ATOM      5  H   UNL     1       9.704  -1.834  20.765  0.00  0.00    +0.222 HD
ENDBRANCH   2   4
BRANCH   2   6
ATOM      6  O   UNL     1      10.178  -0.398  23.557  0.00  0.00    -0.186 OA
BRANCH   6   7
ATOM      7  P   UNL     1      10.185   1.068  22.637  0.00  0.00    +0.483 P 
ATOM      8  O   UNL     1       8.788   0.784  22.097  0.00  0.00    -0.227 OA
BRANCH   7   9
ATOM      9  O   UNL     1      10.193   2.533  21.719  0.00  0.00    -0.302 OA
ATOM     10  H   UNL     1       9.669   3.204  22.193  0.00  0.00    +0.222 HD
ENDBRANCH   7   9
BRANCH   7  11
ATOM     11  O   UNL     1      10.130   1.968  24.013  0.00  0.00    -0.286 OA
BRANCH  11  12
ATOM     12  C   UNL     1       8.871   2.364  24.537  0.00  0.00    +0.172 C 
BRANCH  12  13
ATOM     13  C   UNL     1       8.730   3.894  24.549  0.00  0.00    +0.029 C 
BRANCH  13  14
ATOM     14  C   UNL     1       7.368   4.419  24.065  0.00  0.00    +0.002 C 
BRANCH  14  15
ATOM     15  C   UNL     1       7.317   4.516  22.528  0.00  0.00    +0.001 C 
BRANCH  15  16
ATOM     16  C   UNL     1       7.414   5.962  22.021  0.00  0.00    +0.015 C 
BRANCH  16  17
ATOM     17  C   UNL     1       6.261   6.821  22.554  0.00  0.00    +0.077 C 
BRANCH  17  18
ATOM     18  N   UNL     1       4.980   6.350  22.041  0.00  0.00    -0.330 NA
ATOM     19  H   UNL     1       5.132   5.731  21.247  0.00  0.00    +0.118 HD
ATOM     20  H   UNL     1       4.518   5.784  22.755  0.00  0.00    +0.118 HD
ENDBRANCH  17  18
ENDBRANCH  16  17
ENDBRANCH  15  16
ENDBRANCH  14  15
ENDBRANCH  13  14
ENDBRANCH  12  13
ENDBRANCH  11  12
ENDBRANCH   7  11
ENDBRANCH   6   7
ENDBRANCH   2   6
ENDBRANCH   1   2
BRANCH   1  21
ATOM     21  C   UNL     1       6.748  -2.746  22.626  0.00  0.00    +0.206 C 
BRANCH  21  22
ATOM     22  C   UNL     1       6.175  -4.164  22.679  0.00  0.00    +0.178 C 
ATOM     23  C   UNL     1       7.281  -5.212  22.503  0.00  0.00    +0.178 C 
ATOM     24  C   UNL     1       7.677  -5.624  23.927  0.00  0.00    +0.195 C 
ATOM     25  C   UNL     1       6.710  -4.834  24.829  0.00  0.00    +0.255 C 
ATOM     26  O   UNL     1       5.620  -4.434  23.981  0.00  0.00    -0.346 OA
BRANCH  25  27
ATOM     27  N   UNL     1       6.232  -5.579  25.993  0.00  0.00    -0.271 N 
ATOM     28  C   UNL     1       6.995  -5.494  27.151  0.00  0.00    +0.331 A 
ATOM     29  O   UNL     1       8.076  -4.906  27.209  0.00  0.00    -0.246 OA
ATOM     30  N   UNL     1       6.480  -6.123  28.252  0.00  0.00    -0.275 N 
ATOM     31  H   UNL     1       7.020  -6.073  29.104  0.00  0.00    +0.173 HD
ATOM     32  C   UNL     1       5.304  -6.805  28.317  0.00  0.00    +0.254 A 
ATOM     33  O   UNL     1       4.896  -7.350  29.330  0.00  0.00    -0.268 OA
ATOM     34  C   UNL     1       4.531  -6.853  27.057  0.00  0.00    +0.088 A 
ATOM     35  C   UNL     1       5.022  -6.244  25.976  0.00  0.00    +0.098 A 
ENDBRANCH  25  27
BRANCH  24  36
ATOM     36  O   UNL     1       9.041  -5.282  24.192  0.00  0.00    -0.385 OA
ATOM     37  H   UNL     1       9.373  -4.821  23.389  0.00  0.00    +0.210 HD
ENDBRANCH  24  36
BRANCH  23  38
ATOM     38  O   UNL     1       6.759  -6.346  21.795  0.00  0.00    -0.386 OA
ATOM     39  H   UNL     1       6.877  -7.134  22.355  0.00  0.00    +0.210 HD
ENDBRANCH  23  38
ENDBRANCH  21  22
ENDBRANCH   1  21
TORSDOF 18
ENDMDL
MODEL 6
REMARK VINA RESULT:      -6.6      2.138      2.557
REMARK  Name = 
REMARK  18 active torsions:
REMARK  status: ('A' for Active; 'I' for Inactive)
REMARK    1  A    between atoms: N_1  and  C_2
REMARK    2  A    between atoms: C_2  and  C_3
REMARK    3  A    between atoms: C_3  and  C_4
REMARK    4  A    between atoms: C_4  and  C_5
REMARK    5  A    between atoms: C_5  and  C_6
REMARK    6  A    between atoms: C_6  and  C_7
REMARK    7  A    between atoms: C_7  and  O_8
REMARK    8  A    between atoms: O_8  and  P_9
REMARK    9  A    between atoms: P_9  and  O_10
REMARK   10  A    between atoms: P_9  and  O_12
REMARK   11  A    between atoms: O_12  and  P_13
REMARK   12  A    between atoms: P_13  and  O_14
REMARK   13  A    between atoms: P_13  and  O_16
REMARK   14  A    between atoms: O_16  and  C_17
REMARK   15  A    between atoms: C_17  and  C_18
REMARK   16  A    between atoms: C_21  and  N_29
REMARK   17  A    between atoms: C_23  and  O_25
REMARK   18  A    between atoms: C_26  and  O_28
REMARK                            x       y       z     vdW  Elec       q    Type
REMARK                         _______ _______ _______ _____ _____    ______ ____
ROOT
ATOM      1  O   UNL     1       7.656  -2.781  21.964  0.00  0.00    -0.284 OA
ENDROOT
BRANCH   1   2
ATOM      2  P   UNL     1       8.695  -1.564  22.621  0.00  0.00    +0.483 P 
ATOM      3  O   UNL     1       9.254  -2.587  23.609  0.00  0.00    -0.227 OA
BRANCH   2   4
ATOM      4  O   UNL     1       9.718  -1.640  21.353  0.00  0.00    -0.302 OA
ATOM      5  H   UNL     1      10.624  -1.748  21.709  0.00  0.00    +0.222 HD
ENDBRANCH   2   4
BRANCH   2   6
ATOM      6  O   UNL     1       9.734  -0.347  23.279  0.00  0.00    -0.186 OA
BRANCH   6   7
ATOM      7  P   UNL     1       9.563  -0.311  25.000  0.00  0.00    +0.483 P 
ATOM      8  O   UNL     1      10.917   0.370  25.161  0.00  0.00    -0.227 OA
BRANCH   7   9
ATOM      9  O   UNL     1       9.390  -0.275  26.720  0.00  0.00    -0.302 OA
ATOM     10  H   UNL     1       8.660   0.329  26.950  0.00  0.00    +0.222 HD
ENDBRANCH   7   9
BRANCH   7  11
ATOM     11  O   UNL     1       8.344   0.789  24.887  0.00  0.00    -0.286 OA
BRANCH  11  12
ATOM     12  C   UNL     1       8.625   2.165  25.089  0.00  0.00    +0.172 C 
BRANCH  12  13
ATOM     13  C   UNL     1       7.362   2.937  25.501  0.00  0.00    +0.029 C 
BRANCH  13  14
ATOM     14  C   UNL     1       6.527   3.479  24.328  0.00  0.00    +0.002 C 
BRANCH  14  15
ATOM     15  C   UNL     1       7.426   4.060  23.220  0.00  0.00    +0.001 C 
BRANCH  15  16
ATOM     16  C   UNL     1       7.103   3.485  21.833  0.00  0.00    +0.015 C 
BRANCH  16  17
ATOM     17  C   UNL     1       7.691   2.080  21.658  0.00  0.00    +0.077 C 
BRANCH  17  18
ATOM     18  N   UNL     1       9.141   2.137  21.507  0.00  0.00    -0.330 NA
ATOM     19  H   UNL     1       9.381   2.691  20.687  0.00  0.00    +0.118 HD
ATOM     20  H   UNL     1       9.545   2.628  22.307  0.00  0.00    +0.118 HD
ENDBRANCH  17  18
ENDBRANCH  16  17
ENDBRANCH  15  16
ENDBRANCH  14  15
ENDBRANCH  13  14
ENDBRANCH  12  13
ENDBRANCH  11  12
ENDBRANCH   7  11
ENDBRANCH   6   7
ENDBRANCH   2   6
ENDBRANCH   1   2
BRANCH   1  21
ATOM     21  C   UNL     1       6.291  -2.700  22.408  0.00  0.00    +0.206 C 
BRANCH  21  22
ATOM     22  C   UNL     1       5.620  -4.069  22.539  0.00  0.00    +0.178 C 
ATOM     23  C   UNL     1       6.598  -5.198  22.191  0.00  0.00    +0.178 C 
ATOM     24  C   UNL     1       7.169  -5.666  23.536  0.00  0.00    +0.195 C 
ATOM     25  C   UNL     1       6.415  -4.818  24.579  0.00  0.00    +0.255 C 
ATOM     26  O   UNL     1       5.247  -4.318  23.909  0.00  0.00    -0.346 OA
BRANCH  25  27
ATOM     27  N   UNL     1       6.059  -5.545  25.797  0.00  0.00    -0.271 N 
ATOM     28  C   UNL     1       6.977  -5.512  26.840  0.00  0.00    +0.331 A 
ATOM     29  O   UNL     1       8.088  -4.988  26.749  0.00  0.00    -0.246 OA
ATOM     30  N   UNL     1       6.582  -6.121  28.000  0.00  0.00    -0.275 N 
ATOM     31  H   UNL     1       7.236  -6.108  28.771  0.00  0.00    +0.173 HD
ATOM     32  C   UNL     1       5.389  -6.734  28.226  0.00  0.00    +0.254 A 
ATOM     33  O   UNL     1       5.093  -7.264  29.285  0.00  0.00    -0.268 OA
ATOM     34  C   UNL     1       4.450  -6.728  27.084  0.00  0.00    +0.088 A 
ATOM     35  C   UNL     1       4.822  -6.139  25.946  0.00  0.00    +0.098 A 
ENDBRANCH  25  27
BRANCH  24  36
ATOM     36  O   UNL     1       8.580  -5.438  23.594  0.00  0.00    -0.385 OA
ATOM     37  H   UNL     1       8.732  -4.825  24.349  0.00  0.00    +0.210 HD
ENDBRANCH  24  36
BRANCH  23  38
ATOM     38  O   UNL     1       5.886  -6.274  21.563  0.00  0.00    -0.386 OA
ATOM     39  H   UNL     1       6.359  -7.103  21.753  0.00  0.00    +0.210 HD
ENDBRANCH  23  38
ENDBRANCH  21  22
ENDBRANCH   1  21
TORSDOF 18
ENDMDL
MODEL 7
REMARK VINA RESULT:      -6.6      1.956      2.839
REMARK  Name = 
REMARK  18 active torsions:
REMARK  status: ('A' for Active; 'I' for Inactive)
REMARK    1  A    between atoms: N_1  and  C_2
REMARK    2  A    between atoms: C_2  and  C_3
REMARK    3  A    between atoms: C_3  and  C_4
REMARK    4  A    between atoms: C_4  and  C_5
REMARK    5  A    between atoms: C_5  and  C_6
REMARK    6  A    between atoms: C_6  and  C_7
REMARK    7  A    between atoms: C_7  and  O_8
REMARK    8  A    between atoms: O_8  and  P_9
REMARK    9  A    between atoms: P_9  and  O_10
REMARK   10  A    between atoms: P_9  and  O_12
REMARK   11  A    between atoms: O_12  and  P_13
REMARK   12  A    between atoms: P_13  and  O_14
REMARK   13  A    between atoms: P_13  and  O_16
REMARK   14  A    between atoms: O_16  and  C_17
REMARK   15  A    between atoms: C_17  and  C_18
REMARK   16  A    between atoms: C_21  and  N_29
REMARK   17  A    between atoms: C_23  and  O_25
REMARK   18  A    between atoms: C_26  and  O_28
REMARK                            x       y       z     vdW  Elec       q    Type
REMARK                         _______ _______ _______ _____ _____    ______ ____
ROOT
ATOM      1  O   UNL     1       8.535  -0.778  26.230  0.00  0.00    -0.284 OA
ENDROOT
BRANCH   1   2
ATOM      2  P   UNL     1       8.001   0.225  24.926  0.00  0.00    +0.483 P 
ATOM      3  O   UNL     1       7.844   1.392  25.899  0.00  0.00    -0.227 OA
BRANCH   2   4
ATOM      4  O   UNL     1       9.513   0.403  24.339  0.00  0.00    -0.302 OA
ATOM      5  H   UNL     1       9.850  -0.489  24.114  0.00  0.00    +0.222 HD
ENDBRANCH   2   4
BRANCH   2   6
ATOM      6  O   UNL     1       7.467   1.229  23.622  0.00  0.00    -0.186 OA
BRANCH   6   7
ATOM      7  P   UNL     1       8.812   1.615  22.603  0.00  0.00    +0.483 P 
ATOM      8  O   UNL     1       7.915   1.669  21.371  0.00  0.00    -0.227 OA
BRANCH   7   9
ATOM      9  O   UNL     1      10.156   2.002  21.587  0.00  0.00    -0.302 OA
ATOM     10  H   UNL     1      10.498   2.879  21.838  0.00  0.00    +0.222 HD
ENDBRANCH   7   9
BRANCH   7  11
ATOM     11  O   UNL     1       8.960   3.095  23.308  0.00  0.00    -0.286 OA
BRANCH  11  12
ATOM     12  C   UNL     1       7.824   3.941  23.399  0.00  0.00    +0.172 C 
BRANCH  12  13
ATOM     13  C   UNL     1       8.154   5.236  24.158  0.00  0.00    +0.029 C 
BRANCH  13  14
ATOM     14  C   UNL     1       9.590   5.314  24.704  0.00  0.00    +0.002 C 
BRANCH  14  15
ATOM     15  C   UNL     1      10.480   6.210  23.821  0.00  0.00    +0.001 C 
BRANCH  15  16
ATOM     16  C   UNL     1      11.977   6.017  24.100  0.00  0.00    +0.015 C 
BRANCH  16  17
ATOM     17  C   UNL     1      12.728   5.562  22.843  0.00  0.00    +0.077 C 
BRANCH  17  18
ATOM     18  N   UNL     1      14.055   5.058  23.182  0.00  0.00    -0.330 NA
ATOM     19  H   UNL     1      14.219   4.171  22.710  0.00  0.00    +0.118 HD
ATOM     20  H   UNL     1      14.762   5.703  22.823  0.00  0.00    +0.118 HD
ENDBRANCH  17  18
ENDBRANCH  16  17
ENDBRANCH  15  16
ENDBRANCH  14  15
ENDBRANCH  13  14
ENDBRANCH  12  13
ENDBRANCH  11  12
ENDBRANCH   7  11
ENDBRANCH   6   7
ENDBRANCH   2   6
ENDBRANCH   1   2
BRANCH   1  21
ATOM     21  C   UNL     1       7.765  -1.978  26.409  0.00  0.00    +0.206 C 
BRANCH  21  22
ATOM     22  C   UNL     1       7.865  -2.939  25.222  0.00  0.00    +0.178 C 
ATOM     23  C   UNL     1       8.840  -4.085  25.521  0.00  0.00    +0.178 C 
ATOM     24  C   UNL     1       7.964  -5.242  26.017  0.00  0.00    +0.195 C 
ATOM     25  C   UNL     1       6.525  -4.702  25.896  0.00  0.00    +0.255 C 
ATOM     26  O   UNL     1       6.599  -3.588  24.991  0.00  0.00    -0.346 OA
BRANCH  25  27
ATOM     27  N   UNL     1       5.551  -5.692  25.441  0.00  0.00    -0.271 N 
ATOM     28  C   UNL     1       5.077  -6.590  26.391  0.00  0.00    +0.331 A 
ATOM     29  O   UNL     1       5.501  -6.642  27.546  0.00  0.00    -0.246 OA
ATOM     30  N   UNL     1       4.098  -7.446  25.964  0.00  0.00    -0.275 N 
ATOM     31  H   UNL     1       3.740  -8.107  26.640  0.00  0.00    +0.173 HD
ATOM     32  C   UNL     1       3.549  -7.491  24.720  0.00  0.00    +0.254 A 
ATOM     33  O   UNL     1       2.677  -8.283  24.396  0.00  0.00    -0.268 OA
ATOM     34  C   UNL     1       4.086  -6.507  23.757  0.00  0.00    +0.088 A 
ATOM     35  C   UNL     1       5.041  -5.666  24.159  0.00  0.00    +0.098 A 
ENDBRANCH  25  27
BRANCH  24  36
ATOM     36  O   UNL     1       8.287  -5.577  27.370  0.00  0.00    -0.385 OA
ATOM     37  H   UNL     1       9.126  -5.107  27.580  0.00  0.00    +0.210 HD
ENDBRANCH  24  36
BRANCH  23  38
ATOM     38  O   UNL     1       9.515  -4.468  24.313  0.00  0.00    -0.386 OA
ATOM     39  H   UNL     1       8.867  -4.896  23.727  0.00  0.00    +0.210 HD
ENDBRANCH  23  38
ENDBRANCH  21  22
ENDBRANCH   1  21
TORSDOF 18
ENDMDL
MODEL 8
REMARK VINA RESULT:      -6.4      3.078      4.140
REMARK  Name = 
REMARK  18 active torsions:
REMARK  status: ('A' for Active; 'I' for Inactive)
REMARK    1  A    between atoms: N_1  and  C_2
REMARK    2  A    between atoms: C_2  and  C_3
REMARK    3  A    between atoms: C_3  and  C_4
REMARK    4  A    between atoms: C_4  and  C_5
REMARK    5  A    between atoms: C_5  and  C_6
REMARK    6  A    between atoms: C_6  and  C_7
REMARK    7  A    between atoms: C_7  and  O_8
REMARK    8  A    between atoms: O_8  and  P_9
REMARK    9  A    between atoms: P_9  and  O_10
REMARK   10  A    between atoms: P_9  and  O_12
REMARK   11  A    between atoms: O_12  and  P_13
REMARK   12  A    between atoms: P_13  and  O_14
REMARK   13  A    between atoms: P_13  and  O_16
REMARK   14  A    between atoms: O_16  and  C_17
REMARK   15  A    between atoms: C_17  and  C_18
REMARK   16  A    between atoms: C_21  and  N_29
REMARK   17  A    between atoms: C_23  and  O_25
REMARK   18  A    between atoms: C_26  and  O_28
REMARK                            x       y       z     vdW  Elec       q    Type
REMARK                         _______ _______ _______ _____ _____    ______ ____
ROOT
ATOM      1  O   UNL     1      10.357  -0.271  22.007  0.00  0.00    -0.284 OA
ENDROOT
BRANCH   1   2
ATOM      2  P   UNL     1       9.700   1.112  22.811  0.00  0.00    +0.483 P 
ATOM      3  O   UNL     1      10.962   1.203  23.668  0.00  0.00    -0.227 OA
BRANCH   2   4
ATOM      4  O   UNL     1      10.010   2.094  21.546  0.00  0.00    -0.302 OA
ATOM      5  H   UNL     1      10.789   1.731  21.074  0.00  0.00    +0.222 HD
ENDBRANCH   2   4
BRANCH   2   6
ATOM      6  O   UNL     1       9.043   2.496  23.616  0.00  0.00    -0.186 OA
BRANCH   6   7
ATOM      7  P   UNL     1       7.768   3.168  22.658  0.00  0.00    +0.483 P 
ATOM      8  O   UNL     1       7.113   1.801  22.497  0.00  0.00    -0.227 OA
BRANCH   7   9
ATOM      9  O   UNL     1       6.494   3.841  21.702  0.00  0.00    -0.302 OA
ATOM     10  H   UNL     1       6.034   4.522  22.226  0.00  0.00    +0.222 HD
ENDBRANCH   7   9
BRANCH   7  11
ATOM     11  O   UNL     1       7.171   3.974  23.963  0.00  0.00    -0.286 OA
BRANCH  11  12
ATOM     12  C   UNL     1       5.775   4.214  24.056  0.00  0.00    +0.172 C 
BRANCH  12  13
ATOM     13  C   UNL     1       5.206   3.683  25.381  0.00  0.00    +0.029 C 
BRANCH  13  14
ATOM     14  C   UNL     1       5.021   2.157  25.437  0.00  0.00    +0.002 C 
BRANCH  14  15
ATOM     15  C   UNL     1       5.878   1.528  26.552  0.00  0.00    +0.001 C 
BRANCH  15  16
ATOM     16  C   UNL     1       7.016   0.654  26.003  0.00  0.00    +0.015 C 
BRANCH  16  17
ATOM     17  C   UNL     1       7.621  -0.231  27.100  0.00  0.00    +0.077 C 
BRANCH  17  18
ATOM     18  N   UNL     1       9.053  -0.414  26.889  0.00  0.00    -0.330 NA
ATOM     19  H   UNL     1       9.568   0.344  27.335  0.00  0.00    +0.118 HD
ATOM     20  H   UNL     1       9.355  -1.272  27.355  0.00  0.00    +0.118 HD
ENDBRANCH  17  18
ENDBRANCH  16  17
ENDBRANCH  15  16
ENDBRANCH  14  15
ENDBRANCH  13  14
ENDBRANCH  12  13
ENDBRANCH  11  12
ENDBRANCH   7  11
ENDBRANCH   6   7
ENDBRANCH   2   6
ENDBRANCH   1   2
BRANCH   1  21
ATOM     21  C   UNL     1       9.687  -1.507  22.308  0.00  0.00    +0.206 C 
BRANCH  21  22
ATOM     22  C   UNL     1       8.479  -1.325  23.230  0.00  0.00    +0.178 C 
ATOM     23  C   UNL     1       7.187  -1.785  22.541  0.00  0.00    +0.178 C 
ATOM     24  C   UNL     1       6.970  -3.229  23.013  0.00  0.00    +0.195 C 
ATOM     25  C   UNL     1       8.121  -3.476  24.008  0.00  0.00    +0.255 C 
ATOM     26  O   UNL     1       8.597  -2.174  24.388  0.00  0.00    -0.346 OA
BRANCH  25  27
ATOM     27  N   UNL     1       7.741  -4.265  25.178  0.00  0.00    -0.271 N 
ATOM     28  C   UNL     1       8.702  -5.128  25.692  0.00  0.00    +0.331 A 
ATOM     29  O   UNL     1       9.798  -5.317  25.162  0.00  0.00    -0.246 OA
ATOM     30  N   UNL     1       8.356  -5.788  26.841  0.00  0.00    -0.275 N 
ATOM     31  H   UNL     1       9.041  -6.420  27.231  0.00  0.00    +0.173 HD
ATOM     32  C   UNL     1       7.183  -5.669  27.520  0.00  0.00    +0.254 A 
ATOM     33  O   UNL     1       6.930  -6.288  28.541  0.00  0.00    -0.268 OA
ATOM     34  C   UNL     1       6.205  -4.730  26.930  0.00  0.00    +0.088 A 
ATOM     35  C   UNL     1       6.528  -4.081  25.810  0.00  0.00    +0.098 A 
ENDBRANCH  25  27
BRANCH  24  36
ATOM     36  O   UNL     1       7.028  -4.136  21.908  0.00  0.00    -0.385 OA
ATOM     37  H   UNL     1       6.272  -4.756  22.018  0.00  0.00    +0.210 HD
ENDBRANCH  24  36
BRANCH  23  38
ATOM     38  O   UNL     1       6.094  -0.962  22.974  0.00  0.00    -0.386 OA
ATOM     39  H   UNL     1       5.336  -1.129  22.386  0.00  0.00    +0.210 HD
ENDBRANCH  23  38
ENDBRANCH  21  22
ENDBRANCH   1  21
TORSDOF 18
ENDMDL
MODEL 9
REMARK VINA RESULT:      -6.4      3.076      9.199
REMARK  Name = 
REMARK  18 active torsions:
REMARK  status: ('A' for Active; 'I' for Inactive)
REMARK    1  A    between atoms: N_1  and  C_2
REMARK    2  A    between atoms: C_2  and  C_3
REMARK    3  A    between atoms: C_3  and  C_4
REMARK    4  A    between atoms: C_4  and  C_5
REMARK    5  A    between atoms: C_5  and  C_6
REMARK    6  A    between atoms: C_6  and  C_7
REMARK    7  A    between atoms: C_7  and  O_8
REMARK    8  A    between atoms: O_8  and  P_9
REMARK    9  A    between atoms: P_9  and  O_10
REMARK   10  A    between atoms: P_9  and  O_12
REMARK   11  A    between atoms: O_12  and  P_13
REMARK   12  A    between atoms: P_13  and  O_14
REMARK   13  A    between atoms: P_13  and  O_16
REMARK   14  A    between atoms: O_16  and  C_17
REMARK   15  A    between atoms: C_17  and  C_18
REMARK   16  A    between atoms: C_21  and  N_29
REMARK   17  A    between atoms: C_23  and  O_25
REMARK   18  A    between atoms: C_26  and  O_28
REMARK                            x       y       z     vdW  Elec       q    Type
REMARK                         _______ _______ _______ _____ _____    ______ ____
ROOT
ATOM      1  O   UNL     1      10.015  -3.821  24.492  0.00  0.00    -0.284 OA
ENDROOT
BRANCH   1   2
ATOM      2  P   UNL     1       8.750  -4.870  25.032  0.00  0.00    +0.483 P 
ATOM      3  O   UNL     1       8.519  -5.319  23.590  0.00  0.00    -0.227 OA
BRANCH   2   4
ATOM      4  O   UNL     1       9.804  -5.966  25.621  0.00  0.00    -0.302 OA
ATOM      5  H   UNL     1       9.470  -6.857  25.384  0.00  0.00    +0.222 HD
ENDBRANCH   2   4
BRANCH   2   6
ATOM      6  O   UNL     1       7.486  -5.920  25.572  0.00  0.00    -0.186 OA
BRANCH   6   7
ATOM      7  P   UNL     1       6.855  -5.338  27.074  0.00  0.00    +0.483 P 
ATOM      8  O   UNL     1       7.833  -4.169  27.078  0.00  0.00    -0.227 OA
BRANCH   7   9
ATOM      9  O   UNL     1       6.223  -4.757  28.575  0.00  0.00    -0.302 OA
ATOM     10  H   UNL     1       6.638  -3.900  28.780  0.00  0.00    +0.222 HD
ENDBRANCH   7   9
BRANCH   7  11
ATOM     11  O   UNL     1       5.431  -4.933  26.354  0.00  0.00    -0.286 OA
BRANCH  11  12
ATOM     12  C   UNL     1       5.129  -3.564  26.130  0.00  0.00    +0.172 C 
BRANCH  12  13
ATOM     13  C   UNL     1       5.061  -3.249  24.627  0.00  0.00    +0.029 C 
BRANCH  13  14
ATOM     14  C   UNL     1       4.943  -4.482  23.715  0.00  0.00    +0.002 C 
BRANCH  14  15
ATOM     15  C   UNL     1       3.471  -4.888  23.507  0.00  0.00    +0.001 C 
BRANCH  15  16
ATOM     16  C   UNL     1       3.242  -6.396  23.686  0.00  0.00    +0.015 C 
BRANCH  16  17
ATOM     17  C   UNL     1       2.736  -6.723  25.096  0.00  0.00    +0.077 C 
BRANCH  17  18
ATOM     18  N   UNL     1       3.731  -7.484  25.843  0.00  0.00    -0.330 NA
ATOM     19  H   UNL     1       3.791  -7.131  26.797  0.00  0.00    +0.118 HD
ATOM     20  H   UNL     1       3.423  -8.455  25.921  0.00  0.00    +0.118 HD
ENDBRANCH  17  18
ENDBRANCH  16  17
ENDBRANCH  15  16
ENDBRANCH  14  15
ENDBRANCH  13  14
ENDBRANCH  12  13
ENDBRANCH  11  12
ENDBRANCH   7  11
ENDBRANCH   6   7
ENDBRANCH   2   6
ENDBRANCH   1   2
BRANCH   1  21
ATOM     21  C   UNL     1       9.564  -2.702  23.710  0.00  0.00    +0.206 C 
BRANCH  21  22
ATOM     22  C   UNL     1       8.458  -1.896  24.396  0.00  0.00    +0.178 C 
ATOM     23  C   UNL     1       8.985  -1.200  25.657  0.00  0.00    +0.178 C 
ATOM     24  C   UNL     1       9.351   0.221  25.211  0.00  0.00    +0.195 C 
ATOM     25  C   UNL     1       8.934   0.268  23.728  0.00  0.00    +0.255 C 
ATOM     26  O   UNL     1       8.015  -0.822  23.543  0.00  0.00    -0.346 OA
BRANCH  25  27
ATOM     27  N   UNL     1       8.341   1.538  23.312  0.00  0.00    -0.271 N 
ATOM     28  C   UNL     1       9.218   2.580  23.034  0.00  0.00    +0.331 A 
ATOM     29  O   UNL     1      10.436   2.506  23.206  0.00  0.00    -0.246 OA
ATOM     30  N   UNL     1       8.646   3.729  22.558  0.00  0.00    -0.275 N 
ATOM     31  H   UNL     1       9.267   4.498  22.349  0.00  0.00    +0.173 HD
ATOM     32  C   UNL     1       7.322   3.937  22.327  0.00  0.00    +0.254 A 
ATOM     33  O   UNL     1       6.868   4.989  21.903  0.00  0.00    -0.268 OA
ATOM     34  C   UNL     1       6.439   2.791  22.633  0.00  0.00    +0.088 A 
ATOM     35  C   UNL     1       6.983   1.664  23.098  0.00  0.00    +0.098 A 
ENDBRANCH  25  27
BRANCH  24  36
ATOM     36  O   UNL     1      10.753   0.456  25.370  0.00  0.00    -0.385 OA
ATOM     37  H   UNL     1      10.900   1.408  25.165  0.00  0.00    +0.210 HD
ENDBRANCH  24  36
BRANCH  23  38
ATOM     38  O   UNL     1       7.946  -1.148  26.646  0.00  0.00    -0.386 OA
ATOM     39  H   UNL     1       7.357  -1.910  26.508  0.00  0.00    +0.210 HD
ENDBRANCH  23  38
ENDBRANCH  21  22
ENDBRANCH   1  21
TORSDOF 18
ENDMDL
