MODEL 1
REMARK VINA RESULT:      -6.7      0.000      0.000
REMARK  Name = 
REMARK  3 active torsions:
REMARK  status: ('A' for Active; 'I' for Inactive)
REMARK    1  A    between atoms: C_4  and  O_5
REMARK    2  A    between atoms: O_5  and  C_6
REMARK    3  A    between atoms: C_6  and  C_7
REMARK                            x       y       z     vdW  Elec       q    Type
REMARK                         _______ _______ _______ _____ _____    ______ ____
ROOT
ATOM      1  N   UNL     1       9.854  -5.602  25.780  0.00  0.00    -0.343 N 
ATOM      2  H   UNL     1       9.818  -6.570  25.483  0.00  0.00    +0.144 HD
ATOM      3  H   UNL     1      10.806  -5.251  25.816  0.00  0.00    +0.144 HD
ATOM      4  C   UNL     1       9.144  -4.769  24.917  0.00  0.00    +0.122 A 
ATOM      5  C   UNL     1       7.804  -5.048  24.657  0.00  0.00    +0.071 A 
ATOM      6  C   UNL     1       7.160  -4.133  23.831  0.00  0.00    +0.075 A 
ATOM      7  C   UNL     1       7.803  -3.021  23.301  0.00  0.00    +0.150 A 
ATOM      8  N   UNL     1       6.923  -2.281  22.531  0.00  0.00    -0.231 NA
ATOM      9  C   UNL     1       5.779  -2.919  22.596  0.00  0.00    +0.197 A 
ATOM     10  C   UNL     1       9.163  -2.828  23.602  0.00  0.00    +0.245 A 
ATOM     11  N   UNL     1       5.872  -4.047  23.362  0.00  0.00    -0.344 N 
ATOM     12  H   UNL     1       5.120  -4.693  23.554  0.00  0.00    +0.167 HD
ATOM     13  N   UNL     1       9.813  -3.711  24.418  0.00  0.00    -0.196 NA
ENDROOT
BRANCH  10  14
ATOM     14  O   UNL     1       9.827  -1.730  23.090  0.00  0.00    -0.475 OA
BRANCH  14  15
ATOM     15  C   UNL     1       9.827  -0.596  23.957  0.00  0.00    +0.234 C 
BRANCH  15  16
ATOM     16  C   UNL     1      10.433   0.605  23.201  0.00  0.00    +0.027 C 
ATOM     17  C   UNL     1      10.380   1.925  23.996  0.00  0.00    +0.007 C 
ATOM     18  C   UNL     1       9.020   2.626  23.979  0.00  0.00    +0.000 C 
ATOM     19  C   UNL     1       8.423   2.728  22.579  0.00  0.00    +0.000 C 
ATOM     20  C   UNL     1       8.391   1.372  21.888  0.00  0.00    +0.000 C 
ATOM     21  C   UNL     1       9.792   0.773  21.816  0.00  0.00    +0.007 C 
ENDBRANCH  15  16
ENDBRANCH  14  15
ENDBRANCH  10  14
TORSDOF 3
ENDMDL
MODEL 2
REMARK VINA RESULT:      -6.3      1.363      3.143
REMARK  Name = 
REMARK  3 active torsions:
REMARK  status: ('A' for Active; 'I' for Inactive)
REMARK    1  A    between atoms: C_4  and  O_5
REMARK    2  A    between atoms: O_5  and  C_6
REMARK    3  A    between atoms: C_6  and  C_7
REMARK                            x       y       z     vdW  Elec       q    Type
REMARK                         _______ _______ _______ _____ _____    ______ ____
ROOT
ATOM      1  N   UNL     1       4.093  -4.674  24.723  0.00  0.00    -0.343 N 
ATOM      2  H   UNL     1       3.718  -4.394  25.622  0.00  0.00    +0.144 HD
ATOM      3  H   UNL     1       3.735  -4.097  23.968  0.00  0.00    +0.144 HD
ATOM      4  C   UNL     1       5.483  -4.575  24.689  0.00  0.00    +0.122 A 
ATOM      5  C   UNL     1       6.232  -5.250  25.650  0.00  0.00    +0.071 A 
ATOM      6  C   UNL     1       7.611  -5.143  25.505  0.00  0.00    +0.075 A 
ATOM      7  C   UNL     1       8.203  -4.417  24.478  0.00  0.00    +0.150 A 
ATOM      8  N   UNL     1       9.580  -4.494  24.569  0.00  0.00    -0.231 NA
ATOM      9  C   UNL     1       9.821  -5.249  25.614  0.00  0.00    +0.197 A 
ATOM     10  C   UNL     1       7.367  -3.752  23.562  0.00  0.00    +0.245 A 
ATOM     11  N   UNL     1       8.666  -5.659  26.217  0.00  0.00    -0.344 N 
ATOM     12  H   UNL     1       8.605  -6.247  27.037  0.00  0.00    +0.167 HD
ATOM     13  N   UNL     1       6.009  -3.851  23.682  0.00  0.00    -0.196 NA
ENDROOT
BRANCH  10  14
ATOM     14  O   UNL     1       7.927  -3.024  22.531  0.00  0.00    -0.475 OA
BRANCH  14  15
ATOM     15  C   UNL     1       8.085  -1.635  22.822  0.00  0.00    +0.234 C 
BRANCH  15  16
ATOM     16  C   UNL     1       9.579  -1.269  22.694  0.00  0.00    +0.027 C 
ATOM     17  C   UNL     1      10.194  -0.727  24.000  0.00  0.00    +0.007 C 
ATOM     18  C   UNL     1       9.881   0.742  24.291  0.00  0.00    +0.000 C 
ATOM     19  C   UNL     1      10.105   1.647  23.084  0.00  0.00    +0.000 C 
ATOM     20  C   UNL     1       9.374   1.126  21.854  0.00  0.00    +0.000 C 
ATOM     21  C   UNL     1       9.818  -0.298  21.530  0.00  0.00    +0.007 C 
ENDBRANCH  15  16
ENDBRANCH  14  15
ENDBRANCH  10  14
TORSDOF 3
ENDMDL
MODEL 3
REMARK VINA RESULT:      -6.3      1.483      3.122
REMARK  Name = 
REMARK  3 active torsions:
REMARK  status: ('A' for Active; 'I' for Inactive)
REMARK    1  A    between atoms: C_4  and  O_5
REMARK    2  A    between atoms: O_5  and  C_6
REMARK    3  A    between atoms: C_6  and  C_7
REMARK                            x       y       z     vdW  Elec       q    Type
REMARK                         _______ _______ _______ _____ _____    ______ ____
ROOT
ATOM      1  N   UNL     1       6.109  -4.387  21.472  0.00  0.00    -0.343 N 
ATOM      2  H   UNL     1       5.132  -4.138  21.559  0.00  0.00    +0.144 HD
ATOM      3  H   UNL     1       6.610  -3.749  20.859  0.00  0.00    +0.144 HD
ATOM      4  C   UNL     1       6.761  -4.365  22.704  0.00  0.00    +0.122 A 
ATOM      5  C   UNL     1       6.255  -5.134  23.750  0.00  0.00    +0.071 A 
ATOM      6  C   UNL     1       7.000  -5.097  24.923  0.00  0.00    +0.075 A 
ATOM      7  C   UNL     1       8.165  -4.349  25.048  0.00  0.00    +0.150 A 
ATOM      8  N   UNL     1       8.703  -4.508  26.312  0.00  0.00    -0.231 NA
ATOM      9  C   UNL     1       7.897  -5.333  26.935  0.00  0.00    +0.197 A 
ATOM     10  C   UNL     1       8.592  -3.588  23.944  0.00  0.00    +0.245 A 
ATOM     11  N   UNL     1       6.849  -5.711  26.143  0.00  0.00    -0.344 N 
ATOM     12  H   UNL     1       6.104  -6.339  26.409  0.00  0.00    +0.167 HD
ATOM     13  N   UNL     1       7.878  -3.617  22.779  0.00  0.00    -0.196 NA
ENDROOT
BRANCH  10  14
ATOM     14  O   UNL     1       9.747  -2.836  24.040  0.00  0.00    -0.475 OA
BRANCH  14  15
ATOM     15  C   UNL     1       9.837  -1.788  23.074  0.00  0.00    +0.234 C 
BRANCH  15  16
ATOM     16  C   UNL     1       9.036  -0.573  23.587  0.00  0.00    +0.027 C 
ATOM     17  C   UNL     1       8.816   0.516  22.518  0.00  0.00    +0.007 C 
ATOM     18  C   UNL     1      10.019   1.433  22.285  0.00  0.00    +0.000 C 
ATOM     19  C   UNL     1      10.625   1.959  23.582  0.00  0.00    +0.000 C 
ATOM     20  C   UNL     1      10.932   0.826  24.552  0.00  0.00    +0.000 C 
ATOM     21  C   UNL     1       9.671   0.020  24.852  0.00  0.00    +0.007 C 
ENDBRANCH  15  16
ENDBRANCH  14  15
ENDBRANCH  10  14
TORSDOF 3
ENDMDL
MODEL 4
REMARK VINA RESULT:      -6.3      2.422      6.050
REMARK  Name = 
REMARK  3 active torsions:
REMARK  status: ('A' for Active; 'I' for Inactive)
REMARK    1  A    between atoms: C_4  and  O_5
REMARK    2  A    between atoms: O_5  and  C_6
REMARK    3  A    between atoms: C_6  and  C_7
REMARK                            x       y       z     vdW  Elec       q    Type
REMARK                         _______ _______ _______ _____ _____    ______ ____
ROOT
ATOM      1  N   UNL     1       9.828   1.989  21.494  0.00  0.00    -0.343 N 
ATOM      2  H   UNL     1      10.654   2.542  21.689  0.00  0.00    +0.144 HD
ATOM      3  H   UNL     1       9.897   1.505  20.603  0.00  0.00    +0.144 HD
ATOM      4  C   UNL     1       9.614   1.017  22.470  0.00  0.00    +0.122 A 
ATOM      5  C   UNL     1       9.515   1.408  23.803  0.00  0.00    +0.071 A 
ATOM      6  C   UNL     1       9.244   0.381  24.701  0.00  0.00    +0.075 A 
ATOM      7  C   UNL     1       9.083  -0.940  24.302  0.00  0.00    +0.150 A 
ATOM      8  N   UNL     1       8.809  -1.741  25.395  0.00  0.00    -0.231 NA
ATOM      9  C   UNL     1       8.797  -0.933  26.428  0.00  0.00    +0.197 A 
ATOM     10  C   UNL     1       9.217  -1.247  22.935  0.00  0.00    +0.245 A 
ATOM     11  N   UNL     1       9.061   0.357  26.062  0.00  0.00    -0.344 N 
ATOM     12  H   UNL     1       9.104   1.151  26.686  0.00  0.00    +0.167 HD
ATOM     13  N   UNL     1       9.476  -0.251  22.036  0.00  0.00    -0.196 NA
ENDROOT
BRANCH  10  14
ATOM     14  O   UNL     1       9.061  -2.551  22.510  0.00  0.00    -0.475 OA
BRANCH  14  15
ATOM     15  C   UNL     1       7.699  -2.962  22.389  0.00  0.00    +0.234 C 
BRANCH  15  16
ATOM     16  C   UNL     1       7.508  -4.278  23.174  0.00  0.00    +0.027 C 
ATOM     17  C   UNL     1       7.393  -5.523  22.272  0.00  0.00    +0.007 C 
ATOM     18  C   UNL     1       6.016  -5.726  21.637  0.00  0.00    +0.000 C 
ATOM     19  C   UNL     1       4.874  -5.586  22.639  0.00  0.00    +0.000 C 
ATOM     20  C   UNL     1       4.974  -4.280  23.417  0.00  0.00    +0.000 C 
ATOM     21  C   UNL     1       6.316  -4.185  24.136  0.00  0.00    +0.007 C 
ENDBRANCH  15  16
ENDBRANCH  14  15
ENDBRANCH  10  14
TORSDOF 3
ENDMDL
MODEL 5
REMARK VINA RESULT:      -6.2      1.925      2.328
REMARK  Name = 
REMARK  3 active torsions:
REMARK  status: ('A' for Active; 'I' for Inactive)
REMARK    1  A    between atoms: C_4  and  O_5
REMARK    2  A    between atoms: O_5  and  C_6
REMARK    3  A    between atoms: C_6  and  C_7
REMARK                            x       y       z     vdW  Elec       q    Type
REMARK                         _______ _______ _______ _____ _____    ______ ____
ROOT
ATOM      1  N   UNL     1       6.283  -4.652  27.170  0.00  0.00    -0.343 N 
ATOM      2  H   UNL     1       6.371  -5.550  27.629  0.00  0.00    +0.144 HD
ATOM      3  H   UNL     1       6.949  -3.975  27.531  0.00  0.00    +0.144 HD
ATOM      4  C   UNL     1       6.505  -4.750  25.797  0.00  0.00    +0.122 A 
ATOM      5  C   UNL     1       5.743  -5.645  25.050  0.00  0.00    +0.071 A 
ATOM      6  C   UNL     1       5.991  -5.635  23.682  0.00  0.00    +0.075 A 
ATOM      7  C   UNL     1       6.932  -4.794  23.098  0.00  0.00    +0.150 A 
ATOM      8  N   UNL     1       6.959  -4.985  21.729  0.00  0.00    -0.231 NA
ATOM      9  C   UNL     1       6.059  -5.907  21.485  0.00  0.00    +0.197 A 
ATOM     10  C   UNL     1       7.669  -3.934  23.932  0.00  0.00    +0.245 A 
ATOM     11  N   UNL     1       5.453  -6.337  22.632  0.00  0.00    -0.344 N 
ATOM     12  H   UNL     1       4.731  -7.041  22.689  0.00  0.00    +0.167 HD
ATOM     13  N   UNL     1       7.435  -3.924  25.279  0.00  0.00    -0.196 NA
ENDROOT
BRANCH  10  14
ATOM     14  O   UNL     1       8.609  -3.087  23.379  0.00  0.00    -0.475 OA
BRANCH  14  15
ATOM     15  C   UNL     1       8.741  -1.842  24.064  0.00  0.00    +0.234 C 
BRANCH  15  16
ATOM     16  C   UNL     1      10.119  -1.233  23.723  0.00  0.00    +0.027 C 
ATOM     17  C   UNL     1      10.359   0.146  24.369  0.00  0.00    +0.007 C 
ATOM     18  C   UNL     1       9.688   1.315  23.645  0.00  0.00    +0.000 C 
ATOM     19  C   UNL     1       9.921   1.293  22.138  0.00  0.00    +0.000 C 
ATOM     20  C   UNL     1       9.552  -0.057  21.538  0.00  0.00    +0.000 C 
ATOM     21  C   UNL     1      10.344  -1.177  22.206  0.00  0.00    +0.007 C 
ENDBRANCH  15  16
ENDBRANCH  14  15
ENDBRANCH  10  14
TORSDOF 3
ENDMDL
MODEL 6
REMARK VINA RESULT:      -6.1      2.229      5.470
REMARK  Name = 
REMARK  3 active torsions:
REMARK  status: ('A' for Active; 'I' for Inactive)
REMARK    1  A    between atoms: C_4  and  O_5
REMARK    2  A    between atoms: O_5  and  C_6
REMARK    3  A    between atoms: C_6  and  C_7
REMARK                            x       y       z     vdW  Elec       q    Type
REMARK                         _______ _______ _______ _____ _____    ______ ____
ROOT
ATOM      1  N   UNL     1       8.779  -0.380  27.302  0.00  0.00    -0.343 N 
ATOM      2  H   UNL     1       7.982   0.219  27.479  0.00  0.00    +0.144 HD
ATOM      3  H   UNL     1       8.683  -1.283  27.756  0.00  0.00    +0.144 HD
ATOM      4  C   UNL     1       8.951  -0.624  25.940  0.00  0.00    +0.122 A 
ATOM      5  C   UNL     1       9.075   0.457  25.070  0.00  0.00    +0.071 A 
ATOM      6  C   UNL     1       9.300   0.121  23.739  0.00  0.00    +0.075 A 
ATOM      7  C   UNL     1       9.395  -1.196  23.305  0.00  0.00    +0.150 A 
ATOM      8  N   UNL     1       9.634  -1.236  21.944  0.00  0.00    -0.231 NA
ATOM      9  C   UNL     1       9.691   0.018  21.561  0.00  0.00    +0.197 A 
ATOM     10  C   UNL     1       9.239  -2.225  24.252  0.00  0.00    +0.245 A 
ATOM     11  N   UNL     1       9.487   0.874  22.606  0.00  0.00    -0.344 N 
ATOM     12  H   UNL     1       9.487   1.883  22.551  0.00  0.00    +0.167 HD
ATOM     13  N   UNL     1       9.025  -1.916  25.566  0.00  0.00    -0.196 NA
ENDROOT
BRANCH  10  14
ATOM     14  O   UNL     1       9.329  -3.543  23.849  0.00  0.00    -0.475 OA
BRANCH  14  15
ATOM     15  C   UNL     1       8.108  -4.272  23.975  0.00  0.00    +0.234 C 
BRANCH  15  16
ATOM     16  C   UNL     1       7.364  -4.228  22.624  0.00  0.00    +0.027 C 
ATOM     17  C   UNL     1       6.167  -3.257  22.612  0.00  0.00    +0.007 C 
ATOM     18  C   UNL     1       4.897  -3.800  23.270  0.00  0.00    +0.000 C 
ATOM     19  C   UNL     1       4.547  -5.212  22.809  0.00  0.00    +0.000 C 
ATOM     20  C   UNL     1       5.734  -6.155  22.958  0.00  0.00    +0.000 C 
ATOM     21  C   UNL     1       6.936  -5.633  22.176  0.00  0.00    +0.007 C 
ENDBRANCH  15  16
ENDBRANCH  14  15
ENDBRANCH  10  14
TORSDOF 3
ENDMDL
MODEL 7
REMARK VINA RESULT:      -6.0      1.956      2.718
REMARK  Name = 
REMARK  3 active torsions:
REMARK  status: ('A' for Active; 'I' for Inactive)
REMARK    1  A    between atoms: C_4  and  O_5
REMARK    2  A    between atoms: O_5  and  C_6
REMARK    3  A    between atoms: C_6  and  C_7
REMARK                            x       y       z     vdW  Elec       q    Type
REMARK                         _______ _______ _______ _____ _____    ______ ____
ROOT
ATOM      1  N   UNL     1       9.060  -0.464  27.372  0.00  0.00    -0.343 N 
ATOM      2  H   UNL     1       9.797  -0.865  27.938  0.00  0.00    +0.144 HD
ATOM      3  H   UNL     1       9.290   0.475  27.060  0.00  0.00    +0.144 HD
ATOM      4  C   UNL     1       8.812  -1.224  26.230  0.00  0.00    +0.122 A 
ATOM      5  C   UNL     1       8.502  -2.575  26.372  0.00  0.00    +0.071 A 
ATOM      6  C   UNL     1       8.213  -3.241  25.186  0.00  0.00    +0.075 A 
ATOM      7  C   UNL     1       8.231  -2.610  23.948  0.00  0.00    +0.150 A 
ATOM      8  N   UNL     1       7.893  -3.504  22.949  0.00  0.00    -0.231 NA
ATOM      9  C   UNL     1       7.668  -4.643  23.559  0.00  0.00    +0.197 A 
ATOM     10  C   UNL     1       8.572  -1.246  23.898  0.00  0.00    +0.245 A 
ATOM     11  N   UNL     1       7.856  -4.538  24.909  0.00  0.00    -0.344 N 
ATOM     12  H   UNL     1       7.741  -5.284  25.580  0.00  0.00    +0.167 HD
ATOM     13  N   UNL     1       8.852  -0.571  25.053  0.00  0.00    -0.196 NA
ENDROOT
BRANCH  10  14
ATOM     14  O   UNL     1       8.597  -0.592  22.682  0.00  0.00    -0.475 OA
BRANCH  14  15
ATOM     15  C   UNL     1       7.731   0.541  22.615  0.00  0.00    +0.234 C 
BRANCH  15  16
ATOM     16  C   UNL     1       8.461   1.678  21.870  0.00  0.00    +0.027 C 
ATOM     17  C   UNL     1       9.986   1.684  22.097  0.00  0.00    +0.007 C 
ATOM     18  C   UNL     1      10.431   2.297  23.426  0.00  0.00    +0.000 C 
ATOM     19  C   UNL     1       9.762   3.637  23.716  0.00  0.00    +0.000 C 
ATOM     20  C   UNL     1       8.247   3.540  23.594  0.00  0.00    +0.000 C 
ATOM     21  C   UNL     1       7.851   3.047  22.205  0.00  0.00    +0.007 C 
ENDBRANCH  15  16
ENDBRANCH  14  15
ENDBRANCH  10  14
TORSDOF 3
ENDMDL
MODEL 8
REMARK VINA RESULT:      -6.0      4.692      7.535
REMARK  Name = 
REMARK  3 active torsions:
REMARK  status: ('A' for Active; 'I' for Inactive)
REMARK    1  A    between atoms: C_4  and  O_5
REMARK    2  A    between atoms: O_5  and  C_6
REMARK    3  A    between atoms: C_6  and  C_7
REMARK                            x       y       z     vdW  Elec       q    Type
REMARK                         _______ _______ _______ _____ _____    ______ ____
ROOT
ATOM      1  N   UNL     1      13.679   5.038  23.140  0.00  0.00    -0.343 N 
ATOM      2  H   UNL     1      14.189   5.502  23.881  0.00  0.00    +0.144 HD
ATOM      3  H   UNL     1      14.007   4.088  22.992  0.00  0.00    +0.144 HD
ATOM      4  C   UNL     1      12.315   4.960  23.419  0.00  0.00    +0.122 A 
ATOM      5  C   UNL     1      11.615   6.131  23.700  0.00  0.00    +0.071 A 
ATOM      6  C   UNL     1      10.250   5.966  23.909  0.00  0.00    +0.075 A 
ATOM      7  C   UNL     1       9.626   4.726  23.846  0.00  0.00    +0.150 A 
ATOM      8  N   UNL     1       8.270   4.858  24.080  0.00  0.00    -0.231 NA
ATOM      9  C   UNL     1       8.072   6.140  24.274  0.00  0.00    +0.197 A 
ATOM     10  C   UNL     1      10.416   3.594  23.574  0.00  0.00    +0.245 A 
ATOM     11  N   UNL     1       9.236   6.850  24.189  0.00  0.00    -0.344 N 
ATOM     12  H   UNL     1       9.328   7.850  24.302  0.00  0.00    +0.167 HD
ATOM     13  N   UNL     1      11.758   3.735  23.357  0.00  0.00    -0.196 NA
ENDROOT
BRANCH  10  14
ATOM     14  O   UNL     1       9.823   2.348  23.503  0.00  0.00    -0.475 OA
BRANCH  14  15
ATOM     15  C   UNL     1       9.988   1.698  22.243  0.00  0.00    +0.234 C 
BRANCH  15  16
ATOM     16  C   UNL     1       8.894   0.620  22.095  0.00  0.00    +0.027 C 
ATOM     17  C   UNL     1       8.183   0.278  23.419  0.00  0.00    +0.007 C 
ATOM     18  C   UNL     1       8.962  -0.669  24.335  0.00  0.00    +0.000 C 
ATOM     19  C   UNL     1       9.511  -1.887  23.600  0.00  0.00    +0.000 C 
ATOM     20  C   UNL     1      10.306  -1.481  22.366  0.00  0.00    +0.000 C 
ATOM     21  C   UNL     1       9.444  -0.646  21.423  0.00  0.00    +0.007 C 
ENDBRANCH  15  16
ENDBRANCH  14  15
ENDBRANCH  10  14
TORSDOF 3
ENDMDL
MODEL 9
REMARK VINA RESULT:      -5.9      2.663      6.047
REMARK  Name = 
REMARK  3 active torsions:
REMARK  status: ('A' for Active; 'I' for Inactive)
REMARK    1  A    between atoms: C_4  and  O_5
REMARK    2  A    between atoms: O_5  and  C_6
REMARK    3  A    between atoms: C_6  and  C_7
REMARK                            x       y       z     vdW  Elec       q    Type
REMARK                         _______ _______ _______ _____ _____    ______ ____
ROOT
ATOM      1  N   UNL     1      10.745  -1.517  22.037  0.00  0.00    -0.343 N 
ATOM      2  H   UNL     1      11.590  -1.158  22.466  0.00  0.00    +0.144 HD
ATOM      3  H   UNL     1      10.478  -2.418  22.421  0.00  0.00    +0.144 HD
ATOM      4  C   UNL     1       9.665  -0.657  22.222  0.00  0.00    +0.122 A 
ATOM      5  C   UNL     1       9.778   0.670  21.811  0.00  0.00    +0.071 A 
ATOM      6  C   UNL     1       8.633   1.440  21.982  0.00  0.00    +0.075 A 
ATOM      7  C   UNL     1       7.459   0.929  22.522  0.00  0.00    +0.150 A 
ATOM      8  N   UNL     1       6.483   1.908  22.562  0.00  0.00    -0.231 NA
ATOM      9  C   UNL     1       7.042   2.980  22.054  0.00  0.00    +0.197 A 
ATOM     10  C   UNL     1       7.441  -0.418  22.927  0.00  0.00    +0.245 A 
ATOM     11  N   UNL     1       8.341   2.752  21.696  0.00  0.00    -0.344 N 
ATOM     12  H   UNL     1       8.967   3.429  21.285  0.00  0.00    +0.167 HD
ATOM     13  N   UNL     1       8.554  -1.195  22.761  0.00  0.00    -0.196 NA
ENDROOT
BRANCH  10  14
ATOM     14  O   UNL     1       6.288  -0.954  23.467  0.00  0.00    -0.475 OA
BRANCH  14  15
ATOM     15  C   UNL     1       6.376  -2.350  23.752  0.00  0.00    +0.234 C 
BRANCH  15  16
ATOM     16  C   UNL     1       5.414  -3.109  22.813  0.00  0.00    +0.027 C 
ATOM     17  C   UNL     1       4.585  -4.195  23.527  0.00  0.00    +0.007 C 
ATOM     18  C   UNL     1       5.334  -5.504  23.784  0.00  0.00    +0.000 C 
ATOM     19  C   UNL     1       6.081  -6.011  22.554  0.00  0.00    +0.000 C 
ATOM     20  C   UNL     1       6.976  -4.930  21.962  0.00  0.00    +0.000 C 
ATOM     21  C   UNL     1       6.159  -3.693  21.605  0.00  0.00    +0.007 C 
ENDBRANCH  15  16
ENDBRANCH  14  15
ENDBRANCH  10  14
TORSDOF 3
ENDMDL
