MODEL 1
REMARK VINA RESULT:      -5.3      0.000      0.000
REMARK  Name = 
REMARK  9 active torsions:
REMARK  status: ('A' for Active; 'I' for Inactive)
REMARK    1  A    between atoms: C_1  and  C_2
REMARK    2  A    between atoms: N_4  and  C_5
REMARK    3  A    between atoms: C_5  and  C_6
REMARK    4  A    between atoms: C_6  and  C_7
REMARK    5  A    between atoms: C_7  and  C_10
REMARK    6  A    between atoms: C_10  and  CA_11
REMARK    7  A    between atoms: CA_11  and  N_13
REMARK    8  A    between atoms: CA_11  and  C_14
REMARK    9  A    between atoms: C_14  and  O_15
REMARK                            x       y       z     vdW  Elec       q    Type
REMARK                         _______ _______ _______ _____ _____    ______ ____
ROOT
ATOM      1  C   UNL     1       9.737   3.294  23.546  0.00  0.00    +0.172 C 
ATOM      2  F   UNL     1       9.490   2.851  24.812  0.00  0.00    -0.245 F 
ENDROOT
BRANCH   1   3
ATOM      3  C   UNL     1       9.126   2.299  22.557  0.00  0.00    +0.080 C 
BRANCH   3   4
ATOM      4  C   UNL     1      10.095   1.212  22.088  0.00  0.00    +0.225 C 
BRANCH   4   7
ATOM      5  C   UNL     1       9.933  -2.237  23.749  0.00  0.00    +0.144 C 
ATOM      6  C   UNL     1       9.992  -1.199  22.647  0.00  0.00    +0.275 C 
ATOM      7  N   UNL     1      10.093   0.107  23.028  0.00  0.00    -0.238 N 
ATOM      8  H   UNL     1       9.969   0.332  24.011  0.00  0.00    +0.291 HD
ATOM      9  N   UNL     1       9.965  -1.560  21.406  0.00  0.00    -0.104 NA
ATOM     10  H   UNL     1       9.896  -2.578  21.327  0.00  0.00    +0.363 HD
ENDBRANCH   4   7
ENDBRANCH   3   4
ENDBRANCH   1   3
BRANCH   1  11
ATOM     11  C   UNL     1      11.245   3.478  23.383  0.00  0.00    +0.067 C 
BRANCH  11  12
ATOM     12  CA  UNL     1      11.743   4.925  23.498  0.00  0.00    +0.163 C 
BRANCH  12  13
ATOM     13  N   UNL     1      10.731   5.959  23.157  0.00  0.00    -0.318 NA
ATOM     14  H1  UNL     1      10.339   6.316  24.035  0.00  0.00    +0.119 HD
ATOM     15  H2  UNL     1       9.919   5.486  22.735  0.00  0.00    +0.119 HD
ENDBRANCH  12  13
BRANCH  12  16
ATOM     16  C   UNL     1      13.006   5.194  22.669  0.00  0.00    +0.322 C 
ATOM     17  OXT UNL     1      13.027   5.579  21.511  0.00  0.00    -0.249 OA
BRANCH  16  18
ATOM     18  O   UNL     1      14.124   4.920  23.390  0.00  0.00    -0.480 OA
ATOM     19  H   UNL     1      14.358   3.977  23.201  0.00  0.00    +0.295 HD
ENDBRANCH  16  18
ENDBRANCH  12  16
ENDBRANCH  11  12
ENDBRANCH   1  11
TORSDOF 8
ENDMDL
MODEL 2
REMARK VINA RESULT:      -5.3      3.478      6.348
REMARK  Name = 
REMARK  9 active torsions:
REMARK  status: ('A' for Active; 'I' for Inactive)
REMARK    1  A    between atoms: C_1  and  C_2
REMARK    2  A    between atoms: N_4  and  C_5
REMARK    3  A    between atoms: C_5  and  C_6
REMARK    4  A    between atoms: C_6  and  C_7
REMARK    5  A    between atoms: C_7  and  C_10
REMARK    6  A    between atoms: C_10  and  CA_11
REMARK    7  A    between atoms: CA_11  and  N_13
REMARK    8  A    between atoms: CA_11  and  C_14
REMARK    9  A    between atoms: C_14  and  O_15
REMARK                            x       y       z     vdW  Elec       q    Type
REMARK                         _______ _______ _______ _____ _____    ______ ____
ROOT
ATOM      1  C   UNL     1       9.589   1.827  22.611  0.00  0.00    +0.172 C 
ATOM      2  F   UNL     1      10.220   1.801  21.403  0.00  0.00    -0.245 F 
ENDROOT
BRANCH   1   3
ATOM      3  C   UNL     1      10.582   2.323  23.666  0.00  0.00    +0.080 C 
BRANCH   3   4
ATOM      4  C   UNL     1      10.702   3.846  23.740  0.00  0.00    +0.225 C 
BRANCH   4   7
ATOM      5  C   UNL     1      13.510   5.724  21.931  0.00  0.00    +0.144 C 
ATOM      6  C   UNL     1      12.590   5.297  23.056  0.00  0.00    +0.275 C 
ATOM      7  N   UNL     1      11.687   4.311  22.782  0.00  0.00    -0.238 N 
ATOM      8  H   UNL     1      11.568   4.025  21.815  0.00  0.00    +0.291 HD
ATOM      9  N   UNL     1      12.687   5.844  24.224  0.00  0.00    -0.104 NA
ATOM     10  H   UNL     1      13.427   6.551  24.231  0.00  0.00    +0.363 HD
ENDBRANCH   4   7
ENDBRANCH   3   4
ENDBRANCH   1   3
BRANCH   1  11
ATOM     11  C   UNL     1       9.033   0.432  22.897  0.00  0.00    +0.067 C 
BRANCH  11  12
ATOM     12  CA  UNL     1      10.052  -0.711  22.797  0.00  0.00    +0.163 C 
BRANCH  12  13
ATOM     13  N   UNL     1      10.068  -1.417  21.489  0.00  0.00    -0.318 NA
ATOM     14  H1  UNL     1      10.833  -2.099  21.511  0.00  0.00    +0.119 HD
ATOM     15  H2  UNL     1      10.390  -0.754  20.771  0.00  0.00    +0.119 HD
ENDBRANCH  12  13
BRANCH  12  16
ATOM     16  C   UNL     1       9.893  -1.757  23.908  0.00  0.00    +0.322 C 
ATOM     17  OXT UNL     1      10.176  -2.940  23.816  0.00  0.00    -0.249 OA
BRANCH  16  18
ATOM     18  O   UNL     1       9.361  -1.197  25.026  0.00  0.00    -0.480 OA
ATOM     19  H   UNL     1      10.032  -1.311  25.746  0.00  0.00    +0.295 HD
ENDBRANCH  16  18
ENDBRANCH  12  16
ENDBRANCH  11  12
ENDBRANCH   1  11
TORSDOF 8
ENDMDL
MODEL 3
REMARK VINA RESULT:      -5.3      5.531      8.075
REMARK  Name = 
REMARK  9 active torsions:
REMARK  status: ('A' for Active; 'I' for Inactive)
REMARK    1  A    between atoms: C_1  and  C_2
REMARK    2  A    between atoms: N_4  and  C_5
REMARK    3  A    between atoms: C_5  and  C_6
REMARK    4  A    between atoms: C_6  and  C_7
REMARK    5  A    between atoms: C_7  and  C_10
REMARK    6  A    between atoms: C_10  and  CA_11
REMARK    7  A    between atoms: CA_11  and  N_13
REMARK    8  A    between atoms: CA_11  and  C_14
REMARK    9  A    between atoms: C_14  and  O_15
REMARK                            x       y       z     vdW  Elec       q    Type
REMARK                         _______ _______ _______ _____ _____    ______ ____
ROOT
ATOM      1  C   UNL     1       9.365  -2.483  24.035  0.00  0.00    +0.172 C 
ATOM      2  F   UNL     1       9.065  -1.759  25.151  0.00  0.00    -0.245 F 
ENDROOT
BRANCH   1   3
ATOM      3  C   UNL     1       8.875  -1.710  22.809  0.00  0.00    +0.080 C 
BRANCH   3   4
ATOM      4  C   UNL     1       9.960  -0.883  22.118  0.00  0.00    +0.225 C 
BRANCH   4   7
ATOM      5  C   UNL     1      10.554   2.659  23.454  0.00  0.00    +0.144 C 
ATOM      6  C   UNL     1      10.089   1.558  22.524  0.00  0.00    +0.275 C 
ATOM      7  N   UNL     1      10.295   0.272  22.931  0.00  0.00    -0.238 N 
ATOM      8  H   UNL     1      10.878   0.114  23.747  0.00  0.00    +0.291 HD
ATOM      9  N   UNL     1       9.508   1.847  21.406  0.00  0.00    -0.104 NA
ATOM     10  H   UNL     1       9.439   2.862  21.286  0.00  0.00    +0.363 HD
ENDBRANCH   4   7
ENDBRANCH   3   4
ENDBRANCH   1   3
BRANCH   1  11
ATOM     11  C   UNL     1       8.743  -3.872  24.177  0.00  0.00    +0.067 C 
BRANCH  11  12
ATOM     12  CA  UNL     1       9.087  -4.612  25.477  0.00  0.00    +0.163 C 
BRANCH  12  13
ATOM     13  N   UNL     1      10.204  -5.587  25.360  0.00  0.00    -0.318 NA
ATOM     14  H1  UNL     1      10.787  -5.497  26.198  0.00  0.00    +0.119 HD
ATOM     15  H2  UNL     1      10.839  -5.258  24.619  0.00  0.00    +0.119 HD
ENDBRANCH  12  13
BRANCH  12  16
ATOM     16  C   UNL     1       7.882  -5.332  26.096  0.00  0.00    +0.322 C 
ATOM     17  OXT UNL     1       6.794  -5.480  25.566  0.00  0.00    -0.249 OA
BRANCH  16  18
ATOM     18  O   UNL     1       8.174  -5.773  27.347  0.00  0.00    -0.480 OA
ATOM     19  H   UNL     1       7.382  -6.277  27.661  0.00  0.00    +0.295 HD
ENDBRANCH  16  18
ENDBRANCH  12  16
ENDBRANCH  11  12
ENDBRANCH   1  11
TORSDOF 8
ENDMDL
MODEL 4
REMARK VINA RESULT:      -5.2      5.517      7.816
REMARK  Name = 
REMARK  9 active torsions:
REMARK  status: ('A' for Active; 'I' for Inactive)
REMARK    1  A    between atoms: C_1  and  C_2
REMARK    2  A    between atoms: N_4  and  C_5
REMARK    3  A    between atoms: C_5  and  C_6
REMARK    4  A    between atoms: C_6  and  C_7
REMARK    5  A    between atoms: C_7  and  C_10
REMARK    6  A    between atoms: C_10  and  CA_11
REMARK    7  A    between atoms: CA_11  and  N_13
REMARK    8  A    between atoms: CA_11  and  C_14
REMARK    9  A    between atoms: C_14  and  O_15
REMARK                            x       y       z     vdW  Elec       q    Type
REMARK                         _______ _______ _______ _____ _____    ______ ____
ROOT
ATOM      1  C   UNL     1       8.708  -2.335  25.230  0.00  0.00    +0.172 C 
ATOM      2  F   UNL     1       9.230  -1.160  25.685  0.00  0.00    -0.245 F 
ENDROOT
BRANCH   1   3
ATOM      3  C   UNL     1       7.408  -2.030  24.483  0.00  0.00    +0.080 C 
BRANCH   3   4
ATOM      4  C   UNL     1       7.577  -1.897  22.968  0.00  0.00    +0.225 C 
BRANCH   4   7
ATOM      5  C   UNL     1       9.870   0.942  21.802  0.00  0.00    +0.144 C 
ATOM      6  C   UNL     1       9.358  -0.469  22.006  0.00  0.00    +0.275 C 
ATOM      7  N   UNL     1       8.161  -0.609  22.646  0.00  0.00    -0.238 N 
ATOM      8  H   UNL     1       7.753   0.211  23.085  0.00  0.00    +0.291 HD
ATOM      9  N   UNL     1      10.033  -1.481  21.569  0.00  0.00    -0.104 NA
ATOM     10  H   UNL     1      10.895  -1.170  21.111  0.00  0.00    +0.363 HD
ENDBRANCH   4   7
ENDBRANCH   3   4
ENDBRANCH   1   3
BRANCH   1  11
ATOM     11  C   UNL     1       8.528  -3.277  26.420  0.00  0.00    +0.067 C 
BRANCH  11  12
ATOM     12  CA  UNL     1       8.158  -4.722  26.059  0.00  0.00    +0.163 C 
BRANCH  12  13
ATOM     13  N   UNL     1       8.154  -5.667  27.206  0.00  0.00    -0.318 NA
ATOM     14  H1  UNL     1       7.628  -5.230  27.971  0.00  0.00    +0.119 HD
ATOM     15  H2  UNL     1       9.107  -5.705  27.593  0.00  0.00    +0.119 HD
ENDBRANCH  12  13
BRANCH  12  16
ATOM     16  C   UNL     1       9.043  -5.311  24.953  0.00  0.00    +0.322 C 
ATOM     17  OXT UNL     1       8.689  -5.543  23.808  0.00  0.00    -0.249 OA
BRANCH  16  18
ATOM     18  O   UNL     1      10.291  -5.574  25.421  0.00  0.00    -0.480 OA
ATOM     19  H   UNL     1      10.533  -6.475  25.088  0.00  0.00    +0.295 HD
ENDBRANCH  16  18
ENDBRANCH  12  16
ENDBRANCH  11  12
ENDBRANCH   1  11
TORSDOF 8
ENDMDL
MODEL 5
REMARK VINA RESULT:      -5.1      7.922      8.940
REMARK  Name = 
REMARK  9 active torsions:
REMARK  status: ('A' for Active; 'I' for Inactive)
REMARK    1  A    between atoms: C_1  and  C_2
REMARK    2  A    between atoms: N_4  and  C_5
REMARK    3  A    between atoms: C_5  and  C_6
REMARK    4  A    between atoms: C_6  and  C_7
REMARK    5  A    between atoms: C_7  and  C_10
REMARK    6  A    between atoms: C_10  and  CA_11
REMARK    7  A    between atoms: CA_11  and  N_13
REMARK    8  A    between atoms: CA_11  and  C_14
REMARK    9  A    between atoms: C_14  and  O_15
REMARK                            x       y       z     vdW  Elec       q    Type
REMARK                         _______ _______ _______ _____ _____    ______ ____
ROOT
ATOM      1  C   UNL     1       9.242  -3.198  24.104  0.00  0.00    +0.172 C 
ATOM      2  F   UNL     1      10.100  -2.143  24.000  0.00  0.00    -0.245 F 
ENDROOT
BRANCH   1   3
ATOM      3  C   UNL     1       8.071  -2.966  23.147  0.00  0.00    +0.080 C 
BRANCH   3   4
ATOM      4  C   UNL     1       7.512  -4.246  22.524  0.00  0.00    +0.225 C 
BRANCH   4   7
ATOM      5  C   UNL     1       3.976  -5.588  23.142  0.00  0.00    +0.144 C 
ATOM      6  C   UNL     1       5.362  -5.479  22.541  0.00  0.00    +0.275 C 
ATOM      7  N   UNL     1       6.183  -4.510  23.043  0.00  0.00    -0.238 N 
ATOM      8  H   UNL     1       5.783  -3.820  23.671  0.00  0.00    +0.291 HD
ATOM      9  N   UNL     1       5.738  -6.290  21.608  0.00  0.00    -0.104 NA
ATOM     10  H   UNL     1       4.987  -6.947  21.377  0.00  0.00    +0.363 HD
ENDBRANCH   4   7
ENDBRANCH   3   4
ENDBRANCH   1   3
BRANCH   1  11
ATOM     11  C   UNL     1       8.824  -3.340  25.567  0.00  0.00    +0.067 C 
BRANCH  11  12
ATOM     12  CA  UNL     1       9.026  -4.735  26.172  0.00  0.00    +0.163 C 
BRANCH  12  13
ATOM     13  N   UNL     1       9.867  -5.650  25.357  0.00  0.00    -0.318 NA
ATOM     14  H1  UNL     1       9.789  -6.590  25.759  0.00  0.00    +0.119 HD
ATOM     15  H2  UNL     1      10.855  -5.421  25.536  0.00  0.00    +0.119 HD
ENDBRANCH  12  13
BRANCH  12  16
ATOM     16  C   UNL     1       7.706  -5.450  26.490  0.00  0.00    +0.322 C 
ATOM     17  OXT UNL     1       6.734  -5.506  25.755  0.00  0.00    -0.249 OA
BRANCH  16  18
ATOM     18  O   UNL     1       7.743  -6.003  27.730  0.00  0.00    -0.480 OA
ATOM     19  H   UNL     1       7.903  -5.261  28.366  0.00  0.00    +0.295 HD
ENDBRANCH  16  18
ENDBRANCH  12  16
ENDBRANCH  11  12
ENDBRANCH   1  11
TORSDOF 8
ENDMDL
MODEL 6
REMARK VINA RESULT:      -5.0      3.619      4.783
REMARK  Name = 
REMARK  9 active torsions:
REMARK  status: ('A' for Active; 'I' for Inactive)
REMARK    1  A    between atoms: C_1  and  C_2
REMARK    2  A    between atoms: N_4  and  C_5
REMARK    3  A    between atoms: C_5  and  C_6
REMARK    4  A    between atoms: C_6  and  C_7
REMARK    5  A    between atoms: C_7  and  C_10
REMARK    6  A    between atoms: C_10  and  CA_11
REMARK    7  A    between atoms: CA_11  and  N_13
REMARK    8  A    between atoms: CA_11  and  C_14
REMARK    9  A    between atoms: C_14  and  O_15
REMARK                            x       y       z     vdW  Elec       q    Type
REMARK                         _______ _______ _______ _____ _____    ______ ____
ROOT
ATOM      1  C   UNL     1       9.929  -1.251  22.181  0.00  0.00    +0.172 C 
ATOM      2  F   UNL     1       9.186  -0.807  21.127  0.00  0.00    -0.245 F 
ENDROOT
BRANCH   1   3
ATOM      3  C   UNL     1       9.055  -2.171  23.036  0.00  0.00    +0.080 C 
BRANCH   3   4
ATOM      4  C   UNL     1       9.824  -2.936  24.114  0.00  0.00    +0.225 C 
BRANCH   4   7
ATOM      5  C   UNL     1       7.992  -5.320  26.490  0.00  0.00    +0.144 C 
ATOM      6  C   UNL     1       9.085  -4.786  25.587  0.00  0.00    +0.275 C 
ATOM      7  N   UNL     1       8.895  -3.548  25.045  0.00  0.00    -0.238 N 
ATOM      8  H   UNL     1       7.981  -3.117  25.143  0.00  0.00    +0.291 HD
ATOM      9  N   UNL     1      10.152  -5.483  25.368  0.00  0.00    -0.104 NA
ATOM     10  H   UNL     1      10.110  -6.374  25.870  0.00  0.00    +0.363 HD
ENDBRANCH   4   7
ENDBRANCH   3   4
ENDBRANCH   1   3
BRANCH   1  11
ATOM     11  C   UNL     1      10.470  -0.038  22.936  0.00  0.00    +0.067 C 
BRANCH  11  12
ATOM     12  CA  UNL     1       9.628   1.239  22.811  0.00  0.00    +0.163 C 
BRANCH  12  13
ATOM     13  N   UNL     1      10.065   2.168  21.735  0.00  0.00    -0.318 NA
ATOM     14  H1  UNL     1       9.428   2.972  21.737  0.00  0.00    +0.119 HD
ATOM     15  H2  UNL     1       9.855   1.728  20.828  0.00  0.00    +0.119 HD
ENDBRANCH  12  13
BRANCH  12  16
ATOM     16  C   UNL     1       9.536   2.030  24.122  0.00  0.00    +0.322 C 
ATOM     17  OXT UNL     1       9.447   3.243  24.215  0.00  0.00    -0.249 OA
BRANCH  16  18
ATOM     18  O   UNL     1       9.593   1.197  25.194  0.00  0.00    -0.480 OA
ATOM     19  H   UNL     1       8.834   1.440  25.781  0.00  0.00    +0.295 HD
ENDBRANCH  16  18
ENDBRANCH  12  16
ENDBRANCH  11  12
ENDBRANCH   1  11
TORSDOF 8
ENDMDL
MODEL 7
REMARK VINA RESULT:      -5.0      5.501      7.929
REMARK  Name = 
REMARK  9 active torsions:
REMARK  status: ('A' for Active; 'I' for Inactive)
REMARK    1  A    between atoms: C_1  and  C_2
REMARK    2  A    between atoms: N_4  and  C_5
REMARK    3  A    between atoms: C_5  and  C_6
REMARK    4  A    between atoms: C_6  and  C_7
REMARK    5  A    between atoms: C_7  and  C_10
REMARK    6  A    between atoms: C_10  and  CA_11
REMARK    7  A    between atoms: CA_11  and  N_13
REMARK    8  A    between atoms: CA_11  and  C_14
REMARK    9  A    between atoms: C_14  and  O_15
REMARK                            x       y       z     vdW  Elec       q    Type
REMARK                         _______ _______ _______ _____ _____    ______ ____
ROOT
ATOM      1  C   UNL     1       9.382  -2.449  23.652  0.00  0.00    +0.172 C 
ATOM      2  F   UNL     1      10.701  -2.754  23.489  0.00  0.00    -0.245 F 
ENDROOT
BRANCH   1   3
ATOM      3  C   UNL     1       9.278  -1.230  24.571  0.00  0.00    +0.080 C 
BRANCH   3   4
ATOM      4  C   UNL     1       9.766   0.073  23.936  0.00  0.00    +0.225 C 
BRANCH   4   7
ATOM      5  C   UNL     1       7.564   2.343  21.772  0.00  0.00    +0.144 C 
ATOM      6  C   UNL     1       8.811   1.652  22.281  0.00  0.00    +0.275 C 
ATOM      7  N   UNL     1       8.656   0.762  23.305  0.00  0.00    -0.238 N 
ATOM      8  H   UNL     1       7.755   0.721  23.772  0.00  0.00    +0.291 HD
ATOM      9  N   UNL     1       9.961   1.895  21.743  0.00  0.00    -0.104 NA
ATOM     10  H   UNL     1       9.869   2.581  20.989  0.00  0.00    +0.363 HD
ENDBRANCH   4   7
ENDBRANCH   3   4
ENDBRANCH   1   3
BRANCH   1  11
ATOM     11  C   UNL     1       8.662  -3.686  24.186  0.00  0.00    +0.067 C 
BRANCH  11  12
ATOM     12  CA  UNL     1       9.256  -4.287  25.467  0.00  0.00    +0.163 C 
BRANCH  12  13
ATOM     13  N   UNL     1      10.069  -5.514  25.257  0.00  0.00    -0.318 NA
ATOM     14  H1  UNL     1       9.786  -6.202  25.963  0.00  0.00    +0.119 HD
ATOM     15  H2  UNL     1      11.039  -5.307  25.536  0.00  0.00    +0.119 HD
ENDBRANCH  12  13
BRANCH  12  16
ATOM     16  C   UNL     1       8.199  -4.587  26.538  0.00  0.00    +0.322 C 
ATOM     17  OXT UNL     1       7.362  -3.801  26.949  0.00  0.00    -0.249 OA
BRANCH  16  18
ATOM     18  O   UNL     1       8.330  -5.857  27.003  0.00  0.00    -0.480 OA
ATOM     19  H   UNL     1       9.057  -5.839  27.674  0.00  0.00    +0.295 HD
ENDBRANCH  16  18
ENDBRANCH  12  16
ENDBRANCH  11  12
ENDBRANCH   1  11
TORSDOF 8
ENDMDL
MODEL 8
REMARK VINA RESULT:      -4.9      5.333      7.975
REMARK  Name = 
REMARK  9 active torsions:
REMARK  status: ('A' for Active; 'I' for Inactive)
REMARK    1  A    between atoms: C_1  and  C_2
REMARK    2  A    between atoms: N_4  and  C_5
REMARK    3  A    between atoms: C_5  and  C_6
REMARK    4  A    between atoms: C_6  and  C_7
REMARK    5  A    between atoms: C_7  and  C_10
REMARK    6  A    between atoms: C_10  and  CA_11
REMARK    7  A    between atoms: CA_11  and  N_13
REMARK    8  A    between atoms: CA_11  and  C_14
REMARK    9  A    between atoms: C_14  and  O_15
REMARK                            x       y       z     vdW  Elec       q    Type
REMARK                         _______ _______ _______ _____ _____    ______ ____
ROOT
ATOM      1  C   UNL     1       9.396  -2.277  23.794  0.00  0.00    +0.172 C 
ATOM      2  F   UNL     1      10.566  -2.976  23.853  0.00  0.00    -0.245 F 
ENDROOT
BRANCH   1   3
ATOM      3  C   UNL     1       9.618  -0.905  24.433  0.00  0.00    +0.080 C 
BRANCH   3   4
ATOM      4  C   UNL     1       9.054   0.261  23.619  0.00  0.00    +0.225 C 
BRANCH   4   7
ATOM      5  C   UNL     1      11.089   3.498  23.375  0.00  0.00    +0.144 C 
ATOM      6  C   UNL     1      10.261   2.311  22.928  0.00  0.00    +0.275 C 
ATOM      7  N   UNL     1       9.804   1.470  23.901  0.00  0.00    -0.238 N 
ATOM      8  H   UNL     1      10.163   1.587  24.843  0.00  0.00    +0.291 HD
ATOM      9  N   UNL     1       9.995   2.133  21.676  0.00  0.00    -0.104 NA
ATOM     10  H   UNL     1      10.417   2.872  21.108  0.00  0.00    +0.363 HD
ENDBRANCH   4   7
ENDBRANCH   3   4
ENDBRANCH   1   3
BRANCH   1  11
ATOM     11  C   UNL     1       8.304  -3.103  24.472  0.00  0.00    +0.067 C 
BRANCH  11  12
ATOM     12  CA  UNL     1       8.366  -4.613  24.207  0.00  0.00    +0.163 C 
BRANCH  12  13
ATOM     13  N   UNL     1       7.107  -5.204  23.682  0.00  0.00    -0.318 NA
ATOM     14  H1  UNL     1       6.742  -5.846  24.394  0.00  0.00    +0.119 HD
ATOM     15  H2  UNL     1       7.350  -5.848  22.916  0.00  0.00    +0.119 HD
ENDBRANCH  12  13
BRANCH  12  16
ATOM     16  C   UNL     1       8.803  -5.423  25.435  0.00  0.00    +0.322 C 
ATOM     17  OXT UNL     1       8.085  -5.739  26.369  0.00  0.00    -0.249 OA
BRANCH  16  18
ATOM     18  O   UNL     1      10.125  -5.728  25.366  0.00  0.00    -0.480 OA
ATOM     19  H   UNL     1      10.478  -5.274  24.560  0.00  0.00    +0.295 HD
ENDBRANCH  16  18
ENDBRANCH  12  16
ENDBRANCH  11  12
ENDBRANCH   1  11
TORSDOF 8
ENDMDL
MODEL 9
REMARK VINA RESULT:      -4.8      3.665      4.957
REMARK  Name = 
REMARK  9 active torsions:
REMARK  status: ('A' for Active; 'I' for Inactive)
REMARK    1  A    between atoms: C_1  and  C_2
REMARK    2  A    between atoms: N_4  and  C_5
REMARK    3  A    between atoms: C_5  and  C_6
REMARK    4  A    between atoms: C_6  and  C_7
REMARK    5  A    between atoms: C_7  and  C_10
REMARK    6  A    between atoms: C_10  and  CA_11
REMARK    7  A    between atoms: CA_11  and  N_13
REMARK    8  A    between atoms: CA_11  and  C_14
REMARK    9  A    between atoms: C_14  and  O_15
REMARK                            x       y       z     vdW  Elec       q    Type
REMARK                         _______ _______ _______ _____ _____    ______ ____
ROOT
ATOM      1  C   UNL     1       9.743  -1.705  24.070  0.00  0.00    +0.172 C 
ATOM      2  F   UNL     1      10.403  -2.879  23.862  0.00  0.00    -0.245 F 
ENDROOT
BRANCH   1   3
ATOM      3  C   UNL     1       8.239  -1.987  24.061  0.00  0.00    +0.080 C 
BRANCH   3   4
ATOM      4  C   UNL     1       7.640  -2.134  22.661  0.00  0.00    +0.225 C 
BRANCH   4   7
ATOM      5  C   UNL     1       6.681  -5.680  21.572  0.00  0.00    +0.144 C 
ATOM      6  C   UNL     1       6.524  -4.209  21.893  0.00  0.00    +0.275 C 
ATOM      7  N   UNL     1       7.648  -3.530  22.264  0.00  0.00    -0.238 N 
ATOM      8  H   UNL     1       8.490  -4.064  22.456  0.00  0.00    +0.291 HD
ATOM      9  N   UNL     1       5.369  -3.636  21.795  0.00  0.00    -0.104 NA
ATOM     10  H   UNL     1       4.657  -4.308  21.495  0.00  0.00    +0.363 HD
ENDBRANCH   4   7
ENDBRANCH   3   4
ENDBRANCH   1   3
BRANCH   1  11
ATOM     11  C   UNL     1      10.188  -0.704  23.004  0.00  0.00    +0.067 C 
BRANCH  11  12
ATOM     12  CA  UNL     1      10.467   0.716  23.517  0.00  0.00    +0.163 C 
BRANCH  12  13
ATOM     13  N   UNL     1      10.323   0.885  24.987  0.00  0.00    -0.318 NA
ATOM     14  H1  UNL     1       9.432   0.459  25.265  0.00  0.00    +0.119 HD
ATOM     15  H2  UNL     1      10.153   1.882  25.179  0.00  0.00    +0.119 HD
ENDBRANCH  12  13
BRANCH  12  16
ATOM     16  C   UNL     1       9.614   1.785  22.822  0.00  0.00    +0.322 C 
ATOM     17  OXT UNL     1       8.576   2.257  23.256  0.00  0.00    -0.249 OA
BRANCH  16  18
ATOM     18  O   UNL     1      10.154   2.131  21.624  0.00  0.00    -0.480 OA
ATOM     19  H   UNL     1       9.441   2.010  20.948  0.00  0.00    +0.295 HD
ENDBRANCH  16  18
ENDBRANCH  12  16
ENDBRANCH  11  12
ENDBRANCH   1  11
TORSDOF 8
ENDMDL
