MODEL 1
REMARK VINA RESULT:      -6.7      0.000      0.000
REMARK  Name = 
REMARK  7 active torsions:
REMARK  status: ('A' for Active; 'I' for Inactive)
REMARK    1  A    between atoms: C_1  and  C_2
REMARK    2  A    between atoms: C_2  and  C_3
REMARK    3  A    between atoms: C_2  and  C_4
REMARK    4  A    between atoms: C_2  and  O_5
REMARK    5  A    between atoms: O_5  and  C_6
REMARK    6  A    between atoms: N_8  and  C_9
REMARK    7  A    between atoms: C_10  and  C_15
REMARK                            x       y       z     vdW  Elec       q    Type
REMARK                         _______ _______ _______ _____ _____    ______ ____
ROOT
ATOM      1  C   UNL     1       8.890  -1.521  22.450  0.00  0.00    +0.067 A 
ATOM      2  C   UNL     1       9.215  -0.347  21.760  0.00  0.00    +0.027 A 
ATOM      3  C   UNL     1      10.034   0.617  22.346  0.00  0.00    +0.022 A 
ATOM      4  C   UNL     1      10.527   0.379  23.615  0.00  0.00    +0.112 A 
ATOM      5  N   UNL     1      10.242  -0.728  24.331  0.00  0.00    -0.248 NA
ATOM      6  C   UNL     1       9.409  -1.649  23.744  0.00  0.00    +0.147 A 
ENDROOT
BRANCH   6   7
ATOM      7  C   UNL     1       9.179  -2.877  24.582  0.00  0.00    +0.270 C 
ATOM      8  N   UNL     1       8.022  -2.779  25.322  0.00  0.00    -0.259 N 
ATOM      9  H   UNL     1       7.489  -1.919  25.248  0.00  0.00    +0.157 HD
ATOM     10  C   UNL     1       7.567  -3.745  26.168  0.00  0.00    +0.165 A 
ATOM     11  S   UNL     1       6.186  -3.287  27.066  0.00  0.00    -0.061 S 
ATOM     12  C   UNL     1       6.204  -4.820  27.837  0.00  0.00    +0.068 A 
ATOM     13  C   UNL     1       7.242  -5.575  27.330  0.00  0.00    +0.120 A 
ATOM     14  N   UNL     1       8.029  -4.949  26.384  0.00  0.00    -0.233 NA
ATOM     15  O   UNL     1       9.988  -3.796  24.565  0.00  0.00    -0.268 OA
ENDBRANCH   6   7
BRANCH   1  17
ATOM     16  C   UNL     1       6.761  -2.686  22.181  0.00  0.00    +0.405 C 
ATOM     17  N   UNL     1       8.080  -2.508  21.833  0.00  0.00    -0.249 N 
ATOM     18  H   UNL     1       8.312  -2.790  20.880  0.00  0.00    +0.158 HD
ATOM     19  O   UNL     1       6.163  -1.995  22.993  0.00  0.00    -0.226 OA
BRANCH  16  20
ATOM     20  O   UNL     1       6.192  -3.690  21.455  0.00  0.00    -0.444 OA
BRANCH  20  22
ATOM     21  C   UNL     1       4.859  -5.205  22.831  0.00  0.00    +0.055 C 
ATOM     22  C   UNL     1       6.146  -5.035  22.015  0.00  0.00    +0.107 C 
ATOM     23  C   UNL     1       6.086  -6.007  20.823  0.00  0.00    +0.055 C 
ATOM     24  C   UNL     1       7.398  -5.392  22.833  0.00  0.00    +0.055 C 
ENDBRANCH  20  22
ENDBRANCH  16  20
ENDBRANCH   1  17
TORSDOF 4
ENDMDL
MODEL 2
REMARK VINA RESULT:      -6.3      2.052      4.929
REMARK  Name = 
REMARK  7 active torsions:
REMARK  status: ('A' for Active; 'I' for Inactive)
REMARK    1  A    between atoms: C_1  and  C_2
REMARK    2  A    between atoms: C_2  and  C_3
REMARK    3  A    between atoms: C_2  and  C_4
REMARK    4  A    between atoms: C_2  and  O_5
REMARK    5  A    between atoms: O_5  and  C_6
REMARK    6  A    between atoms: N_8  and  C_9
REMARK    7  A    between atoms: C_10  and  C_15
REMARK                            x       y       z     vdW  Elec       q    Type
REMARK                         _______ _______ _______ _____ _____    ______ ____
ROOT
ATOM      1  C   UNL     1       7.168  -3.677  23.517  0.00  0.00    +0.067 A 
ATOM      2  C   UNL     1       6.874  -3.501  22.159  0.00  0.00    +0.027 A 
ATOM      3  C   UNL     1       6.289  -4.528  21.421  0.00  0.00    +0.022 A 
ATOM      4  C   UNL     1       5.996  -5.716  22.063  0.00  0.00    +0.112 A 
ATOM      5  N   UNL     1       6.264  -5.947  23.365  0.00  0.00    -0.248 NA
ATOM      6  C   UNL     1       6.867  -4.930  24.064  0.00  0.00    +0.147 A 
ENDROOT
BRANCH   6   7
ATOM      7  C   UNL     1       7.088  -5.244  25.518  0.00  0.00    +0.270 C 
ATOM      8  N   UNL     1       5.913  -5.586  26.150  0.00  0.00    -0.259 N 
ATOM      9  H   UNL     1       5.061  -5.565  25.599  0.00  0.00    +0.157 HD
ATOM     10  C   UNL     1       5.817  -5.920  27.466  0.00  0.00    +0.165 A 
ATOM     11  S   UNL     1       4.212  -6.153  28.008  0.00  0.00    -0.061 S 
ATOM     12  C   UNL     1       4.812  -6.484  29.582  0.00  0.00    +0.068 A 
ATOM     13  C   UNL     1       6.191  -6.422  29.567  0.00  0.00    +0.120 A 
ATOM     14  N   UNL     1       6.761  -6.084  28.356  0.00  0.00    -0.233 NA
ATOM     15  O   UNL     1       8.208  -5.155  26.007  0.00  0.00    -0.268 OA
ENDBRANCH   6   7
BRANCH   1  17
ATOM     16  C   UNL     1       9.092  -2.386  24.289  0.00  0.00    +0.405 C 
ATOM     17  N   UNL     1       7.735  -2.615  24.266  0.00  0.00    -0.249 N 
ATOM     18  H   UNL     1       7.160  -1.789  24.436  0.00  0.00    +0.158 HD
ATOM     19  O   UNL     1       9.909  -3.024  23.641  0.00  0.00    -0.226 OA
BRANCH  16  20
ATOM     20  O   UNL     1       9.397  -1.315  25.075  0.00  0.00    -0.444 OA
BRANCH  20  22
ATOM     21  C   UNL     1       8.439   0.928  25.209  0.00  0.00    +0.055 C 
ATOM     22  C   UNL     1       9.434   0.016  24.481  0.00  0.00    +0.107 C 
ATOM     23  C   UNL     1      10.851   0.567  24.723  0.00  0.00    +0.055 C 
ATOM     24  C   UNL     1       9.202   0.006  22.962  0.00  0.00    +0.055 C 
ENDBRANCH  20  22
ENDBRANCH  16  20
ENDBRANCH   1  17
TORSDOF 4
ENDMDL
MODEL 3
REMARK VINA RESULT:      -6.2      2.463      3.862
REMARK  Name = 
REMARK  7 active torsions:
REMARK  status: ('A' for Active; 'I' for Inactive)
REMARK    1  A    between atoms: C_1  and  C_2
REMARK    2  A    between atoms: C_2  and  C_3
REMARK    3  A    between atoms: C_2  and  C_4
REMARK    4  A    between atoms: C_2  and  O_5
REMARK    5  A    between atoms: O_5  and  C_6
REMARK    6  A    between atoms: N_8  and  C_9
REMARK    7  A    between atoms: C_10  and  C_15
REMARK                            x       y       z     vdW  Elec       q    Type
REMARK                         _______ _______ _______ _____ _____    ______ ____
ROOT
ATOM      1  C   UNL     1       8.956  -0.014  23.163  0.00  0.00    +0.067 A 
ATOM      2  C   UNL     1       9.832   0.813  22.450  0.00  0.00    +0.027 A 
ATOM      3  C   UNL     1       9.357   1.940  21.781  0.00  0.00    +0.022 A 
ATOM      4  C   UNL     1       8.007   2.226  21.849  0.00  0.00    +0.112 A 
ATOM      5  N   UNL     1       7.114   1.462  22.511  0.00  0.00    -0.248 NA
ATOM      6  C   UNL     1       7.601   0.341  23.139  0.00  0.00    +0.147 A 
ENDROOT
BRANCH   6   7
ATOM      7  C   UNL     1       6.557  -0.431  23.897  0.00  0.00    +0.270 C 
ATOM      8  N   UNL     1       6.254  -1.623  23.278  0.00  0.00    -0.259 N 
ATOM      9  H   UNL     1       6.726  -1.830  22.404  0.00  0.00    +0.157 HD
ATOM     10  C   UNL     1       5.344  -2.522  23.744  0.00  0.00    +0.165 A 
ATOM     11  S   UNL     1       5.067  -3.840  22.691  0.00  0.00    -0.061 S 
ATOM     12  C   UNL     1       3.922  -4.465  23.807  0.00  0.00    +0.068 A 
ATOM     13  C   UNL     1       3.860  -3.638  24.909  0.00  0.00    +0.120 A 
ATOM     14  N   UNL     1       4.666  -2.518  24.862  0.00  0.00    -0.233 NA
ATOM     15  O   UNL     1       6.069   0.033  24.921  0.00  0.00    -0.268 OA
ENDBRANCH   6   7
BRANCH   1  17
ATOM     16  C   UNL     1       9.480  -2.396  23.301  0.00  0.00    +0.405 C 
ATOM     17  N   UNL     1       9.454  -1.141  23.865  0.00  0.00    -0.249 N 
ATOM     18  H   UNL     1      10.159  -0.983  24.585  0.00  0.00    +0.158 HD
ATOM     19  O   UNL     1       9.136  -2.642  22.153  0.00  0.00    -0.226 OA
BRANCH  16  20
ATOM     20  O   UNL     1       9.999  -3.313  24.164  0.00  0.00    -0.444 OA
BRANCH  20  22
ATOM     21  C   UNL     1       8.217  -4.980  24.030  0.00  0.00    +0.055 C 
ATOM     22  C   UNL     1       9.094  -4.132  24.961  0.00  0.00    +0.107 C 
ATOM     23  C   UNL     1       9.974  -5.087  25.787  0.00  0.00    +0.055 C 
ATOM     24  C   UNL     1       8.254  -3.313  25.954  0.00  0.00    +0.055 C 
ENDBRANCH  20  22
ENDBRANCH  16  20
ENDBRANCH   1  17
TORSDOF 4
ENDMDL
MODEL 4
REMARK VINA RESULT:      -6.0      2.421      5.903
REMARK  Name = 
REMARK  7 active torsions:
REMARK  status: ('A' for Active; 'I' for Inactive)
REMARK    1  A    between atoms: C_1  and  C_2
REMARK    2  A    between atoms: C_2  and  C_3
REMARK    3  A    between atoms: C_2  and  C_4
REMARK    4  A    between atoms: C_2  and  O_5
REMARK    5  A    between atoms: O_5  and  C_6
REMARK    6  A    between atoms: N_8  and  C_9
REMARK    7  A    between atoms: C_10  and  C_15
REMARK                            x       y       z     vdW  Elec       q    Type
REMARK                         _______ _______ _______ _____ _____    ______ ____
ROOT
ATOM      1  C   UNL     1       6.423  -4.686  24.430  0.00  0.00    +0.067 A 
ATOM      2  C   UNL     1       5.635  -5.639  23.773  0.00  0.00    +0.027 A 
ATOM      3  C   UNL     1       5.859  -5.941  22.431  0.00  0.00    +0.022 A 
ATOM      4  C   UNL     1       6.884  -5.289  21.771  0.00  0.00    +0.112 A 
ATOM      5  N   UNL     1       7.669  -4.357  22.348  0.00  0.00    -0.248 NA
ATOM      6  C   UNL     1       7.410  -4.055  23.663  0.00  0.00    +0.147 A 
ENDROOT
BRANCH   6   7
ATOM      7  C   UNL     1       8.358  -3.046  24.250  0.00  0.00    +0.270 C 
ATOM      8  N   UNL     1       8.363  -1.872  23.530  0.00  0.00    -0.259 N 
ATOM      9  H   UNL     1       7.775  -1.826  22.704  0.00  0.00    +0.157 HD
ATOM     10  C   UNL     1       9.126  -0.786  23.835  0.00  0.00    +0.165 A 
ATOM     11  S   UNL     1       9.037   0.471  22.680  0.00  0.00    -0.061 S 
ATOM     12  C   UNL     1      10.148   1.385  23.619  0.00  0.00    +0.068 A 
ATOM     13  C   UNL     1      10.477   0.674  24.755  0.00  0.00    +0.120 A 
ATOM     14  N   UNL     1       9.900  -0.575  24.867  0.00  0.00    -0.233 NA
ATOM     15  O   UNL     1       9.026  -3.327  25.238  0.00  0.00    -0.268 OA
ENDBRANCH   6   7
BRANCH   1  17
ATOM     16  C   UNL     1       6.792  -5.157  26.798  0.00  0.00    +0.405 C 
ATOM     17  N   UNL     1       6.206  -4.408  25.804  0.00  0.00    -0.249 N 
ATOM     18  H   UNL     1       5.984  -3.448  26.068  0.00  0.00    +0.158 HD
ATOM     19  O   UNL     1       7.577  -6.073  26.598  0.00  0.00    -0.226 OA
BRANCH  16  20
ATOM     20  O   UNL     1       6.436  -4.702  28.032  0.00  0.00    -0.444 OA
BRANCH  20  22
ATOM     21  C   UNL     1       6.135  -6.348  29.812  0.00  0.00    +0.055 C 
ATOM     22  C   UNL     1       5.435  -5.434  28.798  0.00  0.00    +0.107 C 
ATOM     23  C   UNL     1       4.625  -4.385  29.582  0.00  0.00    +0.055 C 
ATOM     24  C   UNL     1       4.443  -6.207  27.914  0.00  0.00    +0.055 C 
ENDBRANCH  20  22
ENDBRANCH  16  20
ENDBRANCH   1  17
TORSDOF 4
ENDMDL
MODEL 5
REMARK VINA RESULT:      -6.0      2.842      4.005
REMARK  Name = 
REMARK  7 active torsions:
REMARK  status: ('A' for Active; 'I' for Inactive)
REMARK    1  A    between atoms: C_1  and  C_2
REMARK    2  A    between atoms: C_2  and  C_3
REMARK    3  A    between atoms: C_2  and  C_4
REMARK    4  A    between atoms: C_2  and  O_5
REMARK    5  A    between atoms: O_5  and  C_6
REMARK    6  A    between atoms: N_8  and  C_9
REMARK    7  A    between atoms: C_10  and  C_15
REMARK                            x       y       z     vdW  Elec       q    Type
REMARK                         _______ _______ _______ _____ _____    ______ ____
ROOT
ATOM      1  C   UNL     1       8.476  -0.474  22.467  0.00  0.00    +0.067 A 
ATOM      2  C   UNL     1       9.283   0.311  21.635  0.00  0.00    +0.027 A 
ATOM      3  C   UNL     1       8.900   1.607  21.293  0.00  0.00    +0.022 A 
ATOM      4  C   UNL     1       7.715   2.100  21.805  0.00  0.00    +0.112 A 
ATOM      5  N   UNL     1       6.893   1.388  22.603  0.00  0.00    -0.248 NA
ATOM      6  C   UNL     1       7.277   0.103  22.902  0.00  0.00    +0.147 A 
ENDROOT
BRANCH   6   7
ATOM      7  C   UNL     1       6.337  -0.608  23.835  0.00  0.00    +0.270 C 
ATOM      8  N   UNL     1       5.971   0.190  24.896  0.00  0.00    -0.259 N 
ATOM      9  H   UNL     1       6.378   1.119  24.946  0.00  0.00    +0.157 HD
ATOM     10  C   UNL     1       5.129  -0.195  25.894  0.00  0.00    +0.165 A 
ATOM     11  S   UNL     1       4.975   0.949  27.154  0.00  0.00    -0.061 S 
ATOM     12  C   UNL     1       3.900  -0.117  27.964  0.00  0.00    +0.068 A 
ATOM     13  C   UNL     1       3.717  -1.250  27.198  0.00  0.00    +0.120 A 
ATOM     14  N   UNL     1       4.434  -1.296  26.019  0.00  0.00    -0.233 NA
ATOM     15  O   UNL     1       6.007  -1.767  23.615  0.00  0.00    -0.268 OA
ENDBRANCH   6   7
BRANCH   1  17
ATOM     16  C   UNL     1       9.697  -2.008  23.923  0.00  0.00    +0.405 C 
ATOM     17  N   UNL     1       8.890  -1.781  22.832  0.00  0.00    -0.249 N 
ATOM     18  H   UNL     1       8.286  -2.562  22.577  0.00  0.00    +0.158 HD
ATOM     19  O   UNL     1      10.077  -1.137  24.692  0.00  0.00    -0.226 OA
BRANCH  16  20
ATOM     20  O   UNL     1       9.960  -3.337  24.072  0.00  0.00    -0.444 OA
BRANCH  20  22
ATOM     21  C   UNL     1       8.116  -4.930  23.899  0.00  0.00    +0.055 C 
ATOM     22  C   UNL     1       9.042  -4.161  24.850  0.00  0.00    +0.107 C 
ATOM     23  C   UNL     1       9.904  -5.187  25.607  0.00  0.00    +0.055 C 
ATOM     24  C   UNL     1       8.255  -3.363  25.901  0.00  0.00    +0.055 C 
ENDBRANCH  20  22
ENDBRANCH  16  20
ENDBRANCH   1  17
TORSDOF 4
ENDMDL
MODEL 6
REMARK VINA RESULT:      -5.9      2.133      3.962
REMARK  Name = 
REMARK  7 active torsions:
REMARK  status: ('A' for Active; 'I' for Inactive)
REMARK    1  A    between atoms: C_1  and  C_2
REMARK    2  A    between atoms: C_2  and  C_3
REMARK    3  A    between atoms: C_2  and  C_4
REMARK    4  A    between atoms: C_2  and  O_5
REMARK    5  A    between atoms: O_5  and  C_6
REMARK    6  A    between atoms: N_8  and  C_9
REMARK    7  A    between atoms: C_10  and  C_15
REMARK                            x       y       z     vdW  Elec       q    Type
REMARK                         _______ _______ _______ _____ _____    ______ ____
ROOT
ATOM      1  C   UNL     1       9.005  -1.039  25.348  0.00  0.00    +0.067 A 
ATOM      2  C   UNL     1       9.404   0.294  25.508  0.00  0.00    +0.027 A 
ATOM      3  C   UNL     1      10.219   0.909  24.560  0.00  0.00    +0.022 A 
ATOM      4  C   UNL     1      10.613   0.178  23.455  0.00  0.00    +0.112 A 
ATOM      5  N   UNL     1      10.268  -1.110  23.251  0.00  0.00    -0.248 NA
ATOM      6  C   UNL     1       9.488  -1.704  24.214  0.00  0.00    +0.147 A 
ENDROOT
BRANCH   6   7
ATOM      7  C   UNL     1       9.104  -3.121  23.891  0.00  0.00    +0.270 C 
ATOM      8  N   UNL     1       8.038  -3.176  23.022  0.00  0.00    -0.259 N 
ATOM      9  H   UNL     1       7.628  -2.295  22.728  0.00  0.00    +0.157 HD
ATOM     10  C   UNL     1       7.482  -4.329  22.559  0.00  0.00    +0.165 A 
ATOM     11  S   UNL     1       6.077  -4.091  21.613  0.00  0.00    -0.061 S 
ATOM     12  C   UNL     1       5.940  -5.792  21.426  0.00  0.00    +0.068 A 
ATOM     13  C   UNL     1       6.991  -6.409  22.073  0.00  0.00    +0.120 A 
ATOM     14  N   UNL     1       7.863  -5.567  22.733  0.00  0.00    -0.233 NA
ATOM     15  O   UNL     1       9.707  -4.056  24.405  0.00  0.00    -0.268 OA
ENDBRANCH   6   7
BRANCH   1  17
ATOM     16  C   UNL     1       6.798  -1.776  26.088  0.00  0.00    +0.405 C 
ATOM     17  N   UNL     1       8.151  -1.646  26.303  0.00  0.00    -0.249 N 
ATOM     18  H   UNL     1       8.553  -2.345  26.928  0.00  0.00    +0.158 HD
ATOM     19  O   UNL     1       6.228  -1.439  25.060  0.00  0.00    -0.226 OA
BRANCH  16  20
ATOM     20  O   UNL     1       6.189  -2.387  27.143  0.00  0.00    -0.444 OA
BRANCH  20  22
ATOM     21  C   UNL     1       4.288  -3.504  26.090  0.00  0.00    +0.055 C 
ATOM     22  C   UNL     1       5.551  -3.683  26.942  0.00  0.00    +0.107 C 
ATOM     23  C   UNL     1       6.545  -4.546  26.146  0.00  0.00    +0.055 C 
ATOM     24  C   UNL     1       5.257  -4.421  28.258  0.00  0.00    +0.055 C 
ENDBRANCH  20  22
ENDBRANCH  16  20
ENDBRANCH   1  17
TORSDOF 4
ENDMDL
MODEL 7
REMARK VINA RESULT:      -5.9      1.743      2.467
REMARK  Name = 
REMARK  7 active torsions:
REMARK  status: ('A' for Active; 'I' for Inactive)
REMARK    1  A    between atoms: C_1  and  C_2
REMARK    2  A    between atoms: C_2  and  C_3
REMARK    3  A    between atoms: C_2  and  C_4
REMARK    4  A    between atoms: C_2  and  O_5
REMARK    5  A    between atoms: O_5  and  C_6
REMARK    6  A    between atoms: N_8  and  C_9
REMARK    7  A    between atoms: C_10  and  C_15
REMARK                            x       y       z     vdW  Elec       q    Type
REMARK                         _______ _______ _______ _____ _____    ______ ____
ROOT
ATOM      1  C   UNL     1       7.717  -3.722  23.175  0.00  0.00    +0.067 A 
ATOM      2  C   UNL     1       8.045  -2.831  22.146  0.00  0.00    +0.027 A 
ATOM      3  C   UNL     1       9.075  -1.906  22.309  0.00  0.00    +0.022 A 
ATOM      4  C   UNL     1       9.771  -1.899  23.503  0.00  0.00    +0.112 A 
ATOM      5  N   UNL     1       9.495  -2.726  24.532  0.00  0.00    -0.248 NA
ATOM      6  C   UNL     1       8.457  -3.609  24.359  0.00  0.00    +0.147 A 
ENDROOT
BRANCH   6   7
ATOM      7  C   UNL     1       8.244  -4.530  25.528  0.00  0.00    +0.270 C 
ATOM      8  N   UNL     1       7.083  -4.233  26.207  0.00  0.00    -0.259 N 
ATOM      9  H   UNL     1       6.536  -3.444  25.877  0.00  0.00    +0.157 HD
ATOM     10  C   UNL     1       6.641  -4.905  27.305  0.00  0.00    +0.165 A 
ATOM     11  S   UNL     1       5.249  -4.220  28.024  0.00  0.00    -0.061 S 
ATOM     12  C   UNL     1       5.289  -5.449  29.223  0.00  0.00    +0.068 A 
ATOM     13  C   UNL     1       6.341  -6.304  28.966  0.00  0.00    +0.120 A 
ATOM     14  N   UNL     1       7.121  -5.980  27.874  0.00  0.00    -0.233 NA
ATOM     15  O   UNL     1       9.068  -5.398  25.789  0.00  0.00    -0.268 OA
ENDBRANCH   6   7
BRANCH   1  17
ATOM     16  C   UNL     1       5.456  -4.331  22.482  0.00  0.00    +0.405 C 
ATOM     17  N   UNL     1       6.688  -4.679  22.987  0.00  0.00    -0.249 N 
ATOM     18  H   UNL     1       6.961  -5.647  22.818  0.00  0.00    +0.158 HD
ATOM     19  O   UNL     1       5.159  -3.206  22.107  0.00  0.00    -0.226 OA
BRANCH  16  20
ATOM     20  O   UNL     1       4.636  -5.416  22.394  0.00  0.00    -0.444 OA
BRANCH  20  22
ATOM     21  C   UNL     1       3.510  -4.539  24.377  0.00  0.00    +0.055 C 
ATOM     22  C   UNL     1       3.824  -5.789  23.546  0.00  0.00    +0.107 C 
ATOM     23  C   UNL     1       2.497  -6.339  22.991  0.00  0.00    +0.055 C 
ATOM     24  C   UNL     1       4.458  -6.902  24.396  0.00  0.00    +0.055 C 
ENDBRANCH  20  22
ENDBRANCH  16  20
ENDBRANCH   1  17
TORSDOF 4
ENDMDL
MODEL 8
REMARK VINA RESULT:      -5.7      4.827      6.582
REMARK  Name = 
REMARK  7 active torsions:
REMARK  status: ('A' for Active; 'I' for Inactive)
REMARK    1  A    between atoms: C_1  and  C_2
REMARK    2  A    between atoms: C_2  and  C_3
REMARK    3  A    between atoms: C_2  and  C_4
REMARK    4  A    between atoms: C_2  and  O_5
REMARK    5  A    between atoms: O_5  and  C_6
REMARK    6  A    between atoms: N_8  and  C_9
REMARK    7  A    between atoms: C_10  and  C_15
REMARK                            x       y       z     vdW  Elec       q    Type
REMARK                         _______ _______ _______ _____ _____    ______ ____
ROOT
ATOM      1  C   UNL     1      10.575   3.354  23.771  0.00  0.00    +0.067 A 
ATOM      2  C   UNL     1      11.733   4.028  23.366  0.00  0.00    +0.027 A 
ATOM      3  C   UNL     1      11.757   5.420  23.298  0.00  0.00    +0.022 A 
ATOM      4  C   UNL     1      10.617   6.117  23.654  0.00  0.00    +0.112 A 
ATOM      5  N   UNL     1       9.471   5.522  24.044  0.00  0.00    -0.248 NA
ATOM      6  C   UNL     1       9.462   4.149  24.073  0.00  0.00    +0.147 A 
ENDROOT
BRANCH   6   7
ATOM      7  C   UNL     1       8.168   3.563  24.565  0.00  0.00    +0.270 C 
ATOM      8  N   UNL     1       7.109   3.916  23.759  0.00  0.00    -0.259 N 
ATOM      9  H   UNL     1       7.302   4.527  22.973  0.00  0.00    +0.157 HD
ATOM     10  C   UNL     1       5.821   3.525  23.967  0.00  0.00    +0.165 A 
ATOM     11  S   UNL     1       4.698   4.238  22.892  0.00  0.00    -0.061 S 
ATOM     12  C   UNL     1       3.433   3.389  23.685  0.00  0.00    +0.068 A 
ATOM     13  C   UNL     1       3.966   2.606  24.687  0.00  0.00    +0.120 A 
ATOM     14  N   UNL     1       5.333   2.698  24.854  0.00  0.00    -0.233 NA
ATOM     15  O   UNL     1       8.145   2.884  25.585  0.00  0.00    -0.268 OA
ENDBRANCH   6   7
BRANCH   1  17
ATOM     16  C   UNL     1      10.207   1.142  22.803  0.00  0.00    +0.405 C 
ATOM     17  N   UNL     1      10.570   1.939  23.864  0.00  0.00    -0.249 N 
ATOM     18  H   UNL     1      11.211   1.502  24.527  0.00  0.00    +0.158 HD
ATOM     19  O   UNL     1       9.914   1.564  21.694  0.00  0.00    -0.226 OA
BRANCH  16  20
ATOM     20  O   UNL     1      10.280  -0.178  23.132  0.00  0.00    -0.444 OA
BRANCH  20  22
ATOM     21  C   UNL     1       8.814  -1.795  22.035  0.00  0.00    +0.055 C 
ATOM     22  C   UNL     1       9.049  -0.942  23.288  0.00  0.00    +0.107 C 
ATOM     23  C   UNL     1       9.267  -1.894  24.478  0.00  0.00    +0.055 C 
ATOM     24  C   UNL     1       7.832  -0.065  23.623  0.00  0.00    +0.055 C 
ENDBRANCH  20  22
ENDBRANCH  16  20
ENDBRANCH   1  17
TORSDOF 4
ENDMDL
MODEL 9
REMARK VINA RESULT:      -5.7      3.387      3.947
REMARK  Name = 
REMARK  7 active torsions:
REMARK  status: ('A' for Active; 'I' for Inactive)
REMARK    1  A    between atoms: C_1  and  C_2
REMARK    2  A    between atoms: C_2  and  C_3
REMARK    3  A    between atoms: C_2  and  C_4
REMARK    4  A    between atoms: C_2  and  O_5
REMARK    5  A    between atoms: O_5  and  C_6
REMARK    6  A    between atoms: N_8  and  C_9
REMARK    7  A    between atoms: C_10  and  C_15
REMARK                            x       y       z     vdW  Elec       q    Type
REMARK                         _______ _______ _______ _____ _____    ______ ____
ROOT
ATOM      1  C   UNL     1       8.964   0.487  22.956  0.00  0.00    +0.067 A 
ATOM      2  C   UNL     1       9.726   1.040  21.920  0.00  0.00    +0.027 A 
ATOM      3  C   UNL     1      10.443   2.218  22.118  0.00  0.00    +0.022 A 
ATOM      4  C   UNL     1      10.394   2.818  23.362  0.00  0.00    +0.112 A 
ATOM      5  N   UNL     1       9.672   2.337  24.395  0.00  0.00    -0.248 NA
ATOM      6  C   UNL     1       8.950   1.190  24.167  0.00  0.00    +0.147 A 
ENDROOT
BRANCH   6   7
ATOM      7  C   UNL     1       8.212   0.689  25.377  0.00  0.00    +0.270 C 
ATOM      8  N   UNL     1       7.749   1.725  26.158  0.00  0.00    -0.259 N 
ATOM      9  H   UNL     1       7.969   2.670  25.860  0.00  0.00    +0.157 HD
ATOM     10  C   UNL     1       7.047   1.563  27.313  0.00  0.00    +0.165 A 
ATOM     11  S   UNL     1       6.734   3.023  28.146  0.00  0.00    -0.061 S 
ATOM     12  C   UNL     1       5.927   2.128  29.369  0.00  0.00    +0.068 A 
ATOM     13  C   UNL     1       5.932   0.790  29.035  0.00  0.00    +0.120 A 
ATOM     14  N   UNL     1       6.587   0.469  27.863  0.00  0.00    -0.233 NA
ATOM     15  O   UNL     1       8.105  -0.514  25.581  0.00  0.00    -0.268 OA
ENDBRANCH   6   7
BRANCH   1  17
ATOM     16  C   UNL     1       8.909  -1.893  22.410  0.00  0.00    +0.405 C 
ATOM     17  N   UNL     1       8.262  -0.729  22.753  0.00  0.00    -0.249 N 
ATOM     18  H   UNL     1       7.381  -0.861  23.250  0.00  0.00    +0.158 HD
ATOM     19  O   UNL     1      10.123  -2.000  22.305  0.00  0.00    -0.226 OA
BRANCH  16  20
ATOM     20  O   UNL     1       8.029  -2.923  22.269  0.00  0.00    -0.444 OA
BRANCH  20  22
ATOM     21  C   UNL     1       6.384  -3.291  24.038  0.00  0.00    +0.055 C 
ATOM     22  C   UNL     1       7.712  -3.753  23.425  0.00  0.00    +0.107 C 
ATOM     23  C   UNL     1       7.522  -5.187  22.900  0.00  0.00    +0.055 C 
ATOM     24  C   UNL     1       8.843  -3.795  24.466  0.00  0.00    +0.055 C 
ENDBRANCH  20  22
ENDBRANCH  16  20
ENDBRANCH   1  17
TORSDOF 4
ENDMDL
