MODEL 1
REMARK VINA RESULT:      -6.1      0.000      0.000
REMARK  Name = 
REMARK  5 active torsions:
REMARK  status: ('A' for Active; 'I' for Inactive)
REMARK    1  A    between atoms: O5*_1  and  C5*_2
REMARK    2  A    between atoms: C5*_2  and  C4*_3
REMARK    3  A    between atoms: C1*_6  and  N1_14
REMARK    4  A    between atoms: C2*_8  and  O2*_10
REMARK    5  A    between atoms: C3*_11  and  O3*_13
REMARK                            x       y       z     vdW  Elec       q    Type
REMARK                         _______ _______ _______ _____ _____    ______ ____
ROOT
ATOM      1  C4*   U A   1       8.867  -1.087  23.370  0.00  0.00    +0.177 C 
ATOM      2  C3*   U A   1       7.538  -1.351  22.665  0.00  0.00    +0.178 C 
ATOM      3  C2*   U A   1       7.146  -2.772  23.067  0.00  0.00    +0.195 C 
ATOM      4  C1*   U A   1       8.290  -3.244  23.986  0.00  0.00    +0.255 C 
ATOM      5  O4*   U A   1       8.954  -2.053  24.442  0.00  0.00    -0.346 OA
ENDROOT
BRANCH   4   6
ATOM      6  N1    U A   1       7.865  -4.078  25.112  0.00  0.00    -0.271 N 
ATOM      7  C2    U A   1       8.747  -5.072  25.527  0.00  0.00    +0.331 A 
ATOM      8  O2    U A   1       9.800  -5.329  24.945  0.00  0.00    -0.246 OA
ATOM      9  N3    U A   1       8.380  -5.774  26.642  0.00  0.00    -0.275 N 
ATOM     10  H3    U A   1       9.015  -6.485  26.967  0.00  0.00    +0.173 HD
ATOM     11  C4    U A   1       7.266  -5.551  27.399  0.00  0.00    +0.254 A 
ATOM     12  O4    U A   1       7.019  -6.172  28.425  0.00  0.00    -0.268 OA
ATOM     13  C5    U A   1       6.368  -4.494  26.914  0.00  0.00    +0.088 A 
ATOM     14  C6    U A   1       6.704  -3.814  25.815  0.00  0.00    +0.098 A 
ENDBRANCH   4   6
BRANCH   2  15
ATOM     15  O3*   U A   1       6.546  -0.422  23.132  0.00  0.00    -0.386 OA
ATOM     16  H3*   U A   1       6.367  -0.604  24.072  0.00  0.00    +0.210 HD
ENDBRANCH   2  15
BRANCH   3  17
ATOM     17  O2*   U A   1       7.026  -3.599  21.907  0.00  0.00    -0.385 OA
ATOM     18  H2*   U A   1       6.917  -4.521  22.234  0.00  0.00    +0.210 HD
ENDBRANCH   3  17
BRANCH   1  19
ATOM     19  C5*   U A   1      10.074  -1.270  22.443  0.00  0.00    +0.190 C 
BRANCH  19  20
ATOM     20  O5*   U A   1       9.676  -1.069  21.086  0.00  0.00    -0.392 OA
ATOM     21  H5*   U A   1      10.123  -0.257  20.782  0.00  0.00    +0.210 HD
ENDBRANCH  19  20
ENDBRANCH   1  19
TORSDOF 5
ENDMDL
MODEL 2
REMARK VINA RESULT:      -5.9      2.124      5.697
REMARK  Name = 
REMARK  5 active torsions:
REMARK  status: ('A' for Active; 'I' for Inactive)
REMARK    1  A    between atoms: O5*_1  and  C5*_2
REMARK    2  A    between atoms: C5*_2  and  C4*_3
REMARK    3  A    between atoms: C1*_6  and  N1_14
REMARK    4  A    between atoms: C2*_8  and  O2*_10
REMARK    5  A    between atoms: C3*_11  and  O3*_13
REMARK                            x       y       z     vdW  Elec       q    Type
REMARK                         _______ _______ _______ _____ _____    ______ ____
ROOT
ATOM      1  C4*   U A   1       8.719  -4.385  26.508  0.00  0.00    +0.177 C 
ATOM      2  C3*   U A   1       9.074  -4.968  25.142  0.00  0.00    +0.178 C 
ATOM      3  C2*   U A   1       8.707  -3.880  24.134  0.00  0.00    +0.195 C 
ATOM      4  C1*   U A   1       8.153  -2.726  24.994  0.00  0.00    +0.255 C 
ATOM      5  O4*   U A   1       8.639  -2.953  26.328  0.00  0.00    -0.346 OA
ENDROOT
BRANCH   4   6
ATOM      6  N1    U A   1       8.507  -1.386  24.521  0.00  0.00    -0.271 N 
ATOM      7  C2    U A   1       7.664  -0.808  23.577  0.00  0.00    +0.331 A 
ATOM      8  O2    U A   1       6.709  -1.397  23.071  0.00  0.00    -0.246 OA
ATOM      9  N3    U A   1       7.952   0.481  23.222  0.00  0.00    -0.275 N 
ATOM     10  H3    U A   1       7.341   0.921  22.553  0.00  0.00    +0.173 HD
ATOM     11  C4    U A   1       8.949   1.252  23.746  0.00  0.00    +0.254 A 
ATOM     12  O4    U A   1       9.122   2.423  23.434  0.00  0.00    -0.268 OA
ATOM     13  C5    U A   1       9.812   0.591  24.735  0.00  0.00    +0.088 A 
ATOM     14  C6    U A   1       9.554  -0.673  25.076  0.00  0.00    +0.098 A 
ENDBRANCH   4   6
BRANCH   2  15
ATOM     15  O3*   U A   1      10.484  -5.235  25.077  0.00  0.00    -0.386 OA
ATOM     16  H3*   U A   1      10.812  -4.961  24.202  0.00  0.00    +0.210 HD
ENDBRANCH   2  15
BRANCH   3  17
ATOM     17  O2*   U A   1       7.727  -4.367  23.213  0.00  0.00    -0.385 OA
ATOM     18  H2*   U A   1       6.865  -4.346  23.687  0.00  0.00    +0.210 HD
ENDBRANCH   3  17
BRANCH   1  19
ATOM     19  C5*   U A   1       7.370  -4.891  27.035  0.00  0.00    +0.190 C 
BRANCH  19  20
ATOM     20  O5*   U A   1       7.570  -6.068  27.818  0.00  0.00    -0.392 OA
ATOM     21  H5*   U A   1       7.842  -6.772  27.200  0.00  0.00    +0.210 HD
ENDBRANCH  19  20
ENDBRANCH   1  19
TORSDOF 5
ENDMDL
MODEL 3
REMARK VINA RESULT:      -5.9      2.567      3.463
REMARK  Name = 
REMARK  5 active torsions:
REMARK  status: ('A' for Active; 'I' for Inactive)
REMARK    1  A    between atoms: O5*_1  and  C5*_2
REMARK    2  A    between atoms: C5*_2  and  C4*_3
REMARK    3  A    between atoms: C1*_6  and  N1_14
REMARK    4  A    between atoms: C2*_8  and  O2*_10
REMARK    5  A    between atoms: C3*_11  and  O3*_13
REMARK                            x       y       z     vdW  Elec       q    Type
REMARK                         _______ _______ _______ _____ _____    ______ ____
ROOT
ATOM      1  C4*   U A   1       9.226   0.941  23.367  0.00  0.00    +0.177 C 
ATOM      2  C3*   U A   1       9.676   0.571  21.956  0.00  0.00    +0.178 C 
ATOM      3  C2*   U A   1       9.448  -0.935  21.843  0.00  0.00    +0.195 C 
ATOM      4  C1*   U A   1       8.878  -1.344  23.215  0.00  0.00    +0.255 C 
ATOM      5  O4*   U A   1       8.374  -0.138  23.814  0.00  0.00    -0.346 OA
ENDROOT
BRANCH   4   6
ATOM      6  N1    U A   1       7.845  -2.381  23.164  0.00  0.00    -0.271 N 
ATOM      7  C2    U A   1       8.181  -3.630  23.680  0.00  0.00    +0.331 A 
ATOM      8  O2    U A   1       9.308  -3.915  24.084  0.00  0.00    -0.246 OA
ATOM      9  N3    U A   1       7.175  -4.556  23.717  0.00  0.00    -0.275 N 
ATOM     10  H3    U A   1       7.396  -5.459  24.104  0.00  0.00    +0.173 HD
ATOM     11  C4    U A   1       5.879  -4.346  23.345  0.00  0.00    +0.254 A 
ATOM     12  O4    U A   1       5.005  -5.196  23.458  0.00  0.00    -0.268 OA
ATOM     13  C5    U A   1       5.580  -3.013  22.804  0.00  0.00    +0.088 A 
ATOM     14  C6    U A   1       6.557  -2.105  22.744  0.00  0.00    +0.098 A 
ENDBRANCH   4   6
BRANCH   2  15
ATOM     15  O3*   U A   1       8.865   1.259  20.989  0.00  0.00    -0.386 OA
ATOM     16  H3*   U A   1       8.309   0.606  20.529  0.00  0.00    +0.210 HD
ENDBRANCH   2  15
BRANCH   3  17
ATOM     17  O2*   U A   1      10.681  -1.604  21.565  0.00  0.00    -0.385 OA
ATOM     18  H2*   U A   1      11.022  -1.928  22.429  0.00  0.00    +0.210 HD
ENDBRANCH   3  17
BRANCH   1  19
ATOM     19  C5*   U A   1      10.399   1.079  24.345  0.00  0.00    +0.190 C 
BRANCH  19  20
ATOM     20  O5*   U A   1      10.004   0.620  25.639  0.00  0.00    -0.392 OA
ATOM     21  H5*   U A   1       9.958   1.408  26.212  0.00  0.00    +0.210 HD
ENDBRANCH  19  20
ENDBRANCH   1  19
TORSDOF 5
ENDMDL
MODEL 4
REMARK VINA RESULT:      -5.9      2.442      5.179
REMARK  Name = 
REMARK  5 active torsions:
REMARK  status: ('A' for Active; 'I' for Inactive)
REMARK    1  A    between atoms: O5*_1  and  C5*_2
REMARK    2  A    between atoms: C5*_2  and  C4*_3
REMARK    3  A    between atoms: C1*_6  and  N1_14
REMARK    4  A    between atoms: C2*_8  and  O2*_10
REMARK    5  A    between atoms: C3*_11  and  O3*_13
REMARK                            x       y       z     vdW  Elec       q    Type
REMARK                         _______ _______ _______ _____ _____    ______ ____
ROOT
ATOM      1  C4*   U A   1       7.089  -4.807  23.657  0.00  0.00    +0.177 C 
ATOM      2  C3*   U A   1       7.850  -5.300  24.885  0.00  0.00    +0.178 C 
ATOM      3  C2*   U A   1       9.058  -4.373  25.008  0.00  0.00    +0.195 C 
ATOM      4  C1*   U A   1       8.917  -3.395  23.825  0.00  0.00    +0.255 C 
ATOM      5  O4*   U A   1       7.539  -3.453  23.420  0.00  0.00    -0.346 OA
ENDROOT
BRANCH   4   6
ATOM      6  N1    U A   1       9.325  -2.019  24.117  0.00  0.00    -0.271 N 
ATOM      7  C2    U A   1      10.089  -1.370  23.151  0.00  0.00    +0.331 A 
ATOM      8  O2    U A   1      10.499  -1.920  22.130  0.00  0.00    -0.246 OA
ATOM      9  N3    U A   1      10.376  -0.055  23.394  0.00  0.00    -0.275 N 
ATOM     10  H3    U A   1      10.912   0.435  22.697  0.00  0.00    +0.173 HD
ATOM     11  C4    U A   1       9.940   0.675  24.461  0.00  0.00    +0.254 A 
ATOM     12  O4    U A   1      10.177   1.869  24.596  0.00  0.00    -0.268 OA
ATOM     13  C5    U A   1       9.142  -0.059  25.453  0.00  0.00    +0.088 A 
ATOM     14  C6    U A   1       8.871  -1.349  25.238  0.00  0.00    +0.098 A 
ENDBRANCH   4   6
BRANCH   2  15
ATOM     15  O3*   U A   1       7.023  -5.178  26.054  0.00  0.00    -0.386 OA
ATOM     16  H3*   U A   1       6.141  -4.867  25.780  0.00  0.00    +0.210 HD
ENDBRANCH   2  15
BRANCH   3  17
ATOM     17  O2*   U A   1      10.271  -5.127  24.926  0.00  0.00    -0.385 OA
ATOM     18  H2*   U A   1      10.663  -5.120  25.829  0.00  0.00    +0.210 HD
ENDBRANCH   3  17
BRANCH   1  19
ATOM     19  C5*   U A   1       7.375  -5.647  22.406  0.00  0.00    +0.190 C 
BRANCH  19  20
ATOM     20  O5*   U A   1       6.311  -6.576  22.196  0.00  0.00    -0.392 OA
ATOM     21  H5*   U A   1       5.720  -6.503  22.970  0.00  0.00    +0.210 HD
ENDBRANCH  19  20
ENDBRANCH   1  19
TORSDOF 5
ENDMDL
MODEL 5
REMARK VINA RESULT:      -5.7      2.428      5.667
REMARK  Name = 
REMARK  5 active torsions:
REMARK  status: ('A' for Active; 'I' for Inactive)
REMARK    1  A    between atoms: O5*_1  and  C5*_2
REMARK    2  A    between atoms: C5*_2  and  C4*_3
REMARK    3  A    between atoms: C1*_6  and  N1_14
REMARK    4  A    between atoms: C2*_8  and  O2*_10
REMARK    5  A    between atoms: C3*_11  and  O3*_13
REMARK                            x       y       z     vdW  Elec       q    Type
REMARK                         _______ _______ _______ _____ _____    ______ ____
ROOT
ATOM      1  C4*   U A   1       9.208  -4.901  24.683  0.00  0.00    +0.177 C 
ATOM      2  C3*   U A   1       7.741  -4.813  24.271  0.00  0.00    +0.178 C 
ATOM      3  C2*   U A   1       7.446  -3.318  24.156  0.00  0.00    +0.195 C 
ATOM      4  C1*   U A   1       8.778  -2.632  24.516  0.00  0.00    +0.255 C 
ATOM      5  O4*   U A   1       9.800  -3.627  24.342  0.00  0.00    -0.346 OA
ENDROOT
BRANCH   4   6
ATOM      6  N1    U A   1       9.074  -1.426  23.740  0.00  0.00    -0.271 N 
ATOM      7  C2    U A   1       9.387  -0.275  24.458  0.00  0.00    +0.331 A 
ATOM      8  O2    U A   1       9.338  -0.209  25.685  0.00  0.00    -0.246 OA
ATOM      9  N3    U A   1       9.759   0.813  23.718  0.00  0.00    -0.275 N 
ATOM     10  H3    U A   1      10.006   1.649  24.222  0.00  0.00    +0.173 HD
ATOM     11  C4    U A   1       9.898   0.849  22.361  0.00  0.00    +0.254 A 
ATOM     12  O4    U A   1      10.295   1.836  21.755  0.00  0.00    -0.268 OA
ATOM     13  C5    U A   1       9.551  -0.390  21.652  0.00  0.00    +0.088 A 
ATOM     14  C6    U A   1       9.167  -1.455  22.360  0.00  0.00    +0.098 A 
ENDBRANCH   4   6
BRANCH   2  15
ATOM     15  O3*   U A   1       7.553  -5.446  22.995  0.00  0.00    -0.386 OA
ATOM     16  H3*   U A   1       6.843  -4.979  22.518  0.00  0.00    +0.210 HD
ENDBRANCH   2  15
BRANCH   3  17
ATOM     17  O2*   U A   1       6.401  -2.948  25.059  0.00  0.00    -0.385 OA
ATOM     18  H2*   U A   1       6.277  -1.977  24.958  0.00  0.00    +0.210 HD
ENDBRANCH   3  17
BRANCH   1  19
ATOM     19  C5*   U A   1       9.388  -5.142  26.187  0.00  0.00    +0.190 C 
BRANCH  19  20
ATOM     20  O5*   U A   1       8.246  -5.823  26.706  0.00  0.00    -0.392 OA
ATOM     21  H5*   U A   1       8.298  -5.756  27.678  0.00  0.00    +0.210 HD
ENDBRANCH  19  20
ENDBRANCH   1  19
TORSDOF 5
ENDMDL
MODEL 6
REMARK VINA RESULT:      -5.6      1.990      2.738
REMARK  Name = 
REMARK  5 active torsions:
REMARK  status: ('A' for Active; 'I' for Inactive)
REMARK    1  A    between atoms: O5*_1  and  C5*_2
REMARK    2  A    between atoms: C5*_2  and  C4*_3
REMARK    3  A    between atoms: C1*_6  and  N1_14
REMARK    4  A    between atoms: C2*_8  and  O2*_10
REMARK    5  A    between atoms: C3*_11  and  O3*_13
REMARK                            x       y       z     vdW  Elec       q    Type
REMARK                         _______ _______ _______ _____ _____    ______ ____
ROOT
ATOM      1  C4*   U A   1       9.772   0.688  23.416  0.00  0.00    +0.177 C 
ATOM      2  C3*   U A   1       8.492   1.281  23.999  0.00  0.00    +0.178 C 
ATOM      3  C2*   U A   1       7.545   0.094  24.177  0.00  0.00    +0.195 C 
ATOM      4  C1*   U A   1       8.349  -1.121  23.675  0.00  0.00    +0.255 C 
ATOM      5  O4*   U A   1       9.732  -0.727  23.709  0.00  0.00    -0.346 OA
ENDROOT
BRANCH   4   6
ATOM      6  N1    U A   1       8.132  -2.354  24.435  0.00  0.00    -0.271 N 
ATOM      7  C2    U A   1       7.896  -3.513  23.700  0.00  0.00    +0.331 A 
ATOM      8  O2    U A   1       7.778  -3.526  22.475  0.00  0.00    -0.246 OA
ATOM      9  N3    U A   1       7.796  -4.672  24.420  0.00  0.00    -0.275 N 
ATOM     10  H3    U A   1       7.644  -5.522  23.903  0.00  0.00    +0.173 HD
ATOM     11  C4    U A   1       7.955  -4.792  25.770  0.00  0.00    +0.254 A 
ATOM     12  O4    U A   1       7.916  -5.867  26.355  0.00  0.00    -0.268 OA
ATOM     13  C5    U A   1       8.197  -3.538  26.497  0.00  0.00    +0.088 A 
ATOM     14  C6    U A   1       8.278  -2.397  25.809  0.00  0.00    +0.098 A 
ENDBRANCH   4   6
BRANCH   2  15
ATOM     15  O3*   U A   1       8.768   1.878  25.276  0.00  0.00    -0.386 OA
ATOM     16  H3*   U A   1       9.713   2.108  25.314  0.00  0.00    +0.210 HD
ENDBRANCH   2  15
BRANCH   3  17
ATOM     17  O2*   U A   1       6.355   0.291  23.410  0.00  0.00    -0.385 OA
ATOM     18  H2*   U A   1       5.612   0.327  24.054  0.00  0.00    +0.210 HD
ENDBRANCH   3  17
BRANCH   1  19
ATOM     19  C5*   U A   1       9.873   0.873  21.897  0.00  0.00    +0.190 C 
BRANCH  19  20
ATOM     20  O5*   U A   1      10.174   2.237  21.597  0.00  0.00    -0.392 OA
ATOM     21  H5*   U A   1       9.490   2.777  22.036  0.00  0.00    +0.210 HD
ENDBRANCH  19  20
ENDBRANCH   1  19
TORSDOF 5
ENDMDL
MODEL 7
REMARK VINA RESULT:      -5.6      3.216      4.294
REMARK  Name = 
REMARK  5 active torsions:
REMARK  status: ('A' for Active; 'I' for Inactive)
REMARK    1  A    between atoms: O5*_1  and  C5*_2
REMARK    2  A    between atoms: C5*_2  and  C4*_3
REMARK    3  A    between atoms: C1*_6  and  N1_14
REMARK    4  A    between atoms: C2*_8  and  O2*_10
REMARK    5  A    between atoms: C3*_11  and  O3*_13
REMARK                            x       y       z     vdW  Elec       q    Type
REMARK                         _______ _______ _______ _____ _____    ______ ____
ROOT
ATOM      1  C4*   U A   1       9.743   2.917  23.889  0.00  0.00    +0.177 C 
ATOM      2  C3*   U A   1       8.769   2.706  22.733  0.00  0.00    +0.178 C 
ATOM      3  C2*   U A   1       8.793   1.204  22.456  0.00  0.00    +0.195 C 
ATOM      4  C1*   U A   1       9.796   0.638  23.481  0.00  0.00    +0.255 C 
ATOM      5  O4*   U A   1       9.907   1.626  24.519  0.00  0.00    -0.346 OA
ENDROOT
BRANCH   4   6
ATOM      6  N1    U A   1       9.435  -0.671  24.031  0.00  0.00    -0.271 N 
ATOM      7  C2    U A   1       9.911  -1.791  23.356  0.00  0.00    +0.331 A 
ATOM      8  O2    U A   1      10.530  -1.729  22.294  0.00  0.00    -0.246 OA
ATOM      9  N3    U A   1       9.650  -3.001  23.938  0.00  0.00    -0.275 N 
ATOM     10  H3    U A   1      10.004  -3.821  23.472  0.00  0.00    +0.173 HD
ATOM     11  C4    U A   1       9.019  -3.195  25.132  0.00  0.00    +0.254 A 
ATOM     12  O4    U A   1       8.868  -4.300  25.637  0.00  0.00    -0.268 OA
ATOM     13  C5    U A   1       8.533  -1.980  25.801  0.00  0.00    +0.088 A 
ATOM     14  C6    U A   1       8.763  -0.793  25.233  0.00  0.00    +0.098 A 
ENDBRANCH   4   6
BRANCH   2  15
ATOM     15  O3*   U A   1       7.446   3.106  23.130  0.00  0.00    -0.386 OA
ATOM     16  H3*   U A   1       7.405   3.123  24.102  0.00  0.00    +0.210 HD
ENDBRANCH   2  15
BRANCH   3  17
ATOM     17  O2*   U A   1       9.216   0.954  21.113  0.00  0.00    -0.385 OA
ATOM     18  H2*   U A   1      10.199   0.996  21.119  0.00  0.00    +0.210 HD
ENDBRANCH   3  17
BRANCH   1  19
ATOM     19  C5*   U A   1      11.116   3.415  23.424  0.00  0.00    +0.190 C 
BRANCH  19  20
ATOM     20  O5*   U A   1      11.042   4.807  23.110  0.00  0.00    -0.392 OA
ATOM     21  H5*   U A   1      11.149   5.288  23.953  0.00  0.00    +0.210 HD
ENDBRANCH  19  20
ENDBRANCH   1  19
TORSDOF 5
ENDMDL
MODEL 8
REMARK VINA RESULT:      -5.6      1.904      5.722
REMARK  Name = 
REMARK  5 active torsions:
REMARK  status: ('A' for Active; 'I' for Inactive)
REMARK    1  A    between atoms: O5*_1  and  C5*_2
REMARK    2  A    between atoms: C5*_2  and  C4*_3
REMARK    3  A    between atoms: C1*_6  and  N1_14
REMARK    4  A    between atoms: C2*_8  and  O2*_10
REMARK    5  A    between atoms: C3*_11  and  O3*_13
REMARK                            x       y       z     vdW  Elec       q    Type
REMARK                         _______ _______ _______ _____ _____    ______ ____
ROOT
ATOM      1  C4*   U A   1       6.789  -4.814  25.895  0.00  0.00    +0.177 C 
ATOM      2  C3*   U A   1       8.177  -5.397  26.146  0.00  0.00    +0.178 C 
ATOM      3  C2*   U A   1       9.012  -4.980  24.936  0.00  0.00    +0.195 C 
ATOM      4  C1*   U A   1       8.038  -4.175  24.052  0.00  0.00    +0.255 C 
ATOM      5  O4*   U A   1       6.962  -3.766  24.914  0.00  0.00    -0.346 OA
ENDROOT
BRANCH   4   6
ATOM      6  N1    U A   1       8.637  -3.026  23.371  0.00  0.00    -0.271 N 
ATOM      7  C2    U A   1       7.901  -2.452  22.338  0.00  0.00    +0.331 A 
ATOM      8  O2    U A   1       6.838  -2.915  21.926  0.00  0.00    -0.246 OA
ATOM      9  N3    U A   1       8.429  -1.320  21.780  0.00  0.00    -0.275 N 
ATOM     10  H3    U A   1       7.900  -0.882  21.044  0.00  0.00    +0.173 HD
ATOM     11  C4    U A   1       9.570  -0.687  22.180  0.00  0.00    +0.254 A 
ATOM     12  O4    U A   1       9.962   0.361  21.683  0.00  0.00    -0.268 OA
ATOM     13  C5    U A   1      10.310  -1.337  23.271  0.00  0.00    +0.088 A 
ATOM     14  C6    U A   1       9.817  -2.454  23.811  0.00  0.00    +0.098 A 
ENDBRANCH   4   6
BRANCH   2  15
ATOM     15  O3*   U A   1       8.737  -4.830  27.341  0.00  0.00    -0.386 OA
ATOM     16  H3*   U A   1       8.602  -5.456  28.075  0.00  0.00    +0.210 HD
ENDBRANCH   2  15
BRANCH   3  17
ATOM     17  O2*   U A   1       9.510  -6.134  24.255  0.00  0.00    -0.385 OA
ATOM     18  H2*   U A   1       9.623  -6.833  24.939  0.00  0.00    +0.210 HD
ENDBRANCH   3  17
BRANCH   1  19
ATOM     19  C5*   U A   1       5.802  -5.849  25.342  0.00  0.00    +0.190 C 
BRANCH  19  20
ATOM     20  O5*   U A   1       5.328  -6.678  26.404  0.00  0.00    -0.392 OA
ATOM     21  H5*   U A   1       4.462  -6.318  26.673  0.00  0.00    +0.210 HD
ENDBRANCH  19  20
ENDBRANCH   1  19
TORSDOF 5
ENDMDL
MODEL 9
REMARK VINA RESULT:      -5.5      2.095      3.302
REMARK  Name = 
REMARK  5 active torsions:
REMARK  status: ('A' for Active; 'I' for Inactive)
REMARK    1  A    between atoms: O5*_1  and  C5*_2
REMARK    2  A    between atoms: C5*_2  and  C4*_3
REMARK    3  A    between atoms: C1*_6  and  N1_14
REMARK    4  A    between atoms: C2*_8  and  O2*_10
REMARK    5  A    between atoms: C3*_11  and  O3*_13
REMARK                            x       y       z     vdW  Elec       q    Type
REMARK                         _______ _______ _______ _____ _____    ______ ____
ROOT
ATOM      1  C4*   U A   1      10.207   0.004  22.650  0.00  0.00    +0.177 C 
ATOM      2  C3*   U A   1      10.198   0.788  23.960  0.00  0.00    +0.178 C 
ATOM      3  C2*   U A   1       9.228   0.036  24.870  0.00  0.00    +0.195 C 
ATOM      4  C1*   U A   1       8.730  -1.145  24.015  0.00  0.00    +0.255 C 
ATOM      5  O4*   U A   1       9.696  -1.312  22.963  0.00  0.00    -0.346 OA
ENDROOT
BRANCH   4   6
ATOM      6  N1    U A   1       8.531  -2.394  24.754  0.00  0.00    -0.271 N 
ATOM      7  C2    U A   1       7.343  -2.521  25.468  0.00  0.00    +0.331 A 
ATOM      8  O2    U A   1       6.517  -1.615  25.573  0.00  0.00    -0.246 OA
ATOM      9  N3    U A   1       7.128  -3.730  26.069  0.00  0.00    -0.275 N 
ATOM     10  H3    U A   1       6.265  -3.845  26.575  0.00  0.00    +0.173 HD
ATOM     11  C4    U A   1       7.942  -4.822  25.985  0.00  0.00    +0.254 A 
ATOM     12  O4    U A   1       7.668  -5.901  26.494  0.00  0.00    -0.268 OA
ATOM     13  C5    U A   1       9.185  -4.633  25.223  0.00  0.00    +0.088 A 
ATOM     14  C6    U A   1       9.417  -3.451  24.648  0.00  0.00    +0.098 A 
ENDBRANCH   4   6
BRANCH   2  15
ATOM     15  O3*   U A   1      11.513   0.783  24.540  0.00  0.00    -0.386 OA
ATOM     16  H3*   U A   1      12.073   0.165  24.037  0.00  0.00    +0.210 HD
ENDBRANCH   2  15
BRANCH   3  17
ATOM     17  O2*   U A   1       8.153   0.893  25.263  0.00  0.00    -0.385 OA
ATOM     18  H2*   U A   1       8.427   1.313  26.109  0.00  0.00    +0.210 HD
ENDBRANCH   3  17
BRANCH   1  19
ATOM     19  C5*   U A   1       9.313   0.635  21.576  0.00  0.00    +0.190 C 
BRANCH  19  20
ATOM     20  O5*   U A   1       9.665   2.009  21.403  0.00  0.00    -0.392 OA
ATOM     21  H5*   U A   1       9.549   2.438  22.272  0.00  0.00    +0.210 HD
ENDBRANCH  19  20
ENDBRANCH   1  19
TORSDOF 5
ENDMDL
