MODEL 1
REMARK VINA RESULT:      -6.1      0.000      0.000
REMARK  Name = 
REMARK  4 active torsions:
REMARK  status: ('A' for Active; 'I' for Inactive)
REMARK    1  A    between atoms: O_1  and  C_2
REMARK    2  A    between atoms: C_2  and  C_4
REMARK    3  A    between atoms: C_7  and  C_9
REMARK    4  A    between atoms: C_10  and  N_15
REMARK                            x       y       z     vdW  Elec       q    Type
REMARK                         _______ _______ _______ _____ _____    ______ ____
ROOT
ATOM      1  C   UNL     1      11.950   4.980  23.152  0.00  0.00    +0.212 A 
ATOM      2  O   UNL     1      11.587   3.658  23.176  0.00  0.00    -0.448 OA
ATOM      3  C   UNL     1      10.352   3.578  23.756  0.00  0.00    +0.142 A 
ATOM      4  C   UNL     1       9.922   4.847  24.096  0.00  0.00    +0.051 A 
ATOM      5  C   UNL     1      10.953   5.742  23.725  0.00  0.00    +0.057 A 
ENDROOT
BRANCH   3   6
ATOM      6  C   UNL     1       9.790   2.239  23.935  0.00  0.00    +0.094 A 
ATOM      7  C   UNL     1      10.616   1.231  24.464  0.00  0.00    +0.018 A 
ATOM      8  C   UNL     1      10.156  -0.081  24.636  0.00  0.00    +0.001 A 
ATOM      9  C   UNL     1       8.854  -0.421  24.278  0.00  0.00    +0.007 A 
ATOM     10  C   UNL     1       8.006   0.551  23.753  0.00  0.00    +0.085 A 
ATOM     11  C   UNL     1       8.478   1.865  23.593  0.00  0.00    +0.284 A 
BRANCH  11  12
ATOM     12  N   UNL     1       7.533   2.835  23.078  0.00  0.00    +0.080 N 
ATOM     13  O   UNL     1       6.784   3.381  23.899  0.00  0.00    +0.041 OA
ATOM     14  O   UNL     1       7.553   3.066  21.861  0.00  0.00    -0.576 OA
ENDBRANCH  11  12
ENDBRANCH   3   6
BRANCH   1  15
ATOM     15  C   UNL     1      13.225   5.353  22.586  0.00  0.00    +0.372 C 
ATOM     16  O   UNL     1      13.393   5.932  21.525  0.00  0.00    -0.242 OA
BRANCH  15  17
ATOM     17  O   UNL     1      14.254   4.952  23.376  0.00  0.00    -0.475 OA
ATOM     18  H   UNL     1      13.955   4.812  24.299  0.00  0.00    +0.296 HD
ENDBRANCH  15  17
ENDBRANCH   1  15
TORSDOF 4
ENDMDL
MODEL 2
REMARK VINA RESULT:      -6.0      4.526      6.445
REMARK  Name = 
REMARK  4 active torsions:
REMARK  status: ('A' for Active; 'I' for Inactive)
REMARK    1  A    between atoms: O_1  and  C_2
REMARK    2  A    between atoms: C_2  and  C_4
REMARK    3  A    between atoms: C_7  and  C_9
REMARK    4  A    between atoms: C_10  and  N_15
REMARK                            x       y       z     vdW  Elec       q    Type
REMARK                         _______ _______ _______ _____ _____    ______ ____
ROOT
ATOM      1  C   UNL     1       8.905   0.163  22.089  0.00  0.00    +0.212 A 
ATOM      2  O   UNL     1       7.949  -0.784  22.352  0.00  0.00    -0.448 OA
ATOM      3  C   UNL     1       8.593  -1.959  22.624  0.00  0.00    +0.142 A 
ATOM      4  C   UNL     1       9.958  -1.762  22.542  0.00  0.00    +0.051 A 
ATOM      5  C   UNL     1      10.157  -0.408  22.183  0.00  0.00    +0.057 A 
ENDROOT
BRANCH   3   6
ATOM      6  C   UNL     1       7.754  -3.129  22.881  0.00  0.00    +0.094 A 
ATOM      7  C   UNL     1       6.690  -3.398  22.000  0.00  0.00    +0.018 A 
ATOM      8  C   UNL     1       5.827  -4.483  22.201  0.00  0.00    +0.001 A 
ATOM      9  C   UNL     1       6.005  -5.330  23.292  0.00  0.00    +0.007 A 
ATOM     10  C   UNL     1       7.048  -5.097  24.184  0.00  0.00    +0.085 A 
ATOM     11  C   UNL     1       7.912  -4.008  23.968  0.00  0.00    +0.284 A 
BRANCH  11  12
ATOM     12  N   UNL     1       8.999  -3.846  24.910  0.00  0.00    +0.080 N 
ATOM     13  O   UNL     1       8.803  -3.089  25.870  0.00  0.00    +0.041 OA
ATOM     14  O   UNL     1      10.038  -4.488  24.704  0.00  0.00    -0.576 OA
ENDBRANCH  11  12
ENDBRANCH   3   6
BRANCH   1  15
ATOM     15  C   UNL     1       8.497   1.510  21.767  0.00  0.00    +0.372 C 
ATOM     16  O   UNL     1       7.351   1.932  21.784  0.00  0.00    -0.242 OA
BRANCH  15  17
ATOM     17  O   UNL     1       9.557   2.276  21.405  0.00  0.00    -0.475 OA
ATOM     18  H   UNL     1       9.281   3.201  21.235  0.00  0.00    +0.296 HD
ENDBRANCH  15  17
ENDBRANCH   1  15
TORSDOF 4
ENDMDL
MODEL 3
REMARK VINA RESULT:      -6.0      6.620      9.808
REMARK  Name = 
REMARK  4 active torsions:
REMARK  status: ('A' for Active; 'I' for Inactive)
REMARK    1  A    between atoms: O_1  and  C_2
REMARK    2  A    between atoms: C_2  and  C_4
REMARK    3  A    between atoms: C_7  and  C_9
REMARK    4  A    between atoms: C_10  and  N_15
REMARK                            x       y       z     vdW  Elec       q    Type
REMARK                         _______ _______ _______ _____ _____    ______ ____
ROOT
ATOM      1  C   UNL     1       5.414  -5.688  22.712  0.00  0.00    +0.212 A 
ATOM      2  O   UNL     1       5.937  -4.491  23.129  0.00  0.00    -0.448 OA
ATOM      3  C   UNL     1       7.213  -4.406  22.646  0.00  0.00    +0.142 A 
ATOM      4  C   UNL     1       7.504  -5.542  21.916  0.00  0.00    +0.051 A 
ATOM      5  C   UNL     1       6.358  -6.371  21.973  0.00  0.00    +0.057 A 
ENDROOT
BRANCH   3   6
ATOM      6  C   UNL     1       7.984  -3.220  23.022  0.00  0.00    +0.094 A 
ATOM      7  C   UNL     1       7.845  -2.057  22.244  0.00  0.00    +0.018 A 
ATOM      8  C   UNL     1       8.575  -0.894  22.526  0.00  0.00    +0.001 A 
ATOM      9  C   UNL     1       9.467  -0.866  23.595  0.00  0.00    +0.007 A 
ATOM     10  C   UNL     1       9.628  -1.998  24.389  0.00  0.00    +0.085 A 
ATOM     11  C   UNL     1       8.885  -3.156  24.099  0.00  0.00    +0.284 A 
BRANCH  11  12
ATOM     12  N   UNL     1       9.072  -4.285  24.987  0.00  0.00    +0.080 N 
ATOM     13  O   UNL     1      10.091  -4.969  24.821  0.00  0.00    +0.041 OA
ATOM     14  O   UNL     1       8.215  -4.477  25.861  0.00  0.00    -0.576 OA
ENDBRANCH  11  12
ENDBRANCH   3   6
BRANCH   1  15
ATOM     15  C   UNL     1       4.064  -6.039  23.085  0.00  0.00    +0.372 C 
ATOM     16  O   UNL     1       3.071  -5.355  22.896  0.00  0.00    -0.242 OA
BRANCH  15  17
ATOM     17  O   UNL     1       4.020  -7.241  23.713  0.00  0.00    -0.475 OA
ATOM     18  H   UNL     1       3.406  -7.217  24.477  0.00  0.00    +0.296 HD
ENDBRANCH  15  17
ENDBRANCH   1  15
TORSDOF 4
ENDMDL
MODEL 4
REMARK VINA RESULT:      -6.0      2.312      2.880
REMARK  Name = 
REMARK  4 active torsions:
REMARK  status: ('A' for Active; 'I' for Inactive)
REMARK    1  A    between atoms: O_1  and  C_2
REMARK    2  A    between atoms: C_2  and  C_4
REMARK    3  A    between atoms: C_7  and  C_9
REMARK    4  A    between atoms: C_10  and  N_15
REMARK                            x       y       z     vdW  Elec       q    Type
REMARK                         _______ _______ _______ _____ _____    ______ ____
ROOT
ATOM      1  C   UNL     1      11.335   4.579  23.486  0.00  0.00    +0.212 A 
ATOM      2  O   UNL     1      11.305   3.324  22.935  0.00  0.00    -0.448 OA
ATOM      3  C   UNL     1      10.075   2.787  23.197  0.00  0.00    +0.142 A 
ATOM      4  C   UNL     1       9.319   3.698  23.909  0.00  0.00    +0.051 A 
ATOM      5  C   UNL     1      10.132   4.838  24.109  0.00  0.00    +0.057 A 
ENDROOT
BRANCH   3   6
ATOM      6  C   UNL     1       9.842   1.415  22.742  0.00  0.00    +0.094 A 
ATOM      7  C   UNL     1       9.317   1.218  21.452  0.00  0.00    +0.018 A 
ATOM      8  C   UNL     1       9.040  -0.065  20.961  0.00  0.00    +0.001 A 
ATOM      9  C   UNL     1       9.279  -1.186  21.751  0.00  0.00    +0.007 A 
ATOM     10  C   UNL     1       9.800  -1.030  23.032  0.00  0.00    +0.085 A 
ATOM     11  C   UNL     1      10.080   0.262  23.511  0.00  0.00    +0.284 A 
BRANCH  11  12
ATOM     12  N   UNL     1      10.657   0.352  24.836  0.00  0.00    +0.080 N 
ATOM     13  O   UNL     1      11.842   0.703  24.912  0.00  0.00    +0.041 OA
ATOM     14  O   UNL     1       9.923   0.091  25.800  0.00  0.00    -0.576 OA
ENDBRANCH  11  12
ENDBRANCH   3   6
BRANCH   1  15
ATOM     15  C   UNL     1      12.529   5.380  23.356  0.00  0.00    +0.372 C 
ATOM     16  O   UNL     1      13.259   5.420  22.378  0.00  0.00    -0.242 OA
BRANCH  15  17
ATOM     17  O   UNL     1      12.777   6.088  24.487  0.00  0.00    -0.475 OA
ATOM     18  H   UNL     1      11.957   6.216  25.008  0.00  0.00    +0.296 HD
ENDBRANCH  15  17
ENDBRANCH   1  15
TORSDOF 4
ENDMDL
MODEL 5
REMARK VINA RESULT:      -5.9      8.604     10.674
REMARK  Name = 
REMARK  4 active torsions:
REMARK  status: ('A' for Active; 'I' for Inactive)
REMARK    1  A    between atoms: O_1  and  C_2
REMARK    2  A    between atoms: C_2  and  C_4
REMARK    3  A    between atoms: C_7  and  C_9
REMARK    4  A    between atoms: C_10  and  N_15
REMARK                            x       y       z     vdW  Elec       q    Type
REMARK                         _______ _______ _______ _____ _____    ______ ____
ROOT
ATOM      1  C   UNL     1       5.994  -5.526  27.838  0.00  0.00    +0.212 A 
ATOM      2  O   UNL     1       6.224  -5.994  26.570  0.00  0.00    -0.448 OA
ATOM      3  C   UNL     1       6.092  -4.941  25.709  0.00  0.00    +0.142 A 
ATOM      4  C   UNL     1       5.784  -3.800  26.424  0.00  0.00    +0.051 A 
ATOM      5  C   UNL     1       5.704  -4.177  27.785  0.00  0.00    +0.057 A 
ENDROOT
BRANCH   3   6
ATOM      6  C   UNL     1       6.244  -5.230  24.282  0.00  0.00    +0.094 A 
ATOM      7  C   UNL     1       5.110  -5.638  23.557  0.00  0.00    +0.018 A 
ATOM      8  C   UNL     1       5.186  -5.960  22.195  0.00  0.00    +0.001 A 
ATOM      9  C   UNL     1       6.403  -5.885  21.522  0.00  0.00    +0.007 A 
ATOM     10  C   UNL     1       7.546  -5.482  22.207  0.00  0.00    +0.085 A 
ATOM     11  C   UNL     1       7.455  -5.155  23.571  0.00  0.00    +0.284 A 
BRANCH  11  12
ATOM     12  N   UNL     1       8.674  -4.707  24.213  0.00  0.00    +0.080 N 
ATOM     13  O   UNL     1       9.426  -5.580  24.666  0.00  0.00    +0.041 OA
ATOM     14  O   UNL     1       8.890  -3.487  24.248  0.00  0.00    -0.576 OA
ENDBRANCH  11  12
ENDBRANCH   3   6
BRANCH   1  15
ATOM     15  C   UNL     1       6.069  -6.438  28.954  0.00  0.00    +0.372 C 
ATOM     16  O   UNL     1       6.445  -6.158  30.081  0.00  0.00    -0.242 OA
BRANCH  15  17
ATOM     17  O   UNL     1       5.690  -7.691  28.596  0.00  0.00    -0.475 OA
ATOM     18  H   UNL     1       5.680  -7.791  27.621  0.00  0.00    +0.296 HD
ENDBRANCH  15  17
ENDBRANCH   1  15
TORSDOF 4
ENDMDL
MODEL 6
REMARK VINA RESULT:      -5.9      4.939      7.669
REMARK  Name = 
REMARK  4 active torsions:
REMARK  status: ('A' for Active; 'I' for Inactive)
REMARK    1  A    between atoms: O_1  and  C_2
REMARK    2  A    between atoms: C_2  and  C_4
REMARK    3  A    between atoms: C_7  and  C_9
REMARK    4  A    between atoms: C_10  and  N_15
REMARK                            x       y       z     vdW  Elec       q    Type
REMARK                         _______ _______ _______ _____ _____    ______ ____
ROOT
ATOM      1  C   UNL     1       8.366  -4.639  24.345  0.00  0.00    +0.212 A 
ATOM      2  O   UNL     1       8.670  -3.305  24.259  0.00  0.00    -0.448 OA
ATOM      3  C   UNL     1       8.073  -2.817  23.130  0.00  0.00    +0.142 A 
ATOM      4  C   UNL     1       7.384  -3.835  22.499  0.00  0.00    +0.051 A 
ATOM      5  C   UNL     1       7.586  -5.005  23.268  0.00  0.00    +0.057 A 
ENDROOT
BRANCH   3   6
ATOM      6  C   UNL     1       8.315  -1.409  22.810  0.00  0.00    +0.094 A 
ATOM      7  C   UNL     1       9.157  -1.104  21.725  0.00  0.00    +0.018 A 
ATOM      8  C   UNL     1       9.457   0.220  21.379  0.00  0.00    +0.001 A 
ATOM      9  C   UNL     1       8.923   1.276  22.112  0.00  0.00    +0.007 A 
ATOM     10  C   UNL     1       8.083   1.013  23.191  0.00  0.00    +0.085 A 
ATOM     11  C   UNL     1       7.784  -0.320  23.524  0.00  0.00    +0.284 A 
BRANCH  11  12
ATOM     12  N   UNL     1       6.873  -0.523  24.631  0.00  0.00    +0.080 N 
ATOM     13  O   UNL     1       7.370  -0.580  25.765  0.00  0.00    +0.041 OA
ATOM     14  O   UNL     1       5.665  -0.605  24.373  0.00  0.00    -0.576 OA
ENDBRANCH  11  12
ENDBRANCH   3   6
BRANCH   1  15
ATOM     15  C   UNL     1       8.874  -5.410  25.455  0.00  0.00    +0.372 C 
ATOM     16  O   UNL     1       8.227  -5.783  26.421  0.00  0.00    -0.242 OA
BRANCH  15  17
ATOM     17  O   UNL     1      10.201  -5.661  25.318  0.00  0.00    -0.475 OA
ATOM     18  H   UNL     1      10.714  -5.253  26.047  0.00  0.00    +0.296 HD
ENDBRANCH  15  17
ENDBRANCH   1  15
TORSDOF 4
ENDMDL
MODEL 7
REMARK VINA RESULT:      -5.9      4.350      6.206
REMARK  Name = 
REMARK  4 active torsions:
REMARK  status: ('A' for Active; 'I' for Inactive)
REMARK    1  A    between atoms: O_1  and  C_2
REMARK    2  A    between atoms: C_2  and  C_4
REMARK    3  A    between atoms: C_7  and  C_9
REMARK    4  A    between atoms: C_10  and  N_15
REMARK                            x       y       z     vdW  Elec       q    Type
REMARK                         _______ _______ _______ _____ _____    ______ ____
ROOT
ATOM      1  C   UNL     1       8.446   0.515  22.864  0.00  0.00    +0.212 A 
ATOM      2  O   UNL     1       8.502  -0.809  22.512  0.00  0.00    -0.448 OA
ATOM      3  C   UNL     1       7.383  -1.417  23.008  0.00  0.00    +0.142 A 
ATOM      4  C   UNL     1       6.609  -0.483  23.670  0.00  0.00    +0.051 A 
ATOM      5  C   UNL     1       7.298   0.750  23.593  0.00  0.00    +0.057 A 
ENDROOT
BRANCH   3   6
ATOM      6  C   UNL     1       7.264  -2.860  22.794  0.00  0.00    +0.094 A 
ATOM      7  C   UNL     1       6.334  -3.321  21.844  0.00  0.00    +0.018 A 
ATOM      8  C   UNL     1       6.145  -4.690  21.608  0.00  0.00    +0.001 A 
ATOM      9  C   UNL     1       6.880  -5.634  22.320  0.00  0.00    +0.007 A 
ATOM     10  C   UNL     1       7.811  -5.214  23.266  0.00  0.00    +0.085 A 
ATOM     11  C   UNL     1       7.997  -3.838  23.488  0.00  0.00    +0.284 A 
BRANCH  11  12
ATOM     12  N   UNL     1       9.008  -3.469  24.458  0.00  0.00    +0.080 N 
ATOM     13  O   UNL     1      10.160  -3.305  24.035  0.00  0.00    +0.041 OA
ATOM     14  O   UNL     1       8.649  -3.324  25.635  0.00  0.00    -0.576 OA
ENDBRANCH  11  12
ENDBRANCH   3   6
BRANCH   1  15
ATOM     15  C   UNL     1       9.514   1.399  22.463  0.00  0.00    +0.372 C 
ATOM     16  O   UNL     1      10.482   1.704  23.143  0.00  0.00    -0.242 OA
BRANCH  15  17
ATOM     17  O   UNL     1       9.308   1.894  21.216  0.00  0.00    -0.475 OA
ATOM     18  H   UNL     1       9.333   2.874  21.217  0.00  0.00    +0.296 HD
ENDBRANCH  15  17
ENDBRANCH   1  15
TORSDOF 4
ENDMDL
MODEL 8
REMARK VINA RESULT:      -5.8      2.472      5.111
REMARK  Name = 
REMARK  4 active torsions:
REMARK  status: ('A' for Active; 'I' for Inactive)
REMARK    1  A    between atoms: O_1  and  C_2
REMARK    2  A    between atoms: C_2  and  C_4
REMARK    3  A    between atoms: C_7  and  C_9
REMARK    4  A    between atoms: C_10  and  N_15
REMARK                            x       y       z     vdW  Elec       q    Type
REMARK                         _______ _______ _______ _____ _____    ______ ____
ROOT
ATOM      1  C   UNL     1       9.729  -0.275  22.986  0.00  0.00    +0.212 A 
ATOM      2  O   UNL     1       9.791   1.066  22.710  0.00  0.00    -0.448 OA
ATOM      3  C   UNL     1      10.332   1.688  23.800  0.00  0.00    +0.142 A 
ATOM      4  C   UNL     1      10.622   0.746  24.769  0.00  0.00    +0.051 A 
ATOM      5  C   UNL     1      10.220  -0.509  24.254  0.00  0.00    +0.057 A 
ENDROOT
BRANCH   3   6
ATOM      6  C   UNL     1      10.441   3.147  23.744  0.00  0.00    +0.094 A 
ATOM      7  C   UNL     1      11.670   3.712  23.360  0.00  0.00    +0.018 A 
ATOM      8  C   UNL     1      11.856   5.101  23.313  0.00  0.00    +0.001 A 
ATOM      9  C   UNL     1      10.815   5.961  23.652  0.00  0.00    +0.007 A 
ATOM     10  C   UNL     1       9.584   5.437  24.035  0.00  0.00    +0.085 A 
ATOM     11  C   UNL     1       9.408   4.042  24.072  0.00  0.00    +0.284 A 
BRANCH  11  12
ATOM     12  N   UNL     1       8.091   3.565  24.441  0.00  0.00    +0.080 N 
ATOM     13  O   UNL     1       7.878   3.377  25.646  0.00  0.00    +0.041 OA
ATOM     14  O   UNL     1       7.266   3.396  23.532  0.00  0.00    -0.576 OA
ENDBRANCH  11  12
ENDBRANCH   3   6
BRANCH   1  15
ATOM     15  C   UNL     1       9.192  -1.177  21.994  0.00  0.00    +0.372 C 
ATOM     16  O   UNL     1       8.605  -2.222  22.223  0.00  0.00    -0.242 OA
BRANCH  15  17
ATOM     17  O   UNL     1       9.443  -0.735  20.735  0.00  0.00    -0.475 OA
ATOM     18  H   UNL     1       9.325  -1.455  20.080  0.00  0.00    +0.296 HD
ENDBRANCH  15  17
ENDBRANCH   1  15
TORSDOF 4
ENDMDL
MODEL 9
REMARK VINA RESULT:      -5.8      4.937      8.140
REMARK  Name = 
REMARK  4 active torsions:
REMARK  status: ('A' for Active; 'I' for Inactive)
REMARK    1  A    between atoms: O_1  and  C_2
REMARK    2  A    between atoms: C_2  and  C_4
REMARK    3  A    between atoms: C_7  and  C_9
REMARK    4  A    between atoms: C_10  and  N_15
REMARK                            x       y       z     vdW  Elec       q    Type
REMARK                         _______ _______ _______ _____ _____    ______ ____
ROOT
ATOM      1  C   UNL     1       7.205  -4.785  22.480  0.00  0.00    +0.212 A 
ATOM      2  O   UNL     1       7.483  -3.486  22.139  0.00  0.00    -0.448 OA
ATOM      3  C   UNL     1       8.297  -2.968  23.107  0.00  0.00    +0.142 A 
ATOM      4  C   UNL     1       8.544  -3.935  24.063  0.00  0.00    +0.051 A 
ATOM      5  C   UNL     1       7.831  -5.092  23.671  0.00  0.00    +0.057 A 
ENDROOT
BRANCH   3   6
ATOM      6  C   UNL     1       8.676  -1.561  22.970  0.00  0.00    +0.094 A 
ATOM      7  C   UNL     1       9.250  -1.138  21.758  0.00  0.00    +0.018 A 
ATOM      8  C   UNL     1       9.666   0.187  21.566  0.00  0.00    +0.001 A 
ATOM      9  C   UNL     1       9.519   1.124  22.585  0.00  0.00    +0.007 A 
ATOM     10  C   UNL     1       8.952   0.741  23.798  0.00  0.00    +0.085 A 
ATOM     11  C   UNL     1       8.533  -0.589  23.976  0.00  0.00    +0.284 A 
BRANCH  11  12
ATOM     12  N   UNL     1       7.917  -0.910  25.246  0.00  0.00    +0.080 N 
ATOM     13  O   UNL     1       8.676  -1.153  26.195  0.00  0.00    +0.041 OA
ATOM     14  O   UNL     1       6.680  -0.901  25.303  0.00  0.00    -0.576 OA
ENDBRANCH  11  12
ENDBRANCH   3   6
BRANCH   1  15
ATOM     15  C   UNL     1       6.357  -5.576  21.621  0.00  0.00    +0.372 C 
ATOM     16  O   UNL     1       5.955  -5.248  20.516  0.00  0.00    -0.242 OA
BRANCH  15  17
ATOM     17  O   UNL     1       6.021  -6.754  22.205  0.00  0.00    -0.475 OA
ATOM     18  H   UNL     1       5.175  -7.096  21.846  0.00  0.00    +0.296 HD
ENDBRANCH  15  17
ENDBRANCH   1  15
TORSDOF 4
ENDMDL
