MODEL 1
REMARK VINA RESULT:      -8.1      0.000      0.000
REMARK  Name = 
REMARK  10 active torsions:
REMARK  status: ('A' for Active; 'I' for Inactive)
REMARK    1  A    between atoms: C_1  and  C_2
REMARK    2  A    between atoms: C_5  and  O_14
REMARK    3  A    between atoms: C_8  and  N_10
REMARK    4  A    between atoms: C_11  and  O_13
REMARK    5  A    between atoms: O_14  and  C_15
REMARK    6  A    between atoms: C_18  and  O_19
REMARK    7  A    between atoms: C_18  and  C_39
REMARK    8  A    between atoms: C_23  and  O_24
REMARK    9  A    between atoms: C_37  and  O_38
REMARK   10  A    between atoms: C_39  and  C_40
REMARK                            x       y       z     vdW  Elec       q    Type
REMARK                         _______ _______ _______ _____ _____    ______ ____
ROOT
ATOM      1  C   UNL     1       6.507  -1.966  24.834  0.00  0.00    +0.158 C 
ATOM      2  C   UNL     1       7.286  -0.699  24.478  0.00  0.00    +0.030 A 
ATOM      3  C   UNL     1       6.625   0.541  24.333  0.00  0.00    +0.134 A 
ATOM      4  C   UNL     1       7.337   1.746  24.145  0.00  0.00    +0.078 A 
ATOM      5  C   UNL     1       8.731   1.719  24.119  0.00  0.00    +0.078 A 
ATOM      6  C   UNL     1       9.409   0.499  24.267  0.00  0.00    +0.132 A 
ATOM      7  C   UNL     1       9.510   2.972  23.982  0.00  0.00    +0.198 C 
ATOM      8  O   UNL     1      10.738   2.942  24.072  0.00  0.00    -0.286 OA
ATOM      9  C   UNL     1       8.819   4.235  23.734  0.00  0.00    +0.033 A 
ATOM     10  C   UNL     1       7.428   4.279  23.732  0.00  0.00    +0.033 A 
ATOM     11  C   UNL     1       6.773   5.495  23.498  0.00  0.00    +0.012 A 
ATOM     12  C   UNL     1       7.507   6.653  23.260  0.00  0.00    +0.001 A 
ATOM     13  C   UNL     1       8.896   6.610  23.257  0.00  0.00    +0.001 A 
ATOM     14  C   UNL     1       9.557   5.409  23.498  0.00  0.00    +0.012 A 
ATOM     15  C   UNL     1       6.639   3.055  23.978  0.00  0.00    +0.198 C 
ATOM     16  O   UNL     1       5.422   3.171  24.024  0.00  0.00    -0.286 OA
ATOM     17  C   UNL     1       8.707  -0.710  24.417  0.00  0.00    +0.007 A 
ATOM     18  C   UNL     1       9.535  -1.977  24.627  0.00  0.00    +0.082 C 
ATOM     19  C   UNL     1       8.693  -3.246  24.737  0.00  0.00    +0.130 C 
ATOM     20  C   UNL     1       7.448  -2.922  25.590  0.00  0.00    +0.079 C 
ENDROOT
BRANCH  19  21
ATOM     21  C   UNL     1       9.509  -4.395  25.356  0.00  0.00    +0.162 C 
ATOM     22  O   UNL     1      10.521  -4.848  24.818  0.00  0.00    -0.295 OA
ATOM     23  C   UNL     1       9.007  -4.973  26.663  0.00  0.00    +0.089 C 
ENDBRANCH  19  21
BRANCH   6  24
ATOM     24  O   UNL     1      10.781   0.425  24.308  0.00  0.00    -0.506 OA
ATOM     25  H   UNL     1      11.119   0.233  23.404  0.00  0.00    +0.292 HD
ENDBRANCH   6  24
BRANCH   3  26
ATOM     26  O   UNL     1       5.260   0.621  24.443  0.00  0.00    -0.506 OA
ATOM     27  H   UNL     1       4.889   0.342  25.300  0.00  0.00    +0.292 HD
ENDBRANCH   3  26
BRANCH  19  28
ATOM     28  O   UNL     1       8.362  -3.696  23.414  0.00  0.00    -0.381 OA
ATOM     29  H   UNL     1       9.130  -3.525  22.837  0.00  0.00    +0.211 HD
ENDBRANCH  19  28
BRANCH   1  30
ATOM     30  O   UNL     1       6.004  -2.728  23.717  0.00  0.00    -0.343 OA
BRANCH  30  36
ATOM     31  C   UNL     1       5.372  -6.285  26.237  0.00  0.00    +0.041 C 
ATOM     32  C   UNL     1       5.685  -5.434  25.003  0.00  0.00    +0.148 C 
ATOM     33  C   UNL     1       5.594  -6.286  23.716  0.00  0.00    +0.160 C 
ATOM     34  C   UNL     1       5.493  -5.431  22.441  0.00  0.00    +0.087 C 
ATOM     35  C   UNL     1       4.492  -4.292  22.636  0.00  0.00    +0.082 C 
ATOM     36  C   UNL     1       4.802  -3.474  23.892  0.00  0.00    +0.253 C 
ATOM     37  O   UNL     1       4.805  -4.294  25.053  0.00  0.00    -0.346 OA
BRANCH  34  38
ATOM     38  N   UNL     1       5.067  -6.301  21.316  0.00  0.00    -0.325 NA
ATOM     39  H   UNL     1       5.657  -6.138  20.499  0.00  0.00    +0.119 HD
ATOM     40  H   UNL     1       5.206  -7.280  21.573  0.00  0.00    +0.119 HD
ENDBRANCH  34  38
BRANCH  33  41
ATOM     41  O   UNL     1       4.462  -7.173  23.749  0.00  0.00    -0.388 OA
ATOM     42  H   UNL     1       4.116  -7.082  24.663  0.00  0.00    +0.210 HD
ENDBRANCH  33  41
ENDBRANCH  30  36
ENDBRANCH   1  30
TORSDOF 8
ENDMDL
MODEL 2
REMARK VINA RESULT:      -7.6      2.235      2.731
REMARK  Name = 
REMARK  10 active torsions:
REMARK  status: ('A' for Active; 'I' for Inactive)
REMARK    1  A    between atoms: C_1  and  C_2
REMARK    2  A    between atoms: C_5  and  O_14
REMARK    3  A    between atoms: C_8  and  N_10
REMARK    4  A    between atoms: C_11  and  O_13
REMARK    5  A    between atoms: O_14  and  C_15
REMARK    6  A    between atoms: C_18  and  O_19
REMARK    7  A    between atoms: C_18  and  C_39
REMARK    8  A    between atoms: C_23  and  O_24
REMARK    9  A    between atoms: C_37  and  O_38
REMARK   10  A    between atoms: C_39  and  C_40
REMARK                            x       y       z     vdW  Elec       q    Type
REMARK                         _______ _______ _______ _____ _____    ______ ____
ROOT
ATOM      1  C   UNL     1       5.998  -2.863  24.862  0.00  0.00    +0.158 C 
ATOM      2  C   UNL     1       6.675  -1.588  24.358  0.00  0.00    +0.030 A 
ATOM      3  C   UNL     1       6.700  -0.418  25.150  0.00  0.00    +0.134 A 
ATOM      4  C   UNL     1       7.438   0.723  24.768  0.00  0.00    +0.078 A 
ATOM      5  C   UNL     1       8.180   0.694  23.587  0.00  0.00    +0.078 A 
ATOM      6  C   UNL     1       8.175  -0.459  22.788  0.00  0.00    +0.132 A 
ATOM      7  C   UNL     1       9.012   1.853  23.186  0.00  0.00    +0.198 C 
ATOM      8  O   UNL     1       9.746   1.768  22.201  0.00  0.00    -0.286 OA
ATOM      9  C   UNL     1       8.954   3.092  23.959  0.00  0.00    +0.033 A 
ATOM     10  C   UNL     1       8.200   3.149  25.128  0.00  0.00    +0.033 A 
ATOM     11  C   UNL     1       8.153   4.339  25.864  0.00  0.00    +0.012 A 
ATOM     12  C   UNL     1       8.848   5.463  25.428  0.00  0.00    +0.001 A 
ATOM     13  C   UNL     1       9.598   5.408  24.259  0.00  0.00    +0.001 A 
ATOM     14  C   UNL     1       9.659   4.228  23.524  0.00  0.00    +0.012 A 
ATOM     15  C   UNL     1       7.454   1.965  25.598  0.00  0.00    +0.198 C 
ATOM     16  O   UNL     1       6.860   2.060  26.662  0.00  0.00    -0.286 OA
ATOM     17  C   UNL     1       7.413  -1.588  23.141  0.00  0.00    +0.007 A 
ATOM     18  C   UNL     1       7.517  -2.813  22.236  0.00  0.00    +0.082 C 
ATOM     19  C   UNL     1       6.624  -3.972  22.671  0.00  0.00    +0.130 C 
ATOM     20  C   UNL     1       6.688  -4.074  24.210  0.00  0.00    +0.079 C 
ENDROOT
BRANCH  19  21
ATOM     21  C   UNL     1       7.068  -5.288  22.007  0.00  0.00    +0.162 C 
ATOM     22  O   UNL     1       8.059  -5.915  22.386  0.00  0.00    -0.295 OA
ATOM     23  C   UNL     1       6.243  -5.786  20.838  0.00  0.00    +0.089 C 
ENDBRANCH  19  21
BRANCH   6  24
ATOM     24  O   UNL     1       8.935  -0.562  21.647  0.00  0.00    -0.506 OA
ATOM     25  H   UNL     1       8.562  -1.272  21.076  0.00  0.00    +0.292 HD
ENDBRANCH   6  24
BRANCH   3  26
ATOM     26  O   UNL     1       6.057  -0.382  26.360  0.00  0.00    -0.506 OA
ATOM     27  H   UNL     1       6.267   0.382  26.927  0.00  0.00    +0.292 HD
ENDBRANCH   3  26
BRANCH  19  28
ATOM     28  O   UNL     1       5.295  -3.740  22.181  0.00  0.00    -0.381 OA
ATOM     29  H   UNL     1       5.007  -2.862  22.497  0.00  0.00    +0.211 HD
ENDBRANCH  19  28
BRANCH   1  30
ATOM     30  O   UNL     1       4.598  -2.999  24.538  0.00  0.00    -0.343 OA
BRANCH  30  36
ATOM     31  C   UNL     1       4.546  -6.825  26.722  0.00  0.00    +0.041 C 
ATOM     32  C   UNL     1       4.218  -5.769  25.662  0.00  0.00    +0.148 C 
ATOM     33  C   UNL     1       2.929  -6.149  24.896  0.00  0.00    +0.160 C 
ATOM     34  C   UNL     1       2.327  -4.964  24.121  0.00  0.00    +0.087 C 
ATOM     35  C   UNL     1       2.317  -3.705  24.987  0.00  0.00    +0.082 C 
ATOM     36  C   UNL     1       3.701  -3.407  25.569  0.00  0.00    +0.253 C 
ATOM     37  O   UNL     1       4.180  -4.499  26.342  0.00  0.00    -0.346 OA
BRANCH  34  38
ATOM     38  N   UNL     1       0.943  -5.316  23.712  0.00  0.00    -0.325 NA
ATOM     39  H   UNL     1       0.959  -5.947  22.910  0.00  0.00    +0.119 HD
ATOM     40  H   UNL     1       0.487  -5.832  24.468  0.00  0.00    +0.119 HD
ENDBRANCH  34  38
BRANCH  33  41
ATOM     41  O   UNL     1       1.919  -6.663  25.781  0.00  0.00    -0.388 OA
ATOM     42  H   UNL     1       1.905  -6.019  26.523  0.00  0.00    +0.210 HD
ENDBRANCH  33  41
ENDBRANCH  30  36
ENDBRANCH   1  30
TORSDOF 8
ENDMDL
MODEL 3
REMARK VINA RESULT:      -7.6      1.626      1.782
REMARK  Name = 
REMARK  10 active torsions:
REMARK  status: ('A' for Active; 'I' for Inactive)
REMARK    1  A    between atoms: C_1  and  C_2
REMARK    2  A    between atoms: C_5  and  O_14
REMARK    3  A    between atoms: C_8  and  N_10
REMARK    4  A    between atoms: C_11  and  O_13
REMARK    5  A    between atoms: O_14  and  C_15
REMARK    6  A    between atoms: C_18  and  O_19
REMARK    7  A    between atoms: C_18  and  C_39
REMARK    8  A    between atoms: C_23  and  O_24
REMARK    9  A    between atoms: C_37  and  O_38
REMARK   10  A    between atoms: C_39  and  C_40
REMARK                            x       y       z     vdW  Elec       q    Type
REMARK                         _______ _______ _______ _____ _____    ______ ____
ROOT
ATOM      1  C   UNL     1       6.037  -2.711  25.529  0.00  0.00    +0.158 C 
ATOM      2  C   UNL     1       6.515  -1.482  24.755  0.00  0.00    +0.030 A 
ATOM      3  C   UNL     1       5.771  -0.281  24.772  0.00  0.00    +0.134 A 
ATOM      4  C   UNL     1       6.262   0.905  24.184  0.00  0.00    +0.078 A 
ATOM      5  C   UNL     1       7.523   0.902  23.587  0.00  0.00    +0.078 A 
ATOM      6  C   UNL     1       8.281  -0.279  23.563  0.00  0.00    +0.132 A 
ATOM      7  C   UNL     1       8.092   2.144  23.012  0.00  0.00    +0.198 C 
ATOM      8  O   UNL     1       9.248   2.147  22.589  0.00  0.00    -0.286 OA
ATOM      9  C   UNL     1       7.278   3.354  22.945  0.00  0.00    +0.033 A 
ATOM     10  C   UNL     1       6.007   3.372  23.515  0.00  0.00    +0.033 A 
ATOM     11  C   UNL     1       5.235   4.538  23.451  0.00  0.00    +0.012 A 
ATOM     12  C   UNL     1       5.728   5.672  22.813  0.00  0.00    +0.001 A 
ATOM     13  C   UNL     1       6.994   5.655  22.240  0.00  0.00    +0.001 A 
ATOM     14  C   UNL     1       7.775   4.504  22.307  0.00  0.00    +0.012 A 
ATOM     15  C   UNL     1       5.471   2.172  24.189  0.00  0.00    +0.198 C 
ATOM     16  O   UNL     1       4.375   2.270  24.722  0.00  0.00    -0.286 OA
ATOM     17  C   UNL     1       7.784  -1.475  24.114  0.00  0.00    +0.007 A 
ATOM     18  C   UNL     1       8.708  -2.691  24.090  0.00  0.00    +0.082 C 
ATOM     19  C   UNL     1       8.071  -3.953  24.666  0.00  0.00    +0.130 C 
ATOM     20  C   UNL     1       7.265  -3.552  25.920  0.00  0.00    +0.079 C 
ENDROOT
BRANCH  19  21
ATOM     21  C   UNL     1       9.143  -5.004  25.006  0.00  0.00    +0.162 C 
ATOM     22  O   UNL     1       9.443  -5.914  24.230  0.00  0.00    -0.295 OA
ATOM     23  C   UNL     1       9.818  -4.892  26.358  0.00  0.00    +0.089 C 
ENDBRANCH  19  21
BRANCH   6  24
ATOM     24  O   UNL     1       9.552  -0.322  23.041  0.00  0.00    -0.506 OA
ATOM     25  H   UNL     1       9.761   0.551  22.634  0.00  0.00    +0.292 HD
ENDBRANCH   6  24
BRANCH   3  26
ATOM     26  O   UNL     1       4.569  -0.214  25.428  0.00  0.00    -0.506 OA
ATOM     27  H   UNL     1       3.838  -0.715  25.021  0.00  0.00    +0.292 HD
ENDBRANCH   3  26
BRANCH  19  28
ATOM     28  O   UNL     1       7.259  -4.565  23.653  0.00  0.00    -0.381 OA
ATOM     29  H   UNL     1       6.457  -4.918  24.083  0.00  0.00    +0.211 HD
ENDBRANCH  19  28
BRANCH   1  30
ATOM     30  O   UNL     1       5.172  -3.612  24.804  0.00  0.00    -0.343 OA
BRANCH  30  36
ATOM     31  C   UNL     1       4.986  -6.766  27.873  0.00  0.00    +0.041 C 
ATOM     32  C   UNL     1       4.964  -6.096  26.496  0.00  0.00    +0.148 C 
ATOM     33  C   UNL     1       4.324  -7.032  25.444  0.00  0.00    +0.160 C 
ATOM     34  C   UNL     1       3.904  -6.291  24.164  0.00  0.00    +0.087 C 
ATOM     35  C   UNL     1       3.190  -4.984  24.509  0.00  0.00    +0.082 C 
ATOM     36  C   UNL     1       4.017  -4.122  25.466  0.00  0.00    +0.253 C 
ATOM     37  O   UNL     1       4.312  -4.822  26.667  0.00  0.00    -0.346 OA
BRANCH  34  38
ATOM     38  N   UNL     1       3.007  -7.172  23.375  0.00  0.00    -0.325 NA
ATOM     39  H   UNL     1       2.033  -7.008  23.631  0.00  0.00    +0.119 HD
ATOM     40  H   UNL     1       3.082  -6.932  22.384  0.00  0.00    +0.119 HD
ENDBRANCH  34  38
BRANCH  33  41
ATOM     41  O   UNL     1       3.167  -7.706  25.970  0.00  0.00    -0.388 OA
ATOM     42  H   UNL     1       2.960  -8.384  25.291  0.00  0.00    +0.210 HD
ENDBRANCH  33  41
ENDBRANCH  30  36
ENDBRANCH   1  30
TORSDOF 8
ENDMDL
MODEL 4
REMARK VINA RESULT:      -7.5      2.166      2.328
REMARK  Name = 
REMARK  10 active torsions:
REMARK  status: ('A' for Active; 'I' for Inactive)
REMARK    1  A    between atoms: C_1  and  C_2
REMARK    2  A    between atoms: C_5  and  O_14
REMARK    3  A    between atoms: C_8  and  N_10
REMARK    4  A    between atoms: C_11  and  O_13
REMARK    5  A    between atoms: O_14  and  C_15
REMARK    6  A    between atoms: C_18  and  O_19
REMARK    7  A    between atoms: C_18  and  C_39
REMARK    8  A    between atoms: C_23  and  O_24
REMARK    9  A    between atoms: C_37  and  O_38
REMARK   10  A    between atoms: C_39  and  C_40
REMARK                            x       y       z     vdW  Elec       q    Type
REMARK                         _______ _______ _______ _____ _____    ______ ____
ROOT
ATOM      1  C   UNL     1       7.129  -1.918  26.417  0.00  0.00    +0.158 C 
ATOM      2  C   UNL     1       7.713  -0.747  25.626  0.00  0.00    +0.030 A 
ATOM      3  C   UNL     1       7.478   0.588  26.027  0.00  0.00    +0.134 A 
ATOM      4  C   UNL     1       8.120   1.677  25.399  0.00  0.00    +0.078 A 
ATOM      5  C   UNL     1       9.025   1.434  24.366  0.00  0.00    +0.078 A 
ATOM      6  C   UNL     1       9.277   0.116  23.954  0.00  0.00    +0.132 A 
ATOM      7  C   UNL     1       9.760   2.549  23.724  0.00  0.00    +0.198 C 
ATOM      8  O   UNL     1      10.634   2.307  22.891  0.00  0.00    -0.286 OA
ATOM      9  C   UNL     1       9.439   3.930  24.077  0.00  0.00    +0.033 A 
ATOM     10  C   UNL     1       8.521   4.194  25.090  0.00  0.00    +0.033 A 
ATOM     11  C   UNL     1       8.223   5.521  25.426  0.00  0.00    +0.012 A 
ATOM     12  C   UNL     1       8.832   6.571  24.746  0.00  0.00    +0.001 A 
ATOM     13  C   UNL     1       9.745   6.309  23.732  0.00  0.00    +0.001 A 
ATOM     14  C   UNL     1      10.057   4.994  23.397  0.00  0.00    +0.012 A 
ATOM     15  C   UNL     1       7.864   3.088  25.814  0.00  0.00    +0.198 C 
ATOM     16  O   UNL     1       7.114   3.385  26.733  0.00  0.00    -0.286 OA
ATOM     17  C   UNL     1       8.614  -0.973  24.549  0.00  0.00    +0.007 A 
ATOM     18  C   UNL     1       8.999  -2.371  24.070  0.00  0.00    +0.082 C 
ATOM     19  C   UNL     1       8.199  -3.487  24.738  0.00  0.00    +0.130 C 
ATOM     20  C   UNL     1       8.049  -3.138  26.234  0.00  0.00    +0.079 C 
ENDROOT
BRANCH  19  21
ATOM     21  C   UNL     1       8.892  -4.849  24.550  0.00  0.00    +0.162 C 
ATOM     22  O   UNL     1       8.645  -5.587  23.594  0.00  0.00    -0.295 OA
ATOM     23  C   UNL     1       9.892  -5.267  25.608  0.00  0.00    +0.089 C 
ENDBRANCH  19  21
BRANCH   6  24
ATOM     24  O   UNL     1      10.203  -0.182  22.982  0.00  0.00    -0.506 OA
ATOM     25  H   UNL     1       9.764  -0.151  22.101  0.00  0.00    +0.292 HD
ENDBRANCH   6  24
BRANCH   3  26
ATOM     26  O   UNL     1       6.666   0.861  27.098  0.00  0.00    -0.506 OA
ATOM     27  H   UNL     1       5.742   0.560  27.014  0.00  0.00    +0.292 HD
ENDBRANCH   3  26
BRANCH  19  28
ATOM     28  O   UNL     1       6.937  -3.617  24.066  0.00  0.00    -0.381 OA
ATOM     29  H   UNL     1       6.455  -2.774  24.166  0.00  0.00    +0.211 HD
ENDBRANCH  19  28
BRANCH   1  30
ATOM     30  O   UNL     1       5.818  -2.362  26.005  0.00  0.00    -0.343 OA
BRANCH  30  36
ATOM     31  C   UNL     1       4.736  -6.582  26.657  0.00  0.00    +0.041 C 
ATOM     32  C   UNL     1       4.668  -5.144  26.136  0.00  0.00    +0.148 C 
ATOM     33  C   UNL     1       3.257  -4.830  25.585  0.00  0.00    +0.160 C 
ATOM     34  C   UNL     1       3.001  -3.322  25.427  0.00  0.00    +0.087 C 
ATOM     35  C   UNL     1       3.488  -2.562  26.661  0.00  0.00    +0.082 C 
ATOM     36  C   UNL     1       4.944  -2.899  26.995  0.00  0.00    +0.253 C 
ATOM     37  O   UNL     1       5.114  -4.293  27.210  0.00  0.00    -0.346 OA
BRANCH  34  38
ATOM     38  N   UNL     1       1.546  -3.103  25.233  0.00  0.00    -0.325 NA
ATOM     39  H   UNL     1       1.009  -3.778  25.779  0.00  0.00    +0.119 HD
ATOM     40  H   UNL     1       1.290  -2.182  25.594  0.00  0.00    +0.119 HD
ENDBRANCH  34  38
BRANCH  33  41
ATOM     41  O   UNL     1       2.227  -5.372  26.429  0.00  0.00    -0.388 OA
ATOM     42  H   UNL     1       2.182  -6.319  26.171  0.00  0.00    +0.210 HD
ENDBRANCH  33  41
ENDBRANCH  30  36
ENDBRANCH   1  30
TORSDOF 8
ENDMDL
MODEL 5
REMARK VINA RESULT:      -7.3      3.292      8.516
REMARK  Name = 
REMARK  10 active torsions:
REMARK  status: ('A' for Active; 'I' for Inactive)
REMARK    1  A    between atoms: C_1  and  C_2
REMARK    2  A    between atoms: C_5  and  O_14
REMARK    3  A    between atoms: C_8  and  N_10
REMARK    4  A    between atoms: C_11  and  O_13
REMARK    5  A    between atoms: O_14  and  C_15
REMARK    6  A    between atoms: C_18  and  O_19
REMARK    7  A    between atoms: C_18  and  C_39
REMARK    8  A    between atoms: C_23  and  O_24
REMARK    9  A    between atoms: C_37  and  O_38
REMARK   10  A    between atoms: C_39  and  C_40
REMARK                            x       y       z     vdW  Elec       q    Type
REMARK                         _______ _______ _______ _____ _____    ______ ____
ROOT
ATOM      1  C   UNL     1       6.902   0.254  24.844  0.00  0.00    +0.158 C 
ATOM      2  C   UNL     1       5.850  -0.805  25.174  0.00  0.00    +0.030 A 
ATOM      3  C   UNL     1       5.549  -1.837  24.257  0.00  0.00    +0.134 A 
ATOM      4  C   UNL     1       4.688  -2.904  24.595  0.00  0.00    +0.078 A 
ATOM      5  C   UNL     1       4.132  -2.955  25.873  0.00  0.00    +0.078 A 
ATOM      6  C   UNL     1       4.421  -1.943  26.801  0.00  0.00    +0.132 A 
ATOM      7  C   UNL     1       3.270  -4.091  26.280  0.00  0.00    +0.198 C 
ATOM      8  O   UNL     1       2.879  -4.175  27.444  0.00  0.00    -0.286 OA
ATOM      9  C   UNL     1       2.886  -5.100  25.296  0.00  0.00    +0.033 A 
ATOM     10  C   UNL     1       3.412  -5.054  24.008  0.00  0.00    +0.033 A 
ATOM     11  C   UNL     1       3.041  -6.028  23.073  0.00  0.00    +0.012 A 
ATOM     12  C   UNL     1       2.145  -7.033  23.424  0.00  0.00    +0.001 A 
ATOM     13  C   UNL     1       1.616  -7.078  24.708  0.00  0.00    +0.001 A 
ATOM     14  C   UNL     1       1.985  -6.121  25.649  0.00  0.00    +0.012 A 
ATOM     15  C   UNL     1       4.359  -3.988  23.623  0.00  0.00    +0.198 C 
ATOM     16  O   UNL     1       4.832  -4.038  22.496  0.00  0.00    -0.286 OA
ATOM     17  C   UNL     1       5.248  -0.857  26.461  0.00  0.00    +0.007 A 
ATOM     18  C   UNL     1       5.549   0.163  27.558  0.00  0.00    +0.082 C 
ATOM     19  C   UNL     1       6.416   1.328  27.088  0.00  0.00    +0.130 C 
ATOM     20  C   UNL     1       7.514   0.763  26.162  0.00  0.00    +0.079 C 
ENDROOT
BRANCH  19  21
ATOM     21  C   UNL     1       7.028   2.075  28.286  0.00  0.00    +0.162 C 
ATOM     22  O   UNL     1       7.216   3.294  28.276  0.00  0.00    -0.295 OA
ATOM     23  C   UNL     1       7.416   1.247  29.494  0.00  0.00    +0.089 C 
ENDBRANCH  19  21
BRANCH   6  24
ATOM     24  O   UNL     1       3.947  -1.977  28.091  0.00  0.00    -0.506 OA
ATOM     25  H   UNL     1       3.097  -2.475  28.108  0.00  0.00    +0.292 HD
ENDBRANCH   6  24
BRANCH   3  26
ATOM     26  O   UNL     1       6.147  -1.871  23.023  0.00  0.00    -0.506 OA
ATOM     27  H   UNL     1       5.618  -1.511  22.288  0.00  0.00    +0.292 HD
ENDBRANCH   3  26
BRANCH  19  28
ATOM     28  O   UNL     1       5.577   2.294  26.436  0.00  0.00    -0.381 OA
ATOM     29  H   UNL     1       4.697   2.262  26.858  0.00  0.00    +0.211 HD
ENDBRANCH  19  28
BRANCH   1  30
ATOM     30  O   UNL     1       6.415   1.433  24.168  0.00  0.00    -0.343 OA
BRANCH  30  36
ATOM     31  C   UNL     1       9.807  -0.373  22.015  0.00  0.00    +0.041 C 
ATOM     32  C   UNL     1       9.001   0.628  22.848  0.00  0.00    +0.148 C 
ATOM     33  C   UNL     1       9.712   2.000  22.888  0.00  0.00    +0.160 C 
ATOM     34  C   UNL     1       8.785   3.138  23.348  0.00  0.00    +0.087 C 
ATOM     35  C   UNL     1       7.427   3.039  22.652  0.00  0.00    +0.082 C 
ATOM     36  C   UNL     1       6.808   1.648  22.814  0.00  0.00    +0.253 C 
ATOM     37  O   UNL     1       7.667   0.639  22.303  0.00  0.00    -0.346 OA
BRANCH  34  38
ATOM     38  N   UNL     1       9.429   4.437  23.030  0.00  0.00    -0.325 NA
ATOM     39  H   UNL     1      10.134   4.665  23.733  0.00  0.00    +0.119 HD
ATOM     40  H   UNL     1       9.932   4.359  22.143  0.00  0.00    +0.119 HD
ENDBRANCH  34  38
BRANCH  33  41
ATOM     41  O   UNL     1      10.250   2.355  21.602  0.00  0.00    -0.388 OA
ATOM     42  H   UNL     1      11.175   2.027  21.635  0.00  0.00    +0.210 HD
ENDBRANCH  33  41
ENDBRANCH  30  36
ENDBRANCH   1  30
TORSDOF 8
ENDMDL
MODEL 6
REMARK VINA RESULT:      -7.2      2.501      4.256
REMARK  Name = 
REMARK  10 active torsions:
REMARK  status: ('A' for Active; 'I' for Inactive)
REMARK    1  A    between atoms: C_1  and  C_2
REMARK    2  A    between atoms: C_5  and  O_14
REMARK    3  A    between atoms: C_8  and  N_10
REMARK    4  A    between atoms: C_11  and  O_13
REMARK    5  A    between atoms: O_14  and  C_15
REMARK    6  A    between atoms: C_18  and  O_19
REMARK    7  A    between atoms: C_18  and  C_39
REMARK    8  A    between atoms: C_23  and  O_24
REMARK    9  A    between atoms: C_37  and  O_38
REMARK   10  A    between atoms: C_39  and  C_40
REMARK                            x       y       z     vdW  Elec       q    Type
REMARK                         _______ _______ _______ _____ _____    ______ ____
ROOT
ATOM      1  C   UNL     1       6.364  -2.149  24.985  0.00  0.00    +0.158 C 
ATOM      2  C   UNL     1       6.845  -0.704  25.109  0.00  0.00    +0.030 A 
ATOM      3  C   UNL     1       8.027  -0.275  24.464  0.00  0.00    +0.134 A 
ATOM      4  C   UNL     1       8.415   1.082  24.447  0.00  0.00    +0.078 A 
ATOM      5  C   UNL     1       7.604   2.033  25.066  0.00  0.00    +0.078 A 
ATOM      6  C   UNL     1       6.423   1.631  25.709  0.00  0.00    +0.132 A 
ATOM      7  C   UNL     1       7.951   3.473  25.017  0.00  0.00    +0.198 C 
ATOM      8  O   UNL     1       7.168   4.307  25.473  0.00  0.00    -0.286 OA
ATOM      9  C   UNL     1       9.222   3.895  24.434  0.00  0.00    +0.033 A 
ATOM     10  C   UNL     1      10.057   2.958  23.831  0.00  0.00    +0.033 A 
ATOM     11  C   UNL     1      11.272   3.372  23.270  0.00  0.00    +0.012 A 
ATOM     12  C   UNL     1      11.649   4.710  23.322  0.00  0.00    +0.001 A 
ATOM     13  C   UNL     1      10.818   5.646  23.927  0.00  0.00    +0.001 A 
ATOM     14  C   UNL     1       9.604   5.247  24.479  0.00  0.00    +0.012 A 
ATOM     15  C   UNL     1       9.670   1.534  23.776  0.00  0.00    +0.198 C 
ATOM     16  O   UNL     1      10.417   0.772  23.180  0.00  0.00    -0.286 OA
ATOM     17  C   UNL     1       6.048   0.276  25.763  0.00  0.00    +0.007 A 
ATOM     18  C   UNL     1       4.717  -0.054  26.436  0.00  0.00    +0.082 C 
ATOM     19  C   UNL     1       4.413  -1.549  26.488  0.00  0.00    +0.130 C 
ATOM     20  C   UNL     1       4.832  -2.169  25.138  0.00  0.00    +0.079 C 
ENDROOT
BRANCH  19  21
ATOM     21  C   UNL     1       2.921  -1.797  26.775  0.00  0.00    +0.162 C 
ATOM     22  O   UNL     1       2.191  -2.405  25.990  0.00  0.00    -0.295 OA
ATOM     23  C   UNL     1       2.365  -1.243  28.071  0.00  0.00    +0.089 C 
ENDBRANCH  19  21
BRANCH   6  24
ATOM     24  O   UNL     1       5.559   2.533  26.282  0.00  0.00    -0.506 OA
ATOM     25  H   UNL     1       4.939   2.867  25.593  0.00  0.00    +0.292 HD
ENDBRANCH   6  24
BRANCH   3  26
ATOM     26  O   UNL     1       8.803  -1.166  23.767  0.00  0.00    -0.506 OA
ATOM     27  H   UNL     1       9.628  -0.805  23.395  0.00  0.00    +0.292 HD
ENDBRANCH   3  26
BRANCH  19  28
ATOM     28  O   UNL     1       5.107  -2.123  27.606  0.00  0.00    -0.381 OA
ATOM     29  H   UNL     1       6.031  -1.811  27.579  0.00  0.00    +0.211 HD
ENDBRANCH  19  28
BRANCH   1  30
ATOM     30  O   UNL     1       6.861  -3.064  25.985  0.00  0.00    -0.343 OA
BRANCH  30  36
ATOM     31  C   UNL     1       3.761  -6.047  25.036  0.00  0.00    +0.041 C 
ATOM     32  C   UNL     1       4.770  -5.230  25.848  0.00  0.00    +0.148 C 
ATOM     33  C   UNL     1       5.078  -5.926  27.194  0.00  0.00    +0.160 C 
ATOM     34  C   UNL     1       6.356  -5.392  27.862  0.00  0.00    +0.087 C 
ATOM     35  C   UNL     1       7.481  -5.253  26.837  0.00  0.00    +0.082 C 
ATOM     36  C   UNL     1       7.042  -4.431  25.622  0.00  0.00    +0.253 C 
ATOM     37  O   UNL     1       5.908  -5.009  24.992  0.00  0.00    -0.346 OA
BRANCH  34  38
ATOM     38  N   UNL     1       6.759  -6.329  28.941  0.00  0.00    -0.325 NA
ATOM     39  H   UNL     1       5.970  -6.517  29.561  0.00  0.00    +0.119 HD
ATOM     40  H   UNL     1       7.014  -7.229  28.530  0.00  0.00    +0.119 HD
ENDBRANCH  34  38
BRANCH  33  41
ATOM     41  O   UNL     1       5.221  -7.348  27.032  0.00  0.00    -0.388 OA
ATOM     42  H   UNL     1       4.352  -7.707  27.316  0.00  0.00    +0.210 HD
ENDBRANCH  33  41
ENDBRANCH  30  36
ENDBRANCH   1  30
TORSDOF 8
ENDMDL
MODEL 7
REMARK VINA RESULT:      -7.1      3.113      8.729
REMARK  Name = 
REMARK  10 active torsions:
REMARK  status: ('A' for Active; 'I' for Inactive)
REMARK    1  A    between atoms: C_1  and  C_2
REMARK    2  A    between atoms: C_5  and  O_14
REMARK    3  A    between atoms: C_8  and  N_10
REMARK    4  A    between atoms: C_11  and  O_13
REMARK    5  A    between atoms: O_14  and  C_15
REMARK    6  A    between atoms: C_18  and  O_19
REMARK    7  A    between atoms: C_18  and  C_39
REMARK    8  A    between atoms: C_23  and  O_24
REMARK    9  A    between atoms: C_37  and  O_38
REMARK   10  A    between atoms: C_39  and  C_40
REMARK                            x       y       z     vdW  Elec       q    Type
REMARK                         _______ _______ _______ _____ _____    ______ ____
ROOT
ATOM      1  C   UNL     1       8.019  -0.901  26.367  0.00  0.00    +0.158 C 
ATOM      2  C   UNL     1       6.722  -1.705  26.456  0.00  0.00    +0.030 A 
ATOM      3  C   UNL     1       6.608  -2.969  25.834  0.00  0.00    +0.134 A 
ATOM      4  C   UNL     1       5.474  -3.790  26.020  0.00  0.00    +0.078 A 
ATOM      5  C   UNL     1       4.445  -3.355  26.855  0.00  0.00    +0.078 A 
ATOM      6  C   UNL     1       4.540  -2.106  27.488  0.00  0.00    +0.132 A 
ATOM      7  C   UNL     1       3.269  -4.217  27.119  0.00  0.00    +0.198 C 
ATOM      8  O   UNL     1       2.425  -3.865  27.943  0.00  0.00    -0.286 OA
ATOM      9  C   UNL     1       3.113  -5.477  26.395  0.00  0.00    +0.033 A 
ATOM     10  C   UNL     1       4.119  -5.917  25.539  0.00  0.00    +0.033 A 
ATOM     11  C   UNL     1       3.963  -7.128  24.852  0.00  0.00    +0.012 A 
ATOM     12  C   UNL     1       2.807  -7.884  25.016  0.00  0.00    +0.001 A 
ATOM     13  C   UNL     1       1.801  -7.444  25.867  0.00  0.00    +0.001 A 
ATOM     14  C   UNL     1       1.949  -6.247  26.562  0.00  0.00    +0.012 A 
ATOM     15  C   UNL     1       5.347  -5.119  25.352  0.00  0.00    +0.198 C 
ATOM     16  O   UNL     1       6.219  -5.589  24.634  0.00  0.00    -0.286 OA
ATOM     17  C   UNL     1       5.648  -1.266  27.279  0.00  0.00    +0.007 A 
ATOM     18  C   UNL     1       5.685   0.049  28.056  0.00  0.00    +0.082 C 
ATOM     19  C   UNL     1       6.899   0.916  27.734  0.00  0.00    +0.130 C 
ATOM     20  C   UNL     1       8.129  -0.009  27.617  0.00  0.00    +0.079 C 
ENDROOT
BRANCH  19  21
ATOM     21  C   UNL     1       7.111   1.989  28.817  0.00  0.00    +0.162 C 
ATOM     22  O   UNL     1       7.224   3.186  28.544  0.00  0.00    -0.295 OA
ATOM     23  C   UNL     1       7.195   1.516  30.254  0.00  0.00    +0.089 C 
ENDBRANCH  19  21
BRANCH   6  24
ATOM     24  O   UNL     1       3.582  -1.657  28.366  0.00  0.00    -0.506 OA
ATOM     25  H   UNL     1       3.684  -2.134  29.222  0.00  0.00    +0.292 HD
ENDBRANCH   6  24
BRANCH   3  26
ATOM     26  O   UNL     1       7.638  -3.469  25.079  0.00  0.00    -0.506 OA
ATOM     27  H   UNL     1       8.378  -3.857  25.579  0.00  0.00    +0.292 HD
ENDBRANCH   3  26
BRANCH  19  28
ATOM     28  O   UNL     1       6.636   1.650  26.529  0.00  0.00    -0.381 OA
ATOM     29  H   UNL     1       6.352   2.550  26.781  0.00  0.00    +0.211 HD
ENDBRANCH  19  28
BRANCH   1  30
ATOM     30  O   UNL     1       8.123  -0.000  25.243  0.00  0.00    -0.343 OA
BRANCH  30  36
ATOM     31  C   UNL     1       9.302   3.895  23.558  0.00  0.00    +0.041 C 
ATOM     32  C   UNL     1       8.846   2.435  23.622  0.00  0.00    +0.148 C 
ATOM     33  C   UNL     1       9.027   1.746  22.250  0.00  0.00    +0.160 C 
ATOM     34  C   UNL     1       8.979   0.211  22.342  0.00  0.00    +0.087 C 
ATOM     35  C   UNL     1       9.815  -0.282  23.523  0.00  0.00    +0.082 C 
ATOM     36  C   UNL     1       9.421   0.417  24.827  0.00  0.00    +0.253 C 
ATOM     37  O   UNL     1       9.558   1.827  24.717  0.00  0.00    -0.346 OA
BRANCH  34  38
ATOM     38  N   UNL     1       9.498  -0.360  21.074  0.00  0.00    -0.325 NA
ATOM     39  H   UNL     1       8.754  -0.848  20.574  0.00  0.00    +0.119 HD
ATOM     40  H   UNL     1       9.799   0.398  20.459  0.00  0.00    +0.119 HD
ENDBRANCH  34  38
BRANCH  33  41
ATOM     41  O   UNL     1      10.273   2.117  21.633  0.00  0.00    -0.388 OA
ATOM     42  H   UNL     1      10.910   2.135  22.379  0.00  0.00    +0.210 HD
ENDBRANCH  33  41
ENDBRANCH  30  36
ENDBRANCH   1  30
TORSDOF 8
ENDMDL
MODEL 8
REMARK VINA RESULT:      -7.1      3.173      8.431
REMARK  Name = 
REMARK  10 active torsions:
REMARK  status: ('A' for Active; 'I' for Inactive)
REMARK    1  A    between atoms: C_1  and  C_2
REMARK    2  A    between atoms: C_5  and  O_14
REMARK    3  A    between atoms: C_8  and  N_10
REMARK    4  A    between atoms: C_11  and  O_13
REMARK    5  A    between atoms: O_14  and  C_15
REMARK    6  A    between atoms: C_18  and  O_19
REMARK    7  A    between atoms: C_18  and  C_39
REMARK    8  A    between atoms: C_23  and  O_24
REMARK    9  A    between atoms: C_37  and  O_38
REMARK   10  A    between atoms: C_39  and  C_40
REMARK                            x       y       z     vdW  Elec       q    Type
REMARK                         _______ _______ _______ _____ _____    ______ ____
ROOT
ATOM      1  C   UNL     1       6.422  -0.626  24.242  0.00  0.00    +0.158 C 
ATOM      2  C   UNL     1       6.437  -1.738  25.290  0.00  0.00    +0.030 A 
ATOM      3  C   UNL     1       5.290  -2.018  26.067  0.00  0.00    +0.134 A 
ATOM      4  C   UNL     1       5.235  -3.128  26.938  0.00  0.00    +0.078 A 
ATOM      5  C   UNL     1       6.331  -3.986  27.023  0.00  0.00    +0.078 A 
ATOM      6  C   UNL     1       7.478  -3.731  26.256  0.00  0.00    +0.132 A 
ATOM      7  C   UNL     1       6.284  -5.192  27.883  0.00  0.00    +0.198 C 
ATOM      8  O   UNL     1       7.217  -5.996  27.861  0.00  0.00    -0.286 OA
ATOM      9  C   UNL     1       5.135  -5.419  28.756  0.00  0.00    +0.033 A 
ATOM     10  C   UNL     1       4.040  -4.560  28.703  0.00  0.00    +0.033 A 
ATOM     11  C   UNL     1       2.940  -4.787  29.541  0.00  0.00    +0.012 A 
ATOM     12  C   UNL     1       2.943  -5.859  30.428  0.00  0.00    +0.001 A 
ATOM     13  C   UNL     1       4.037  -6.714  30.485  0.00  0.00    +0.001 A 
ATOM     14  C   UNL     1       5.131  -6.504  29.650  0.00  0.00    +0.012 A 
ATOM     15  C   UNL     1       4.028  -3.416  27.770  0.00  0.00    +0.198 C 
ATOM     16  O   UNL     1       3.013  -2.735  27.728  0.00  0.00    -0.286 OA
ATOM     17  C   UNL     1       7.557  -2.607  25.414  0.00  0.00    +0.007 A 
ATOM     18  C   UNL     1       8.825  -2.447  24.578  0.00  0.00    +0.082 C 
ATOM     19  C   UNL     1       8.842  -1.179  23.729  0.00  0.00    +0.130 C 
ATOM     20  C   UNL     1       7.431  -0.982  23.136  0.00  0.00    +0.079 C 
ENDROOT
BRANCH  19  21
ATOM     21  C   UNL     1       9.905  -1.274  22.620  0.00  0.00    +0.162 C 
ATOM     22  O   UNL     1      10.794  -2.127  22.631  0.00  0.00    -0.295 OA
ATOM     23  C   UNL     1       9.832  -0.253  21.503  0.00  0.00    +0.089 C 
ENDBRANCH  19  21
BRANCH   6  24
ATOM     24  O   UNL     1       8.562  -4.577  26.258  0.00  0.00    -0.506 OA
ATOM     25  H   UNL     1       9.309  -4.142  25.785  0.00  0.00    +0.292 HD
ENDBRANCH   6  24
BRANCH   3  26
ATOM     26  O   UNL     1       4.161  -1.250  25.944  0.00  0.00    -0.506 OA
ATOM     27  H   UNL     1       3.385  -1.556  26.449  0.00  0.00    +0.292 HD
ENDBRANCH   3  26
BRANCH  19  28
ATOM     28  O   UNL     1       9.260  -0.078  24.551  0.00  0.00    -0.381 OA
ATOM     29  H   UNL     1       8.510   0.541  24.629  0.00  0.00    +0.211 HD
ENDBRANCH  19  28
BRANCH   1  30
ATOM     30  O   UNL     1       6.814   0.683  24.710  0.00  0.00    -0.343 OA
BRANCH  30  36
ATOM     31  C   UNL     1       9.452   4.153  24.078  0.00  0.00    +0.041 C 
ATOM     32  C   UNL     1       8.333   3.285  24.658  0.00  0.00    +0.148 C 
ATOM     33  C   UNL     1       7.319   4.153  25.438  0.00  0.00    +0.160 C 
ATOM     34  C   UNL     1       5.985   3.429  25.692  0.00  0.00    +0.087 C 
ATOM     35  C   UNL     1       5.513   2.714  24.427  0.00  0.00    +0.082 C 
ATOM     36  C   UNL     1       6.599   1.801  23.852  0.00  0.00    +0.253 C 
ATOM     37  O   UNL     1       7.783   2.530  23.560  0.00  0.00    -0.346 OA
BRANCH  34  38
ATOM     38  N   UNL     1       4.975   4.427  26.124  0.00  0.00    -0.325 NA
ATOM     39  H   UNL     1       5.389   5.091  26.779  0.00  0.00    +0.119 HD
ATOM     40  H   UNL     1       4.675   4.978  25.317  0.00  0.00    +0.119 HD
ENDBRANCH  34  38
BRANCH  33  41
ATOM     41  O   UNL     1       7.034   5.383  24.748  0.00  0.00    -0.388 OA
ATOM     42  H   UNL     1       7.785   5.968  24.989  0.00  0.00    +0.210 HD
ENDBRANCH  33  41
ENDBRANCH  30  36
ENDBRANCH   1  30
TORSDOF 8
ENDMDL
MODEL 9
REMARK VINA RESULT:      -7.0      2.740      3.558
REMARK  Name = 
REMARK  10 active torsions:
REMARK  status: ('A' for Active; 'I' for Inactive)
REMARK    1  A    between atoms: C_1  and  C_2
REMARK    2  A    between atoms: C_5  and  O_14
REMARK    3  A    between atoms: C_8  and  N_10
REMARK    4  A    between atoms: C_11  and  O_13
REMARK    5  A    between atoms: O_14  and  C_15
REMARK    6  A    between atoms: C_18  and  O_19
REMARK    7  A    between atoms: C_18  and  C_39
REMARK    8  A    between atoms: C_23  and  O_24
REMARK    9  A    between atoms: C_37  and  O_38
REMARK   10  A    between atoms: C_39  and  C_40
REMARK                            x       y       z     vdW  Elec       q    Type
REMARK                         _______ _______ _______ _____ _____    ______ ____
ROOT
ATOM      1  C   UNL     1       6.205  -2.965  25.049  0.00  0.00    +0.158 C 
ATOM      2  C   UNL     1       6.816  -1.676  24.499  0.00  0.00    +0.030 A 
ATOM      3  C   UNL     1       6.842  -0.497  25.277  0.00  0.00    +0.134 A 
ATOM      4  C   UNL     1       7.524   0.663  24.847  0.00  0.00    +0.078 A 
ATOM      5  C   UNL     1       8.207   0.643  23.631  0.00  0.00    +0.078 A 
ATOM      6  C   UNL     1       8.199  -0.519  22.844  0.00  0.00    +0.132 A 
ATOM      7  C   UNL     1       8.981   1.823  23.178  0.00  0.00    +0.198 C 
ATOM      8  O   UNL     1       9.666   1.749  22.158  0.00  0.00    -0.286 OA
ATOM      9  C   UNL     1       8.922   3.068  23.940  0.00  0.00    +0.033 A 
ATOM     10  C   UNL     1       8.225   3.115  25.144  0.00  0.00    +0.033 A 
ATOM     11  C   UNL     1       8.178   4.312  25.871  0.00  0.00    +0.012 A 
ATOM     12  C   UNL     1       8.813   5.451  25.388  0.00  0.00    +0.001 A 
ATOM     13  C   UNL     1       9.506   5.407  24.184  0.00  0.00    +0.001 A 
ATOM     14  C   UNL     1       9.568   4.220  23.459  0.00  0.00    +0.012 A 
ATOM     15  C   UNL     1       7.541   1.913  25.663  0.00  0.00    +0.198 C 
ATOM     16  O   UNL     1       6.999   2.003  26.755  0.00  0.00    -0.286 OA
ATOM     17  C   UNL     1       7.491  -1.666  23.247  0.00  0.00    +0.007 A 
ATOM     18  C   UNL     1       7.590  -2.899  22.349  0.00  0.00    +0.082 C 
ATOM     19  C   UNL     1       6.757  -4.080  22.840  0.00  0.00    +0.130 C 
ATOM     20  C   UNL     1       6.900  -4.162  24.375  0.00  0.00    +0.079 C 
ENDROOT
BRANCH  19  21
ATOM     21  C   UNL     1       7.209  -5.389  22.167  0.00  0.00    +0.162 C 
ATOM     22  O   UNL     1       8.201  -6.015  22.546  0.00  0.00    -0.295 OA
ATOM     23  C   UNL     1       6.390  -5.881  20.991  0.00  0.00    +0.089 C 
ENDBRANCH  19  21
BRANCH   6  24
ATOM     24  O   UNL     1       8.904  -0.611  21.668  0.00  0.00    -0.506 OA
ATOM     25  H   UNL     1       8.292  -0.890  20.948  0.00  0.00    +0.292 HD
ENDBRANCH   6  24
BRANCH   3  26
ATOM     26  O   UNL     1       6.259  -0.467  26.518  0.00  0.00    -0.506 OA
ATOM     27  H   UNL     1       5.705  -1.237  26.742  0.00  0.00    +0.292 HD
ENDBRANCH   3  26
BRANCH  19  28
ATOM     28  O   UNL     1       5.398  -3.895  22.415  0.00  0.00    -0.381 OA
ATOM     29  H   UNL     1       4.889  -4.684  22.682  0.00  0.00    +0.211 HD
ENDBRANCH  19  28
BRANCH   1  30
ATOM     30  O   UNL     1       4.796  -3.150  24.797  0.00  0.00    -0.343 OA
BRANCH  30  36
ATOM     31  C   UNL     1       0.453  -3.529  25.428  0.00  0.00    +0.041 C 
ATOM     32  C   UNL     1       1.912  -3.136  25.672  0.00  0.00    +0.148 C 
ATOM     33  C   UNL     1       2.126  -2.721  27.146  0.00  0.00    +0.160 C 
ATOM     34  C   UNL     1       3.610  -2.709  27.553  0.00  0.00    +0.087 C 
ATOM     35  C   UNL     1       4.318  -3.961  27.036  0.00  0.00    +0.082 C 
ATOM     36  C   UNL     1       4.102  -4.155  25.533  0.00  0.00    +0.253 C 
ATOM     37  O   UNL     1       2.720  -4.240  25.218  0.00  0.00    -0.346 OA
BRANCH  34  38
ATOM     38  N   UNL     1       3.698  -2.644  29.033  0.00  0.00    -0.325 NA
ATOM     39  H   UNL     1       4.399  -3.303  29.376  0.00  0.00    +0.119 HD
ATOM     40  H   UNL     1       4.023  -1.717  29.313  0.00  0.00    +0.119 HD
ENDBRANCH  34  38
BRANCH  33  41
ATOM     41  O   UNL     1       1.423  -3.593  28.048  0.00  0.00    -0.388 OA
ATOM     42  H   UNL     1       1.992  -4.393  28.095  0.00  0.00    +0.210 HD
ENDBRANCH  33  41
ENDBRANCH  30  36
ENDBRANCH   1  30
TORSDOF 8
ENDMDL
