MODEL 1
REMARK VINA RESULT:      -6.4      0.000      0.000
REMARK  Name = 
REMARK  3 active torsions:
REMARK  status: ('A' for Active; 'I' for Inactive)
REMARK    1  A    between atoms: C_1  and  C_2
REMARK    2  A    between atoms: C_1  and  C_9
REMARK    3  A    between atoms: C_2  and  C_3
REMARK                            x       y       z     vdW  Elec       q    Type
REMARK                         _______ _______ _______ _____ _____    ______ ____
ROOT
ATOM      1  C   UNL     1       9.666  -1.676  23.084  0.00  0.00    -0.022 A 
ATOM      2  C   UNL     1       9.939  -0.288  23.325  0.00  0.00    +0.003 A 
ATOM      3  C   UNL     1       9.801   0.385  22.110  0.00  0.00    +0.047 A 
ATOM      4  C   UNL     1      10.007   1.763  21.972  0.00  0.00    +0.026 A 
ATOM      5  C   UNL     1      10.366   2.483  23.115  0.00  0.00    +0.002 A 
ATOM      6  C   UNL     1      10.509   1.844  24.344  0.00  0.00    +0.001 A 
ATOM      7  N   UNL     1       9.452  -0.552  21.167  0.00  0.00    -0.360 N 
ATOM      8  H   UNL     1       9.291  -0.346  20.191  0.00  0.00    +0.165 HD
ATOM      9  C   UNL     1      10.301   0.463  24.463  0.00  0.00    +0.010 A 
ATOM     10  C   UNL     1       9.367  -1.792  21.739  0.00  0.00    +0.087 A 
ENDROOT
BRANCH   1  11
ATOM     11  C   UNL     1       9.702  -2.804  24.073  0.00  0.00    +0.042 C 
BRANCH  11  12
ATOM     12  C   UNL     1       8.345  -3.037  24.745  0.00  0.00    +0.040 C 
BRANCH  12  13
ATOM     13  C   UNL     1       7.318  -3.619  23.803  0.00  0.00    -0.044 A 
ATOM     14  C   UNL     1       7.514  -4.870  23.214  0.00  0.00    +0.023 A 
ATOM     15  C   UNL     1       6.549  -5.359  22.345  0.00  0.00    +0.111 A 
ATOM     16  N   UNL     1       5.414  -4.698  22.032  0.00  0.00    -0.263 NA
ATOM     17  C   UNL     1       5.238  -3.494  22.618  0.00  0.00    +0.111 A 
ATOM     18  C   UNL     1       6.145  -2.921  23.499  0.00  0.00    +0.023 A 
ENDBRANCH  12  13
ENDBRANCH  11  12
ENDBRANCH   1  11
TORSDOF 3
ENDMDL
MODEL 2
REMARK VINA RESULT:      -6.3      1.524      2.048
REMARK  Name = 
REMARK  3 active torsions:
REMARK  status: ('A' for Active; 'I' for Inactive)
REMARK    1  A    between atoms: C_1  and  C_2
REMARK    2  A    between atoms: C_1  and  C_9
REMARK    3  A    between atoms: C_2  and  C_3
REMARK                            x       y       z     vdW  Elec       q    Type
REMARK                         _______ _______ _______ _____ _____    ______ ____
ROOT
ATOM      1  C   UNL     1       9.467  -1.445  24.534  0.00  0.00    -0.022 A 
ATOM      2  C   UNL     1       9.627  -0.243  23.767  0.00  0.00    +0.003 A 
ATOM      3  C   UNL     1       9.382   0.835  24.619  0.00  0.00    +0.047 A 
ATOM      4  C   UNL     1       9.440   2.170  24.199  0.00  0.00    +0.026 A 
ATOM      5  C   UNL     1       9.761   2.416  22.861  0.00  0.00    +0.002 A 
ATOM      6  C   UNL     1      10.015   1.364  21.984  0.00  0.00    +0.001 A 
ATOM      7  N   UNL     1       9.089   0.313  25.856  0.00  0.00    -0.360 N 
ATOM      8  H   UNL     1       8.864   0.868  26.671  0.00  0.00    +0.165 HD
ATOM      9  C   UNL     1       9.951   0.034  22.422  0.00  0.00    +0.010 A 
ATOM     10  C   UNL     1       9.137  -1.053  25.818  0.00  0.00    +0.087 A 
ENDROOT
BRANCH   1  11
ATOM     11  C   UNL     1       9.608  -2.862  24.060  0.00  0.00    +0.042 C 
BRANCH  11  12
ATOM     12  C   UNL     1       8.417  -3.737  24.466  0.00  0.00    +0.040 C 
BRANCH  12  13
ATOM     13  C   UNL     1       7.531  -4.097  23.297  0.00  0.00    -0.044 A 
ATOM     14  C   UNL     1       7.527  -5.393  22.775  0.00  0.00    +0.023 A 
ATOM     15  C   UNL     1       6.706  -5.675  21.693  0.00  0.00    +0.111 A 
ATOM     16  N   UNL     1       5.894  -4.768  21.108  0.00  0.00    -0.263 NA
ATOM     17  C   UNL     1       5.904  -3.525  21.632  0.00  0.00    +0.111 A 
ATOM     18  C   UNL     1       6.691  -3.145  22.712  0.00  0.00    +0.023 A 
ENDBRANCH  12  13
ENDBRANCH  11  12
ENDBRANCH   1  11
TORSDOF 3
ENDMDL
MODEL 3
REMARK VINA RESULT:      -6.2      1.938      2.354
REMARK  Name = 
REMARK  3 active torsions:
REMARK  status: ('A' for Active; 'I' for Inactive)
REMARK    1  A    between atoms: C_1  and  C_2
REMARK    2  A    between atoms: C_1  and  C_9
REMARK    3  A    between atoms: C_2  and  C_3
REMARK                            x       y       z     vdW  Elec       q    Type
REMARK                         _______ _______ _______ _____ _____    ______ ____
ROOT
ATOM      1  C   UNL     1       9.371  -1.751  23.208  0.00  0.00    -0.022 A 
ATOM      2  C   UNL     1       9.743  -0.379  23.407  0.00  0.00    +0.003 A 
ATOM      3  C   UNL     1       9.747   0.241  22.157  0.00  0.00    +0.047 A 
ATOM      4  C   UNL     1      10.078   1.590  21.973  0.00  0.00    +0.026 A 
ATOM      5  C   UNL     1      10.416   2.334  23.107  0.00  0.00    +0.002 A 
ATOM      6  C   UNL     1      10.418   1.748  24.370  0.00  0.00    +0.001 A 
ATOM      7  N   UNL     1       9.387  -0.710  21.233  0.00  0.00    -0.360 N 
ATOM      8  H   UNL     1       9.312  -0.541  20.239  0.00  0.00    +0.165 HD
ATOM      9  C   UNL     1      10.086   0.397  24.535  0.00  0.00    +0.010 A 
ATOM     10  C   UNL     1       9.158  -1.909  21.851  0.00  0.00    +0.087 A 
ENDROOT
BRANCH   1  11
ATOM     11  C   UNL     1       9.243  -2.827  24.246  0.00  0.00    +0.042 C 
BRANCH  11  12
ATOM     12  C   UNL     1       8.365  -3.992  23.775  0.00  0.00    +0.040 C 
BRANCH  12  13
ATOM     13  C   UNL     1       7.658  -4.688  24.914  0.00  0.00    -0.044 A 
ATOM     14  C   UNL     1       6.392  -5.251  24.733  0.00  0.00    +0.023 A 
ATOM     15  C   UNL     1       5.775  -5.870  25.811  0.00  0.00    +0.111 A 
ATOM     16  N   UNL     1       6.329  -5.971  27.038  0.00  0.00    -0.263 NA
ATOM     17  C   UNL     1       7.556  -5.430  27.191  0.00  0.00    +0.111 A 
ATOM     18  C   UNL     1       8.253  -4.790  26.175  0.00  0.00    +0.023 A 
ENDBRANCH  12  13
ENDBRANCH  11  12
ENDBRANCH   1  11
TORSDOF 3
ENDMDL
MODEL 4
REMARK VINA RESULT:      -6.1      1.863      6.261
REMARK  Name = 
REMARK  3 active torsions:
REMARK  status: ('A' for Active; 'I' for Inactive)
REMARK    1  A    between atoms: C_1  and  C_2
REMARK    2  A    between atoms: C_1  and  C_9
REMARK    3  A    between atoms: C_2  and  C_3
REMARK                            x       y       z     vdW  Elec       q    Type
REMARK                         _______ _______ _______ _____ _____    ______ ____
ROOT
ATOM      1  C   UNL     1       8.577  -3.359  23.849  0.00  0.00    -0.022 A 
ATOM      2  C   UNL     1       8.013  -4.118  24.928  0.00  0.00    +0.003 A 
ATOM      3  C   UNL     1       6.810  -4.663  24.475  0.00  0.00    +0.047 A 
ATOM      4  C   UNL     1       5.981  -5.460  25.276  0.00  0.00    +0.026 A 
ATOM      5  C   UNL     1       6.395  -5.711  26.587  0.00  0.00    +0.002 A 
ATOM      6  C   UNL     1       7.591  -5.186  27.071  0.00  0.00    +0.001 A 
ATOM      7  N   UNL     1       6.649  -4.258  23.172  0.00  0.00    -0.360 N 
ATOM      8  H   UNL     1       5.858  -4.502  22.592  0.00  0.00    +0.165 HD
ATOM      9  C   UNL     1       8.407  -4.390  26.256  0.00  0.00    +0.010 A 
ATOM     10  C   UNL     1       7.702  -3.476  22.784  0.00  0.00    +0.087 A 
ENDROOT
BRANCH   1  11
ATOM     11  C   UNL     1       9.854  -2.571  23.850  0.00  0.00    +0.042 C 
BRANCH  11  12
ATOM     12  C   UNL     1      10.042  -1.759  22.564  0.00  0.00    +0.040 C 
BRANCH  12  13
ATOM     13  C   UNL     1      10.148  -0.274  22.821  0.00  0.00    -0.044 A 
ATOM     14  C   UNL     1       9.822   0.650  21.825  0.00  0.00    +0.023 A 
ATOM     15  C   UNL     1       9.946   2.003  22.102  0.00  0.00    +0.111 A 
ATOM     16  N   UNL     1      10.361   2.493  23.290  0.00  0.00    -0.263 NA
ATOM     17  C   UNL     1      10.663   1.585  24.242  0.00  0.00    +0.111 A 
ATOM     18  C   UNL     1      10.572   0.212  24.061  0.00  0.00    +0.023 A 
ENDBRANCH  12  13
ENDBRANCH  11  12
ENDBRANCH   1  11
TORSDOF 3
ENDMDL
MODEL 5
REMARK VINA RESULT:      -6.1      2.240      2.967
REMARK  Name = 
REMARK  3 active torsions:
REMARK  status: ('A' for Active; 'I' for Inactive)
REMARK    1  A    between atoms: C_1  and  C_2
REMARK    2  A    between atoms: C_1  and  C_9
REMARK    3  A    between atoms: C_2  and  C_3
REMARK                            x       y       z     vdW  Elec       q    Type
REMARK                         _______ _______ _______ _____ _____    ______ ____
ROOT
ATOM      1  C   UNL     1       9.505  -1.227  24.515  0.00  0.00    -0.022 A 
ATOM      2  C   UNL     1       9.658  -0.005  23.779  0.00  0.00    +0.003 A 
ATOM      3  C   UNL     1       9.366   1.048  24.647  0.00  0.00    +0.047 A 
ATOM      4  C   UNL     1       9.405   2.393  24.258  0.00  0.00    +0.026 A 
ATOM      5  C   UNL     1       9.756   2.675  22.935  0.00  0.00    +0.002 A 
ATOM      6  C   UNL     1      10.057   1.649  22.043  0.00  0.00    +0.001 A 
ATOM      7  N   UNL     1       9.052   0.493  25.864  0.00  0.00    -0.360 N 
ATOM      8  H   UNL     1       8.794   1.024  26.684  0.00  0.00    +0.165 HD
ATOM      9  C   UNL     1      10.011   0.308  22.449  0.00  0.00    +0.010 A 
ATOM     10  C   UNL     1       9.133  -0.871  25.798  0.00  0.00    +0.087 A 
ENDROOT
BRANCH   1  11
ATOM     11  C   UNL     1       9.690  -2.630  24.015  0.00  0.00    +0.042 C 
BRANCH  11  12
ATOM     12  C   UNL     1       8.366  -3.287  23.609  0.00  0.00    +0.040 C 
BRANCH  12  13
ATOM     13  C   UNL     1       7.811  -4.194  24.681  0.00  0.00    -0.044 A 
ATOM     14  C   UNL     1       6.534  -4.749  24.559  0.00  0.00    +0.023 A 
ATOM     15  C   UNL     1       6.061  -5.567  25.574  0.00  0.00    +0.111 A 
ATOM     16  N   UNL     1       6.766  -5.872  26.685  0.00  0.00    -0.263 NA
ATOM     17  C   UNL     1       8.000  -5.334  26.781  0.00  0.00    +0.111 A 
ATOM     18  C   UNL     1       8.561  -4.504  25.819  0.00  0.00    +0.023 A 
ENDBRANCH  12  13
ENDBRANCH  11  12
ENDBRANCH   1  11
TORSDOF 3
ENDMDL
MODEL 6
REMARK VINA RESULT:      -6.0      1.363      6.206
REMARK  Name = 
REMARK  3 active torsions:
REMARK  status: ('A' for Active; 'I' for Inactive)
REMARK    1  A    between atoms: C_1  and  C_2
REMARK    2  A    between atoms: C_1  and  C_9
REMARK    3  A    between atoms: C_2  and  C_3
REMARK                            x       y       z     vdW  Elec       q    Type
REMARK                         _______ _______ _______ _____ _____    ______ ____
ROOT
ATOM      1  C   UNL     1       7.929  -2.709  23.974  0.00  0.00    -0.022 A 
ATOM      2  C   UNL     1       7.205  -3.811  23.406  0.00  0.00    +0.003 A 
ATOM      3  C   UNL     1       5.846  -3.499  23.472  0.00  0.00    +0.047 A 
ATOM      4  C   UNL     1       4.841  -4.361  23.013  0.00  0.00    +0.026 A 
ATOM      5  C   UNL     1       5.236  -5.585  22.466  0.00  0.00    +0.002 A 
ATOM      6  C   UNL     1       6.584  -5.926  22.382  0.00  0.00    +0.001 A 
ATOM      7  N   UNL     1       5.745  -2.257  24.051  0.00  0.00    -0.360 N 
ATOM      8  H   UNL     1       4.871  -1.780  24.228  0.00  0.00    +0.165 HD
ATOM      9  C   UNL     1       7.576  -5.053  22.847  0.00  0.00    +0.010 A 
ATOM     10  C   UNL     1       6.987  -1.773  24.355  0.00  0.00    +0.087 A 
ENDROOT
BRANCH   1  11
ATOM     11  C   UNL     1       9.414  -2.578  24.145  0.00  0.00    +0.042 C 
BRANCH  11  12
ATOM     12  C   UNL     1      10.094  -1.968  22.914  0.00  0.00    +0.040 C 
BRANCH  12  13
ATOM     13  C   UNL     1      10.158  -0.460  22.969  0.00  0.00    -0.044 A 
ATOM     14  C   UNL     1       9.806   0.312  21.859  0.00  0.00    +0.023 A 
ATOM     15  C   UNL     1       9.892   1.693  21.951  0.00  0.00    +0.111 A 
ATOM     16  N   UNL     1      10.294   2.350  23.061  0.00  0.00    -0.263 NA
ATOM     17  C   UNL     1      10.621   1.587  24.125  0.00  0.00    +0.111 A 
ATOM     18  C   UNL     1      10.568   0.200  24.130  0.00  0.00    +0.023 A 
ENDBRANCH  12  13
ENDBRANCH  11  12
ENDBRANCH   1  11
TORSDOF 3
ENDMDL
MODEL 7
REMARK VINA RESULT:      -5.9      1.518      2.103
REMARK  Name = 
REMARK  3 active torsions:
REMARK  status: ('A' for Active; 'I' for Inactive)
REMARK    1  A    between atoms: C_1  and  C_2
REMARK    2  A    between atoms: C_1  and  C_9
REMARK    3  A    between atoms: C_2  and  C_3
REMARK                            x       y       z     vdW  Elec       q    Type
REMARK                         _______ _______ _______ _____ _____    ______ ____
ROOT
ATOM      1  C   UNL     1       8.937  -1.948  23.947  0.00  0.00    -0.022 A 
ATOM      2  C   UNL     1       8.500  -0.760  23.271  0.00  0.00    +0.003 A 
ATOM      3  C   UNL     1       9.489  -0.414  22.348  0.00  0.00    +0.047 A 
ATOM      4  C   UNL     1       9.398   0.708  21.515  0.00  0.00    +0.026 A 
ATOM      5  C   UNL     1       8.256   1.507  21.625  0.00  0.00    +0.002 A 
ATOM      6  C   UNL     1       7.248   1.189  22.532  0.00  0.00    +0.001 A 
ATOM      7  N   UNL     1      10.485  -1.354  22.453  0.00  0.00    -0.360 N 
ATOM      8  H   UNL     1      11.334  -1.350  21.904  0.00  0.00    +0.165 HD
ATOM      9  C   UNL     1       7.357   0.063  23.359  0.00  0.00    +0.010 A 
ATOM     10  C   UNL     1      10.166  -2.280  23.408  0.00  0.00    +0.087 A 
ENDROOT
BRANCH   1  11
ATOM     11  C   UNL     1       8.228  -2.696  25.038  0.00  0.00    +0.042 C 
BRANCH  11  12
ATOM     12  C   UNL     1       8.201  -4.208  24.788  0.00  0.00    +0.040 C 
BRANCH  12  13
ATOM     13  C   UNL     1       7.161  -4.614  23.771  0.00  0.00    -0.044 A 
ATOM     14  C   UNL     1       5.854  -4.127  23.850  0.00  0.00    +0.023 A 
ATOM     15  C   UNL     1       4.929  -4.536  22.900  0.00  0.00    +0.111 A 
ATOM     16  N   UNL     1       5.216  -5.381  21.886  0.00  0.00    -0.263 NA
ATOM     17  C   UNL     1       6.486  -5.834  21.822  0.00  0.00    +0.111 A 
ATOM     18  C   UNL     1       7.481  -5.483  22.724  0.00  0.00    +0.023 A 
ENDBRANCH  12  13
ENDBRANCH  11  12
ENDBRANCH   1  11
TORSDOF 3
ENDMDL
MODEL 8
REMARK VINA RESULT:      -5.9      1.995      6.224
REMARK  Name = 
REMARK  3 active torsions:
REMARK  status: ('A' for Active; 'I' for Inactive)
REMARK    1  A    between atoms: C_1  and  C_2
REMARK    2  A    between atoms: C_1  and  C_9
REMARK    3  A    between atoms: C_2  and  C_3
REMARK                            x       y       z     vdW  Elec       q    Type
REMARK                         _______ _______ _______ _____ _____    ______ ____
ROOT
ATOM      1  C   UNL     1       8.975  -2.026  22.617  0.00  0.00    -0.022 A 
ATOM      2  C   UNL     1       7.972  -3.037  22.799  0.00  0.00    +0.003 A 
ATOM      3  C   UNL     1       8.361  -3.824  23.885  0.00  0.00    +0.047 A 
ATOM      4  C   UNL     1       7.616  -4.919  24.340  0.00  0.00    +0.026 A 
ATOM      5  C   UNL     1       6.430  -5.223  23.665  0.00  0.00    +0.002 A 
ATOM      6  C   UNL     1       6.011  -4.457  22.580  0.00  0.00    +0.001 A 
ATOM      7  N   UNL     1       9.548  -3.312  24.349  0.00  0.00    -0.360 N 
ATOM      8  H   UNL     1      10.065  -3.689  25.132  0.00  0.00    +0.165 HD
ATOM      9  C   UNL     1       6.770  -3.365  22.137  0.00  0.00    +0.010 A 
ATOM     10  C   UNL     1       9.926  -2.233  23.598  0.00  0.00    +0.087 A 
ENDROOT
BRANCH   1  11
ATOM     11  C   UNL     1       9.016  -0.953  21.569  0.00  0.00    +0.042 C 
BRANCH  11  12
ATOM     12  C   UNL     1      10.049   0.135  21.886  0.00  0.00    +0.040 C 
BRANCH  12  13
ATOM     13  C   UNL     1       9.414   1.438  22.310  0.00  0.00    -0.044 A 
ATOM     14  C   UNL     1       8.219   1.874  21.731  0.00  0.00    +0.023 A 
ATOM     15  C   UNL     1       7.679   3.083  22.143  0.00  0.00    +0.111 A 
ATOM     16  N   UNL     1       8.236   3.874  23.085  0.00  0.00    -0.263 NA
ATOM     17  C   UNL     1       9.385   3.432  23.639  0.00  0.00    +0.111 A 
ATOM     18  C   UNL     1      10.003   2.238  23.293  0.00  0.00    +0.023 A 
ENDBRANCH  12  13
ENDBRANCH  11  12
ENDBRANCH   1  11
TORSDOF 3
ENDMDL
MODEL 9
REMARK VINA RESULT:      -5.8      1.753      5.807
REMARK  Name = 
REMARK  3 active torsions:
REMARK  status: ('A' for Active; 'I' for Inactive)
REMARK    1  A    between atoms: C_1  and  C_2
REMARK    2  A    between atoms: C_1  and  C_9
REMARK    3  A    between atoms: C_2  and  C_3
REMARK                            x       y       z     vdW  Elec       q    Type
REMARK                         _______ _______ _______ _____ _____    ______ ____
ROOT
ATOM      1  C   UNL     1       9.012  -3.456  24.127  0.00  0.00    -0.022 A 
ATOM      2  C   UNL     1       7.776  -3.780  23.473  0.00  0.00    +0.003 A 
ATOM      3  C   UNL     1       7.190  -4.833  24.178  0.00  0.00    +0.047 A 
ATOM      4  C   UNL     1       5.971  -5.415  23.810  0.00  0.00    +0.026 A 
ATOM      5  C   UNL     1       5.324  -4.904  22.681  0.00  0.00    +0.002 A 
ATOM      6  C   UNL     1       5.878  -3.852  21.956  0.00  0.00    +0.001 A 
ATOM      7  N   UNL     1       8.031  -5.135  25.223  0.00  0.00    -0.360 N 
ATOM      8  H   UNL     1       7.858  -5.865  25.900  0.00  0.00    +0.165 HD
ATOM      9  C   UNL     1       7.100  -3.283  22.338  0.00  0.00    +0.010 A 
ATOM     10  C   UNL     1       9.126  -4.316  25.204  0.00  0.00    +0.087 A 
ENDROOT
BRANCH   1  11
ATOM     11  C   UNL     1      10.010  -2.406  23.736  0.00  0.00    +0.042 C 
BRANCH  11  12
ATOM     12  C   UNL     1       9.723  -1.052  24.393  0.00  0.00    +0.040 C 
BRANCH  12  13
ATOM     13  C   UNL     1       9.175  -0.034  23.420  0.00  0.00    -0.044 A 
ATOM     14  C   UNL     1       7.801   0.204  23.333  0.00  0.00    +0.023 A 
ATOM     15  C   UNL     1       7.342   1.139  22.416  0.00  0.00    +0.111 A 
ATOM     16  N   UNL     1       8.148   1.848  21.597  0.00  0.00    -0.263 NA
ATOM     17  C   UNL     1       9.472   1.610  21.703  0.00  0.00    +0.111 A 
ATOM     18  C   UNL     1      10.027   0.695  22.587  0.00  0.00    +0.023 A 
ENDBRANCH  12  13
ENDBRANCH  11  12
ENDBRANCH   1  11
TORSDOF 3
ENDMDL
