MODEL 1
REMARK VINA RESULT:      -5.5      0.000      0.000
REMARK  Name = 
REMARK  8 active torsions:
REMARK  status: ('A' for Active; 'I' for Inactive)
REMARK    1  A    between atoms: C_1  and  C_2
REMARK    2  A    between atoms: C_2  and  O_3
REMARK    3  A    between atoms: O_3  and  C_4
REMARK    4  A    between atoms: C_7  and  C_8
REMARK    5  A    between atoms: C_8  and  C_9
REMARK    6  A    between atoms: C_9  and  N_10
REMARK    7  A    between atoms: N_10  and  C_11
REMARK    8  A    between atoms: C_11  and  N_13
REMARK                            x       y       z     vdW  Elec       q    Type
REMARK                         _______ _______ _______ _____ _____    ______ ____
ROOT
ATOM      1  N   UNL     1       7.310  -2.439  24.041  0.00  0.00    -0.326 N 
ATOM      2  H   UNL     1       6.989  -1.806  23.309  0.00  0.00    +0.148 HD
ENDROOT
BRANCH   1   3
ATOM      3  C   UNL     1       6.865  -2.070  25.277  0.00  0.00    +0.136 C 
ATOM      4  S   UNL     1       5.859  -2.950  26.278  0.00  0.00    -0.019 S 
BRANCH   3   5
ATOM      5  N   UNL     1       7.222  -0.823  25.709  0.00  0.00    -0.282 N 
ATOM      6  H   UNL     1       7.784  -0.831  26.550  0.00  0.00    +0.155 HD
ATOM      7  C   UNL     1       7.053   0.411  25.070  0.00  0.00    +0.124 A 
ATOM      8  C   UNL     1       7.454   1.553  25.756  0.00  0.00    +0.045 A 
ATOM      9  C   UNL     1       7.374   2.792  25.117  0.00  0.00    +0.025 A 
ATOM     10  C   UNL     1       6.921   2.847  23.807  0.00  0.00    +0.059 A 
ATOM     11 CL   UNL     1       6.840   4.340  22.969  0.00  0.00    -0.082 Cl
ATOM     12  C   UNL     1       6.542   1.663  23.195  0.00  0.00    +0.132 A 
ATOM     13  N   UNL     1       6.578   0.451  23.806  0.00  0.00    -0.239 NA
ENDBRANCH   3   5
ENDBRANCH   1   3
BRANCH   1  14
ATOM     14  C   UNL     1       8.485  -3.239  23.698  0.00  0.00    +0.109 C 
BRANCH  14  15
ATOM     15  C   UNL     1       9.836  -2.551  23.913  0.00  0.00    +0.077 C 
BRANCH  15  20
ATOM     16  C   UNL     1      10.324   1.150  23.206  0.00  0.00    +0.159 A 
ATOM     17  C   UNL     1       9.849   1.198  21.898  0.00  0.00    +0.068 A 
ATOM     18  C   UNL     1       9.402   0.019  21.315  0.00  0.00    +0.115 A 
ATOM     19  N   UNL     1       9.396  -1.180  21.936  0.00  0.00    -0.257 NA
ATOM     20  C   UNL     1       9.871  -1.219  23.207  0.00  0.00    +0.081 A 
ATOM     21  C   UNL     1      10.333  -0.081  23.865  0.00  0.00    +0.186 A 
ATOM     22  F   UNL     1      10.774  -0.166  25.129  0.00  0.00    -0.200 F 
BRANCH  16  23
ATOM     23  O   UNL     1      10.788   2.223  23.922  0.00  0.00    -0.489 OA
BRANCH  23  25
ATOM     24  C   UNL     1      11.835   4.290  23.334  0.00  0.00    +0.048 C 
ATOM     25  C   UNL     1      10.526   3.524  23.397  0.00  0.00    +0.226 C 
ENDBRANCH  23  25
ENDBRANCH  16  23
ENDBRANCH  15  20
ENDBRANCH  14  15
ENDBRANCH   1  14
TORSDOF 7
ENDMDL
MODEL 2
REMARK VINA RESULT:      -5.5      4.424      6.935
REMARK  Name = 
REMARK  8 active torsions:
REMARK  status: ('A' for Active; 'I' for Inactive)
REMARK    1  A    between atoms: C_1  and  C_2
REMARK    2  A    between atoms: C_2  and  O_3
REMARK    3  A    between atoms: O_3  and  C_4
REMARK    4  A    between atoms: C_7  and  C_8
REMARK    5  A    between atoms: C_8  and  C_9
REMARK    6  A    between atoms: C_9  and  N_10
REMARK    7  A    between atoms: N_10  and  C_11
REMARK    8  A    between atoms: C_11  and  N_13
REMARK                            x       y       z     vdW  Elec       q    Type
REMARK                         _______ _______ _______ _____ _____    ______ ____
ROOT
ATOM      1  N   UNL     1       8.187  -0.646  23.946  0.00  0.00    -0.326 N 
ATOM      2  H   UNL     1       7.169  -0.609  23.986  0.00  0.00    +0.148 HD
ENDROOT
BRANCH   1   3
ATOM      3  C   UNL     1       8.644  -1.098  22.742  0.00  0.00    +0.136 C 
ATOM      4  S   UNL     1       9.375  -0.188  21.548  0.00  0.00    -0.019 S 
BRANCH   3   5
ATOM      5  N   UNL     1       8.416  -2.415  22.457  0.00  0.00    -0.282 N 
ATOM      6  H   UNL     1       9.258  -2.939  22.256  0.00  0.00    +0.155 HD
ATOM      7  C   UNL     1       7.225  -3.144  22.561  0.00  0.00    +0.124 A 
ATOM      8  C   UNL     1       7.243  -4.473  22.148  0.00  0.00    +0.045 A 
ATOM      9  C   UNL     1       6.097  -5.251  22.313  0.00  0.00    +0.025 A 
ATOM     10  C   UNL     1       4.978  -4.686  22.908  0.00  0.00    +0.059 A 
ATOM     11 CL   UNL     1       3.559  -5.613  23.165  0.00  0.00    -0.082 Cl
ATOM     12  C   UNL     1       5.043  -3.357  23.292  0.00  0.00    +0.132 A 
ATOM     13  N   UNL     1       6.133  -2.569  23.112  0.00  0.00    -0.239 NA
ENDBRANCH   3   5
ENDBRANCH   1   3
BRANCH   1  14
ATOM     14  C   UNL     1       8.856  -0.683  25.246  0.00  0.00    +0.109 C 
BRANCH  14  15
ATOM     15  C   UNL     1       8.133  -1.478  26.337  0.00  0.00    +0.077 C 
BRANCH  15  20
ATOM     16  C   UNL     1       7.491  -5.222  26.406  0.00  0.00    +0.159 A 
ATOM     17  C   UNL     1       8.578  -5.656  25.652  0.00  0.00    +0.068 A 
ATOM     18  C   UNL     1       9.458  -4.702  25.156  0.00  0.00    +0.115 A 
ATOM     19  N   UNL     1       9.330  -3.373  25.358  0.00  0.00    -0.257 NA
ATOM     20  C   UNL     1       8.261  -2.959  26.085  0.00  0.00    +0.081 A 
ATOM     21  C   UNL     1       7.335  -3.851  26.621  0.00  0.00    +0.186 A 
ATOM     22  F   UNL     1       6.306  -3.396  27.351  0.00  0.00    -0.200 F 
BRANCH  16  23
ATOM     23  O   UNL     1       6.543  -6.036  26.972  0.00  0.00    -0.489 OA
BRANCH  23  25
ATOM     24  C   UNL     1       4.159  -6.181  27.042  0.00  0.00    +0.048 C 
ATOM     25  C   UNL     1       5.398  -6.354  26.182  0.00  0.00    +0.226 C 
ENDBRANCH  23  25
ENDBRANCH  16  23
ENDBRANCH  15  20
ENDBRANCH  14  15
ENDBRANCH   1  14
TORSDOF 7
ENDMDL
MODEL 3
REMARK VINA RESULT:      -5.5      3.499      5.673
REMARK  Name = 
REMARK  8 active torsions:
REMARK  status: ('A' for Active; 'I' for Inactive)
REMARK    1  A    between atoms: C_1  and  C_2
REMARK    2  A    between atoms: C_2  and  O_3
REMARK    3  A    between atoms: O_3  and  C_4
REMARK    4  A    between atoms: C_7  and  C_8
REMARK    5  A    between atoms: C_8  and  C_9
REMARK    6  A    between atoms: C_9  and  N_10
REMARK    7  A    between atoms: N_10  and  C_11
REMARK    8  A    between atoms: C_11  and  N_13
REMARK                            x       y       z     vdW  Elec       q    Type
REMARK                         _______ _______ _______ _____ _____    ______ ____
ROOT
ATOM      1  N   UNL     1       8.490   0.289  22.345  0.00  0.00    -0.326 N 
ATOM      2  H   UNL     1       8.502  -0.338  21.541  0.00  0.00    +0.148 HD
ENDROOT
BRANCH   1   3
ATOM      3  C   UNL     1       7.230   0.703  22.662  0.00  0.00    +0.136 C 
ATOM      4  S   UNL     1       6.580   2.218  22.391  0.00  0.00    -0.019 S 
BRANCH   3   5
ATOM      5  N   UNL     1       6.442  -0.191  23.333  0.00  0.00    -0.282 N 
ATOM      6  H   UNL     1       5.705   0.243  23.872  0.00  0.00    +0.155 HD
ATOM      7  C   UNL     1       6.426  -1.588  23.243  0.00  0.00    +0.124 A 
ATOM      8  C   UNL     1       5.560  -2.278  24.086  0.00  0.00    +0.045 A 
ATOM      9  C   UNL     1       5.459  -3.665  23.967  0.00  0.00    +0.025 A 
ATOM     10  C   UNL     1       6.206  -4.315  22.995  0.00  0.00    +0.059 A 
ATOM     11 CL   UNL     1       6.088  -6.012  22.787  0.00  0.00    -0.082 Cl
ATOM     12  C   UNL     1       7.043  -3.553  22.196  0.00  0.00    +0.132 A 
ATOM     13  N   UNL     1       7.185  -2.209  22.314  0.00  0.00    -0.239 NA
ENDBRANCH   3   5
ENDBRANCH   1   3
BRANCH   1  14
ATOM     14  C   UNL     1       9.765   0.943  22.639  0.00  0.00    +0.109 C 
BRANCH  14  15
ATOM     15  C   UNL     1      10.683   0.194  23.608  0.00  0.00    +0.077 C 
BRANCH  15  20
ATOM     16  C   UNL     1       9.031  -2.740  25.369  0.00  0.00    +0.159 A 
ATOM     17  C   UNL     1       8.320  -2.051  26.347  0.00  0.00    +0.068 A 
ATOM     18  C   UNL     1       8.423  -0.666  26.383  0.00  0.00    +0.115 A 
ATOM     19  N   UNL     1       9.171   0.062  25.527  0.00  0.00    -0.257 NA
ATOM     20  C   UNL     1       9.870  -0.620  24.584  0.00  0.00    +0.081 A 
ATOM     21  C   UNL     1       9.818  -2.008  24.477  0.00  0.00    +0.186 A 
ATOM     22  F   UNL     1      10.510  -2.637  23.516  0.00  0.00    -0.200 F 
BRANCH  16  23
ATOM     23  O   UNL     1       9.027  -4.101  25.195  0.00  0.00    -0.489 OA
BRANCH  23  25
ATOM     24  C   UNL     1       7.517  -5.505  26.404  0.00  0.00    +0.048 C 
ATOM     25  C   UNL     1       8.914  -4.910  26.365  0.00  0.00    +0.226 C 
ENDBRANCH  23  25
ENDBRANCH  16  23
ENDBRANCH  15  20
ENDBRANCH  14  15
ENDBRANCH   1  14
TORSDOF 7
ENDMDL
MODEL 4
REMARK VINA RESULT:      -5.5      2.844      4.663
REMARK  Name = 
REMARK  8 active torsions:
REMARK  status: ('A' for Active; 'I' for Inactive)
REMARK    1  A    between atoms: C_1  and  C_2
REMARK    2  A    between atoms: C_2  and  O_3
REMARK    3  A    between atoms: O_3  and  C_4
REMARK    4  A    between atoms: C_7  and  C_8
REMARK    5  A    between atoms: C_8  and  C_9
REMARK    6  A    between atoms: C_9  and  N_10
REMARK    7  A    between atoms: N_10  and  C_11
REMARK    8  A    between atoms: C_11  and  N_13
REMARK                            x       y       z     vdW  Elec       q    Type
REMARK                         _______ _______ _______ _____ _____    ______ ____
ROOT
ATOM      1  N   UNL     1       8.509   3.285  24.063  0.00  0.00    -0.326 N 
ATOM      2  H   UNL     1       7.770   3.283  23.360  0.00  0.00    +0.148 HD
ENDROOT
BRANCH   1   3
ATOM      3  C   UNL     1       8.019   3.379  25.332  0.00  0.00    +0.136 C 
ATOM      4  S   UNL     1       7.511   4.771  26.105  0.00  0.00    -0.019 S 
BRANCH   3   5
ATOM      5  N   UNL     1       8.006   2.229  26.071  0.00  0.00    -0.282 N 
ATOM      6  H   UNL     1       8.307   2.358  27.027  0.00  0.00    +0.155 HD
ATOM      7  C   UNL     1       7.495   0.971  25.730  0.00  0.00    +0.124 A 
ATOM      8  C   UNL     1       7.662  -0.063  26.646  0.00  0.00    +0.045 A 
ATOM      9  C   UNL     1       7.094  -1.309  26.374  0.00  0.00    +0.025 A 
ATOM     10  C   UNL     1       6.357  -1.475  25.210  0.00  0.00    +0.059 A 
ATOM     11 CL   UNL     1       5.611  -2.976  24.852  0.00  0.00    -0.082 Cl
ATOM     12  C   UNL     1       6.238  -0.394  24.352  0.00  0.00    +0.132 A 
ATOM     13  N   UNL     1       6.808   0.817  24.576  0.00  0.00    -0.239 NA
ENDBRANCH   3   5
ENDBRANCH   1   3
BRANCH   1  14
ATOM     14  C   UNL     1       9.832   3.662  23.567  0.00  0.00    +0.109 C 
BRANCH  14  15
ATOM     15  C   UNL     1      10.893   2.558  23.614  0.00  0.00    +0.077 C 
BRANCH  15  20
ATOM     16  C   UNL     1       9.827  -1.086  23.492  0.00  0.00    +0.159 A 
ATOM     17  C   UNL     1       9.310  -1.131  22.200  0.00  0.00    +0.068 A 
ATOM     18  C   UNL     1       9.331   0.032  21.441  0.00  0.00    +0.115 A 
ATOM     19  N   UNL     1       9.824   1.212  21.874  0.00  0.00    -0.257 NA
ATOM     20  C   UNL     1      10.315   1.249  23.139  0.00  0.00    +0.081 A 
ATOM     21  C   UNL     1      10.334   0.126  23.964  0.00  0.00    +0.186 A 
ATOM     22  F   UNL     1      10.849   0.206  25.199  0.00  0.00    -0.200 F 
BRANCH  16  23
ATOM     23  O   UNL     1       9.887  -2.147  24.360  0.00  0.00    -0.489 OA
BRANCH  23  25
ATOM     24  C   UNL     1       9.362  -4.357  25.101  0.00  0.00    +0.048 C 
ATOM     25  C   UNL     1       9.193  -3.337  23.989  0.00  0.00    +0.226 C 
ENDBRANCH  23  25
ENDBRANCH  16  23
ENDBRANCH  15  20
ENDBRANCH  14  15
ENDBRANCH   1  14
TORSDOF 7
ENDMDL
MODEL 5
REMARK VINA RESULT:      -5.3      3.684      5.013
REMARK  Name = 
REMARK  8 active torsions:
REMARK  status: ('A' for Active; 'I' for Inactive)
REMARK    1  A    between atoms: C_1  and  C_2
REMARK    2  A    between atoms: C_2  and  O_3
REMARK    3  A    between atoms: O_3  and  C_4
REMARK    4  A    between atoms: C_7  and  C_8
REMARK    5  A    between atoms: C_8  and  C_9
REMARK    6  A    between atoms: C_9  and  N_10
REMARK    7  A    between atoms: N_10  and  C_11
REMARK    8  A    between atoms: C_11  and  N_13
REMARK                            x       y       z     vdW  Elec       q    Type
REMARK                         _______ _______ _______ _____ _____    ______ ____
ROOT
ATOM      1  N   UNL     1       5.308  -6.754  23.356  0.00  0.00    -0.326 N 
ATOM      2  H   UNL     1       5.349  -7.734  23.076  0.00  0.00    +0.148 HD
ENDROOT
BRANCH   1   3
ATOM      3  C   UNL     1       4.749  -6.588  24.589  0.00  0.00    +0.136 C 
ATOM      4  S   UNL     1       3.244  -7.121  25.081  0.00  0.00    -0.019 S 
BRANCH   3   5
ATOM      5  N   UNL     1       5.463  -5.851  25.492  0.00  0.00    -0.282 N 
ATOM      6  H   UNL     1       6.136  -6.394  26.016  0.00  0.00    +0.155 HD
ATOM      7  C   UNL     1       5.497  -4.462  25.662  0.00  0.00    +0.124 A 
ATOM      8  C   UNL     1       6.270  -3.958  26.704  0.00  0.00    +0.045 A 
ATOM      9  C   UNL     1       6.389  -2.576  26.853  0.00  0.00    +0.025 A 
ATOM     10  C   UNL     1       5.755  -1.742  25.943  0.00  0.00    +0.059 A 
ATOM     11 CL   UNL     1       5.903  -0.038  26.064  0.00  0.00    -0.082 Cl
ATOM     12  C   UNL     1       5.006  -2.324  24.934  0.00  0.00    +0.132 A 
ATOM     13  N   UNL     1       4.845  -3.664  24.788  0.00  0.00    -0.239 NA
ENDBRANCH   3   5
ENDBRANCH   1   3
BRANCH   1  14
ATOM     14  C   UNL     1       5.390  -5.793  22.256  0.00  0.00    +0.109 C 
BRANCH  14  15
ATOM     15  C   UNL     1       6.799  -5.526  21.719  0.00  0.00    +0.077 C 
BRANCH  15  20
ATOM     16  C   UNL     1       8.604  -2.791  23.643  0.00  0.00    +0.159 A 
ATOM     17  C   UNL     1       9.219  -3.567  24.621  0.00  0.00    +0.068 A 
ATOM     18  C   UNL     1       9.007  -4.940  24.604  0.00  0.00    +0.115 A 
ATOM     19  N   UNL     1       8.238  -5.578  23.696  0.00  0.00    -0.257 NA
ATOM     20  C   UNL     1       7.633  -4.812  22.752  0.00  0.00    +0.081 A 
ATOM     21  C   UNL     1       7.798  -3.429  22.697  0.00  0.00    +0.186 A 
ATOM     22  F   UNL     1       7.196  -2.716  21.733  0.00  0.00    -0.200 F 
BRANCH  16  23
ATOM     23  O   UNL     1       8.722  -1.430  23.518  0.00  0.00    -0.489 OA
BRANCH  23  25
ATOM     24  C   UNL     1       9.516  -0.241  21.604  0.00  0.00    +0.048 C 
ATOM     25  C   UNL     1       9.906  -0.929  22.900  0.00  0.00    +0.226 C 
ENDBRANCH  23  25
ENDBRANCH  16  23
ENDBRANCH  15  20
ENDBRANCH  14  15
ENDBRANCH   1  14
TORSDOF 7
ENDMDL
MODEL 6
REMARK VINA RESULT:      -5.3      3.356      5.008
REMARK  Name = 
REMARK  8 active torsions:
REMARK  status: ('A' for Active; 'I' for Inactive)
REMARK    1  A    between atoms: C_1  and  C_2
REMARK    2  A    between atoms: C_2  and  O_3
REMARK    3  A    between atoms: O_3  and  C_4
REMARK    4  A    between atoms: C_7  and  C_8
REMARK    5  A    between atoms: C_8  and  C_9
REMARK    6  A    between atoms: C_9  and  N_10
REMARK    7  A    between atoms: N_10  and  C_11
REMARK    8  A    between atoms: C_11  and  N_13
REMARK                            x       y       z     vdW  Elec       q    Type
REMARK                         _______ _______ _______ _____ _____    ______ ____
ROOT
ATOM      1  N   UNL     1       8.074  -0.341  23.978  0.00  0.00    -0.326 N 
ATOM      2  H   UNL     1       8.197   0.350  24.718  0.00  0.00    +0.148 HD
ENDROOT
BRANCH   1   3
ATOM      3  C   UNL     1       9.078  -1.264  23.957  0.00  0.00    +0.136 C 
ATOM      4  S   UNL     1      10.200  -1.490  22.741  0.00  0.00    -0.019 S 
BRANCH   3   5
ATOM      5  N   UNL     1       9.127  -2.139  25.007  0.00  0.00    -0.282 N 
ATOM      6  H   UNL     1       9.810  -1.891  25.710  0.00  0.00    +0.155 HD
ATOM      7  C   UNL     1       8.270  -3.206  25.302  0.00  0.00    +0.124 A 
ATOM      8  C   UNL     1       8.575  -3.990  26.411  0.00  0.00    +0.045 A 
ATOM      9  C   UNL     1       7.699  -5.012  26.781  0.00  0.00    +0.025 A 
ATOM     10  C   UNL     1       6.536  -5.202  26.049  0.00  0.00    +0.059 A 
ATOM     11 CL   UNL     1       5.412  -6.420  26.487  0.00  0.00    -0.082 Cl
ATOM     12  C   UNL     1       6.307  -4.377  24.960  0.00  0.00    +0.132 A 
ATOM     13  N   UNL     1       7.158  -3.399  24.559  0.00  0.00    -0.239 NA
ENDBRANCH   3   5
ENDBRANCH   1   3
BRANCH   1  14
ATOM     14  C   UNL     1       7.195   0.073  22.886  0.00  0.00    +0.109 C 
BRANCH  14  15
ATOM     15  C   UNL     1       7.728   1.205  22.003  0.00  0.00    +0.077 C 
BRANCH  15  20
ATOM     16  C   UNL     1      10.291   3.570  23.511  0.00  0.00    +0.159 A 
ATOM     17  C   UNL     1       9.491   4.201  24.460  0.00  0.00    +0.068 A 
ATOM     18  C   UNL     1       8.157   3.825  24.551  0.00  0.00    +0.115 A 
ATOM     19  N   UNL     1       7.579   2.882  23.778  0.00  0.00    -0.257 NA
ATOM     20  C   UNL     1       8.364   2.280  22.848  0.00  0.00    +0.081 A 
ATOM     21  C   UNL     1       9.712   2.596  22.694  0.00  0.00    +0.186 A 
ATOM     22  F   UNL     1      10.454   1.960  21.775  0.00  0.00    -0.200 F 
BRANCH  16  23
ATOM     23  O   UNL     1      11.624   3.820  23.304  0.00  0.00    -0.489 OA
BRANCH  23  25
ATOM     24  C   UNL     1      13.071   5.461  22.342  0.00  0.00    +0.048 C 
ATOM     25  C   UNL     1      12.066   5.169  23.442  0.00  0.00    +0.226 C 
ENDBRANCH  23  25
ENDBRANCH  16  23
ENDBRANCH  15  20
ENDBRANCH  14  15
ENDBRANCH   1  14
TORSDOF 7
ENDMDL
MODEL 7
REMARK VINA RESULT:      -5.2      3.631      5.963
REMARK  Name = 
REMARK  8 active torsions:
REMARK  status: ('A' for Active; 'I' for Inactive)
REMARK    1  A    between atoms: C_1  and  C_2
REMARK    2  A    between atoms: C_2  and  O_3
REMARK    3  A    between atoms: O_3  and  C_4
REMARK    4  A    between atoms: C_7  and  C_8
REMARK    5  A    between atoms: C_8  and  C_9
REMARK    6  A    between atoms: C_9  and  N_10
REMARK    7  A    between atoms: N_10  and  C_11
REMARK    8  A    between atoms: C_11  and  N_13
REMARK                            x       y       z     vdW  Elec       q    Type
REMARK                         _______ _______ _______ _____ _____    ______ ____
ROOT
ATOM      1  N   UNL     1       7.488  -2.859  22.407  0.00  0.00    -0.326 N 
ATOM      2  H   UNL     1       8.398  -2.797  21.951  0.00  0.00    +0.148 HD
ENDROOT
BRANCH   1   3
ATOM      3  C   UNL     1       7.400  -2.048  23.501  0.00  0.00    +0.136 C 
ATOM      4  S   UNL     1       5.999  -1.484  24.214  0.00  0.00    -0.019 S 
BRANCH   3   5
ATOM      5  N   UNL     1       8.579  -1.596  24.024  0.00  0.00    -0.282 N 
ATOM      6  H   UNL     1       9.140  -2.322  24.448  0.00  0.00    +0.155 HD
ATOM      7  C   UNL     1       9.163  -0.329  23.908  0.00  0.00    +0.124 A 
ATOM      8  C   UNL     1      10.354  -0.102  24.592  0.00  0.00    +0.045 A 
ATOM      9  C   UNL     1      11.005   1.122  24.434  0.00  0.00    +0.025 A 
ATOM     10  C   UNL     1      10.460   2.071  23.580  0.00  0.00    +0.059 A 
ATOM     11 CL   UNL     1      11.243   3.574  23.325  0.00  0.00    -0.082 Cl
ATOM     12  C   UNL     1       9.273   1.765  22.935  0.00  0.00    +0.132 A 
ATOM     13  N   UNL     1       8.602   0.596  23.098  0.00  0.00    -0.239 NA
ENDBRANCH   3   5
ENDBRANCH   1   3
BRANCH   1  14
ATOM     14  C   UNL     1       6.726  -4.071  22.108  0.00  0.00    +0.109 C 
BRANCH  14  15
ATOM     15  C   UNL     1       7.304  -5.370  22.676  0.00  0.00    +0.077 C 
BRANCH  15  20
ATOM     16  C   UNL     1       7.271  -4.899  26.446  0.00  0.00    +0.159 A 
ATOM     17  C   UNL     1       8.635  -4.731  26.668  0.00  0.00    +0.068 A 
ATOM     18  C   UNL     1       9.492  -4.787  25.577  0.00  0.00    +0.115 A 
ATOM     19  N   UNL     1       9.090  -4.994  24.305  0.00  0.00    -0.257 NA
ATOM     20  C   UNL     1       7.759  -5.168  24.099  0.00  0.00    +0.081 A 
ATOM     21  C   UNL     1       6.832  -5.122  25.139  0.00  0.00    +0.186 A 
ATOM     22  F   UNL     1       5.525  -5.279  24.884  0.00  0.00    -0.200 F 
BRANCH  16  23
ATOM     23  O   UNL     1       6.298  -4.860  27.412  0.00  0.00    -0.489 OA
BRANCH  23  25
ATOM     24  C   UNL     1       5.113  -6.856  27.980  0.00  0.00    +0.048 C 
ATOM     25  C   UNL     1       6.263  -5.936  28.349  0.00  0.00    +0.226 C 
ENDBRANCH  23  25
ENDBRANCH  16  23
ENDBRANCH  15  20
ENDBRANCH  14  15
ENDBRANCH   1  14
TORSDOF 7
ENDMDL
MODEL 8
REMARK VINA RESULT:      -5.2      2.760      3.768
REMARK  Name = 
REMARK  8 active torsions:
REMARK  status: ('A' for Active; 'I' for Inactive)
REMARK    1  A    between atoms: C_1  and  C_2
REMARK    2  A    between atoms: C_2  and  O_3
REMARK    3  A    between atoms: O_3  and  C_4
REMARK    4  A    between atoms: C_7  and  C_8
REMARK    5  A    between atoms: C_8  and  C_9
REMARK    6  A    between atoms: C_9  and  N_10
REMARK    7  A    between atoms: N_10  and  C_11
REMARK    8  A    between atoms: C_11  and  N_13
REMARK                            x       y       z     vdW  Elec       q    Type
REMARK                         _______ _______ _______ _____ _____    ______ ____
ROOT
ATOM      1  N   UNL     1       5.405  -3.909  25.089  0.00  0.00    -0.326 N 
ATOM      2  H   UNL     1       5.632  -3.140  24.460  0.00  0.00    +0.148 HD
ENDROOT
BRANCH   1   3
ATOM      3  C   UNL     1       5.553  -3.568  26.402  0.00  0.00    +0.136 C 
ATOM      4  S   UNL     1       4.428  -3.773  27.619  0.00  0.00    -0.019 S 
BRANCH   3   5
ATOM      5  N   UNL     1       6.714  -2.929  26.741  0.00  0.00    -0.282 N 
ATOM      6  H   UNL     1       7.341  -3.496  27.296  0.00  0.00    +0.155 HD
ATOM      7  C   UNL     1       7.198  -1.693  26.297  0.00  0.00    +0.124 A 
ATOM      8  C   UNL     1       8.392  -1.234  26.845  0.00  0.00    +0.045 A 
ATOM      9  C   UNL     1       8.945  -0.045  26.368  0.00  0.00    +0.025 A 
ATOM     10  C   UNL     1       8.303   0.634  25.342  0.00  0.00    +0.059 A 
ATOM     11 CL   UNL     1       8.964   2.078  24.698  0.00  0.00    -0.082 Cl
ATOM     12  C   UNL     1       7.119   0.108  24.851  0.00  0.00    +0.132 A 
ATOM     13  N   UNL     1       6.543  -1.027  25.321  0.00  0.00    -0.239 NA
ENDBRANCH   3   5
ENDBRANCH   1   3
BRANCH   1  14
ATOM     14  C   UNL     1       5.454  -5.239  24.483  0.00  0.00    +0.109 C 
BRANCH  14  15
ATOM     15  C   UNL     1       6.459  -5.406  23.340  0.00  0.00    +0.077 C 
BRANCH  15  20
ATOM     16  C   UNL     1       8.722  -2.423  22.697  0.00  0.00    +0.159 A 
ATOM     17  C   UNL     1       9.668  -2.632  23.697  0.00  0.00    +0.068 A 
ATOM     18  C   UNL     1       9.512  -3.732  24.531  0.00  0.00    +0.115 A 
ATOM     19  N   UNL     1       8.499  -4.619  24.437  0.00  0.00    -0.257 NA
ATOM     20  C   UNL     1       7.575  -4.400  23.466  0.00  0.00    +0.081 A 
ATOM     21  C   UNL     1       7.661  -3.323  22.586  0.00  0.00    +0.186 A 
ATOM     22  F   UNL     1       6.736  -3.160  21.629  0.00  0.00    -0.200 F 
BRANCH  16  23
ATOM     23  O   UNL     1       8.740  -1.394  21.790  0.00  0.00    -0.489 OA
BRANCH  23  25
ATOM     24  C   UNL     1       9.254   0.916  21.456  0.00  0.00    +0.048 C 
ATOM     25  C   UNL     1       9.786  -0.431  21.913  0.00  0.00    +0.226 C 
ENDBRANCH  23  25
ENDBRANCH  16  23
ENDBRANCH  15  20
ENDBRANCH  14  15
ENDBRANCH   1  14
TORSDOF 7
ENDMDL
MODEL 9
REMARK VINA RESULT:      -5.2      4.344      6.013
REMARK  Name = 
REMARK  8 active torsions:
REMARK  status: ('A' for Active; 'I' for Inactive)
REMARK    1  A    between atoms: C_1  and  C_2
REMARK    2  A    between atoms: C_2  and  O_3
REMARK    3  A    between atoms: O_3  and  C_4
REMARK    4  A    between atoms: C_7  and  C_8
REMARK    5  A    between atoms: C_8  and  C_9
REMARK    6  A    between atoms: C_9  and  N_10
REMARK    7  A    between atoms: N_10  and  C_11
REMARK    8  A    between atoms: C_11  and  N_13
REMARK                            x       y       z     vdW  Elec       q    Type
REMARK                         _______ _______ _______ _____ _____    ______ ____
ROOT
ATOM      1  N   UNL     1       7.894  -5.748  27.036  0.00  0.00    -0.326 N 
ATOM      2  H   UNL     1       8.002  -6.632  26.538  0.00  0.00    +0.148 HD
ENDROOT
BRANCH   1   3
ATOM      3  C   UNL     1       6.651  -5.607  27.580  0.00  0.00    +0.136 C 
ATOM      4  S   UNL     1       6.104  -6.284  29.005  0.00  0.00    -0.019 S 
BRANCH   3   5
ATOM      5  N   UNL     1       5.740  -4.898  26.848  0.00  0.00    -0.282 N 
ATOM      6  H   UNL     1       5.846  -3.896  26.930  0.00  0.00    +0.155 HD
ATOM      7  C   UNL     1       4.814  -5.364  25.907  0.00  0.00    +0.124 A 
ATOM      8  C   UNL     1       3.948  -4.434  25.338  0.00  0.00    +0.045 A 
ATOM      9  C   UNL     1       3.068  -4.850  24.339  0.00  0.00    +0.025 A 
ATOM     10  C   UNL     1       3.097  -6.172  23.921  0.00  0.00    +0.059 A 
ATOM     11 CL   UNL     1       2.060  -6.720  22.671  0.00  0.00    -0.082 Cl
ATOM     12  C   UNL     1       3.990  -7.033  24.537  0.00  0.00    +0.132 A 
ATOM     13  N   UNL     1       4.832  -6.663  25.535  0.00  0.00    -0.239 NA
ENDBRANCH   3   5
ENDBRANCH   1   3
BRANCH   1  14
ATOM     14  C   UNL     1       8.847  -4.705  26.659  0.00  0.00    +0.109 C 
BRANCH  14  15
ATOM     15  C   UNL     1       9.496  -4.872  25.282  0.00  0.00    +0.077 C 
BRANCH  15  20
ATOM     16  C   UNL     1       8.092  -2.486  22.679  0.00  0.00    +0.159 A 
ATOM     17  C   UNL     1       6.955  -3.197  22.305  0.00  0.00    +0.068 A 
ATOM     18  C   UNL     1       6.712  -4.420  22.918  0.00  0.00    +0.115 A 
ATOM     19  N   UNL     1       7.508  -4.969  23.859  0.00  0.00    -0.257 NA
ATOM     20  C   UNL     1       8.621  -4.274  24.209  0.00  0.00    +0.081 A 
ATOM     21  C   UNL     1       8.935  -3.039  23.646  0.00  0.00    +0.186 A 
ATOM     22  F   UNL     1      10.035  -2.379  24.038  0.00  0.00    -0.200 F 
BRANCH  16  23
ATOM     23  O   UNL     1       8.466  -1.265  22.177  0.00  0.00    -0.489 OA
BRANCH  23  25
ATOM     24  C   UNL     1       8.895   0.743  23.400  0.00  0.00    +0.048 C 
ATOM     25  C   UNL     1       7.835  -0.110  22.726  0.00  0.00    +0.226 C 
ENDBRANCH  23  25
ENDBRANCH  16  23
ENDBRANCH  15  20
ENDBRANCH  14  15
ENDBRANCH   1  14
TORSDOF 7
ENDMDL
