MODEL 1
REMARK VINA RESULT:      -5.4      0.000      0.000
REMARK  Name = 
REMARK  13 active torsions:
REMARK  status: ('A' for Active; 'I' for Inactive)
REMARK    1  A    between atoms: CB_1  and  CA_2
REMARK    2  A    between atoms: CA_2  and  N_4
REMARK    3  A    between atoms: CA_2  and  C_24
REMARK    4  A    between atoms: C_5  and  C_7
REMARK    5  A    between atoms: C_7  and  C_8
REMARK    6  A    between atoms: C_8  and  C_9
REMARK    7  A    between atoms: C_9  and  C_10
REMARK    8  A    between atoms: C_10  and  C_11
REMARK    9  A    between atoms: C_11  and  N_13
REMARK   10  A    between atoms: C_11  and  C_21
REMARK   11  A    between atoms: C_14  and  CA_16
REMARK   12  A    between atoms: CA_16  and  N_17
REMARK   13  A    between atoms: C_24  and  O_25
REMARK                            x       y       z     vdW  Elec       q    Type
REMARK                         _______ _______ _______ _____ _____    ______ ____
ROOT
ATOM      1  C   UNK A   0       6.542  -2.912  22.418  0.00  0.00    +0.028 C 
ENDROOT
BRANCH   1   2
ATOM      2  C   UNK A   0       5.671  -2.645  23.651  0.00  0.00    +0.003 C 
BRANCH   2   3
ATOM      3  C   UNK A   0       5.956  -1.316  24.341  0.00  0.00    +0.009 C 
BRANCH   3   4
ATOM      4  C   UNK A   0       6.628  -1.478  25.695  0.00  0.00    +0.096 C 
BRANCH   4   7
ATOM      5  N   GLY A   1       8.517  -0.730  24.402  0.00  0.00    -0.303 N 
ATOM      6  H   GLY A   1       7.820  -0.553  23.689  0.00  0.00    +0.149 HD
ATOM      7  C   UNK A   0       8.122  -1.378  25.542  0.00  0.00    +0.214 C 
ATOM      8  O   UNK A   0       8.933  -1.777  26.375  0.00  0.00    -0.276 OA
BRANCH   5  10
ATOM      9  CB  GLY A   1      10.571   0.652  24.680  0.00  0.00    +0.040 C 
ATOM     10  CA  GLY A   1       9.920  -0.566  24.032  0.00  0.00    +0.178 C 
BRANCH  10  11
ATOM     11  C   GLY A   1      10.142  -0.589  22.510  0.00  0.00    +0.325 C 
ATOM     12  OXT GLY A   1       9.989   0.397  21.798  0.00  0.00    -0.249 OA
BRANCH  11  13
ATOM     13  O   GLY A   1      10.498  -1.782  21.993  0.00  0.00    -0.479 OA
ATOM     14  H   GLY A   1      11.475  -1.862  21.849  0.00  0.00    +0.295 HD
ENDBRANCH  11  13
ENDBRANCH  10  11
ENDBRANCH   5  10
ENDBRANCH   4   7
ENDBRANCH   3   4
ENDBRANCH   2   3
ENDBRANCH   1   2
BRANCH   1  15
ATOM     15  C   UNK A   0       7.300  -4.246  22.454  0.00  0.00    +0.119 C 
BRANCH  15  16
ATOM     16  N   UNK A   0       7.348  -4.761  23.840  0.00  0.00    -0.303 N 
ATOM     17  H   UNK A   0       6.580  -5.430  23.965  0.00  0.00    +0.150 HD
ATOM     18  C   GLY A   1       8.454  -4.805  24.622  0.00  0.00    +0.259 C 
ATOM     19  O   GLY A   1       9.587  -4.428  24.326  0.00  0.00    -0.270 OA
BRANCH  18  20
ATOM     20  CA  GLY A   1       8.204  -5.215  26.060  0.00  0.00    +0.225 C 
BRANCH  20  21
ATOM     21  N   GLY A   1       9.430  -4.849  26.845  0.00  0.00    +0.225 N 
ATOM     22  H1  GLY A   1      10.302  -5.192  26.442  0.00  0.00    +0.200 HD
ATOM     23  H2  GLY A   1       9.328  -5.165  27.817  0.00  0.00    +0.200 HD
ATOM     24  H3  GLY A   1       9.443  -3.814  26.904  0.00  0.00    +0.200 HD
ENDBRANCH  20  21
ENDBRANCH  18  20
ENDBRANCH  15  16
BRANCH  15  25
ATOM     25  C   UNK A   0       6.515  -5.248  21.539  0.00  0.00    +0.062 C 
ATOM     26  O   ACE A   2       5.859  -4.650  20.627  0.00  0.00    -0.548 OA
ATOM     27  O   ACE A   2       6.624  -6.464  21.830  0.00  0.00    -0.548 OA
ENDBRANCH  15  25
ENDBRANCH   1  15
TORSDOF 12
ENDMDL
MODEL 2
REMARK VINA RESULT:      -5.4      3.349      4.373
REMARK  Name = 
REMARK  13 active torsions:
REMARK  status: ('A' for Active; 'I' for Inactive)
REMARK    1  A    between atoms: CB_1  and  CA_2
REMARK    2  A    between atoms: CA_2  and  N_4
REMARK    3  A    between atoms: CA_2  and  C_24
REMARK    4  A    between atoms: C_5  and  C_7
REMARK    5  A    between atoms: C_7  and  C_8
REMARK    6  A    between atoms: C_8  and  C_9
REMARK    7  A    between atoms: C_9  and  C_10
REMARK    8  A    between atoms: C_10  and  C_11
REMARK    9  A    between atoms: C_11  and  N_13
REMARK   10  A    between atoms: C_11  and  C_21
REMARK   11  A    between atoms: C_14  and  CA_16
REMARK   12  A    between atoms: CA_16  and  N_17
REMARK   13  A    between atoms: C_24  and  O_25
REMARK                            x       y       z     vdW  Elec       q    Type
REMARK                         _______ _______ _______ _____ _____    ______ ____
ROOT
ATOM      1  C   UNK A   0       8.068  -1.369  22.593  0.00  0.00    +0.028 C 
ENDROOT
BRANCH   1   2
ATOM      2  C   UNK A   0       9.440  -0.986  22.026  0.00  0.00    +0.003 C 
BRANCH   2   3
ATOM      3  C   UNK A   0      10.170   0.084  22.828  0.00  0.00    +0.009 C 
BRANCH   3   4
ATOM      4  C   UNK A   0      10.098   1.463  22.192  0.00  0.00    +0.096 C 
BRANCH   4   7
ATOM      5  N   GLY A   1      10.793   3.676  22.841  0.00  0.00    -0.303 N 
ATOM      6  H   GLY A   1      11.293   3.658  21.960  0.00  0.00    +0.149 HD
ATOM      7  C   UNK A   0      10.182   2.524  23.257  0.00  0.00    +0.214 C 
ATOM      8  O   UNK A   0       9.701   2.415  24.383  0.00  0.00    -0.276 OA
BRANCH   5  10
ATOM      9  CB  GLY A   1      10.016   5.940  23.530  0.00  0.00    +0.040 C 
ATOM     10  CA  GLY A   1      11.025   4.813  23.727  0.00  0.00    +0.178 C 
BRANCH  10  11
ATOM     11  C   GLY A   1      12.473   5.328  23.671  0.00  0.00    +0.325 C 
ATOM     12  OXT GLY A   1      13.299   4.911  22.868  0.00  0.00    -0.249 OA
BRANCH  11  13
ATOM     13  O   GLY A   1      12.792   6.263  24.588  0.00  0.00    -0.479 OA
ATOM     14  H   GLY A   1      13.768   6.420  24.653  0.00  0.00    +0.295 HD
ENDBRANCH  11  13
ENDBRANCH  10  11
ENDBRANCH   5  10
ENDBRANCH   4   7
ENDBRANCH   3   4
ENDBRANCH   2   3
ENDBRANCH   1   2
BRANCH   1  15
ATOM     15  C   UNK A   0       7.762  -2.872  22.552  0.00  0.00    +0.119 C 
BRANCH  15  16
ATOM     16  N   UNK A   0       8.063  -3.485  23.864  0.00  0.00    -0.303 N 
ATOM     17  H   UNK A   0       7.687  -2.879  24.600  0.00  0.00    +0.150 HD
ATOM     18  C   GLY A   1       8.278  -4.805  24.081  0.00  0.00    +0.259 C 
ATOM     19  O   GLY A   1       8.266  -5.706  23.243  0.00  0.00    -0.270 OA
BRANCH  18  20
ATOM     20  CA  GLY A   1       8.741  -5.156  25.482  0.00  0.00    +0.225 C 
BRANCH  20  21
ATOM     21  N   GLY A   1      10.240  -5.226  25.450  0.00  0.00    +0.225 N 
ATOM     22  H1  GLY A   1      10.705  -4.370  25.753  0.00  0.00    +0.200 HD
ATOM     23  H2  GLY A   1      10.556  -5.500  24.512  0.00  0.00    +0.200 HD
ATOM     24  H3  GLY A   1      10.510  -6.018  26.061  0.00  0.00    +0.200 HD
ENDBRANCH  20  21
ENDBRANCH  18  20
ENDBRANCH  15  16
BRANCH  15  25
ATOM     25  C   UNK A   0       6.234  -3.023  22.233  0.00  0.00    +0.062 C 
ATOM     26  O   ACE A   2       5.504  -2.447  23.101  0.00  0.00    -0.548 OA
ATOM     27  O   ACE A   2       5.946  -3.681  21.203  0.00  0.00    -0.548 OA
ENDBRANCH  15  25
ENDBRANCH   1  15
TORSDOF 12
ENDMDL
MODEL 3
REMARK VINA RESULT:      -5.4      2.215      5.826
REMARK  Name = 
REMARK  13 active torsions:
REMARK  status: ('A' for Active; 'I' for Inactive)
REMARK    1  A    between atoms: CB_1  and  CA_2
REMARK    2  A    between atoms: CA_2  and  N_4
REMARK    3  A    between atoms: CA_2  and  C_24
REMARK    4  A    between atoms: C_5  and  C_7
REMARK    5  A    between atoms: C_7  and  C_8
REMARK    6  A    between atoms: C_8  and  C_9
REMARK    7  A    between atoms: C_9  and  C_10
REMARK    8  A    between atoms: C_10  and  C_11
REMARK    9  A    between atoms: C_11  and  N_13
REMARK   10  A    between atoms: C_11  and  C_21
REMARK   11  A    between atoms: C_14  and  CA_16
REMARK   12  A    between atoms: CA_16  and  N_17
REMARK   13  A    between atoms: C_24  and  O_25
REMARK                            x       y       z     vdW  Elec       q    Type
REMARK                         _______ _______ _______ _____ _____    ______ ____
ROOT
ATOM      1  C   UNK A   0       9.011  -1.011  25.377  0.00  0.00    +0.028 C 
ENDROOT
BRANCH   1   2
ATOM      2  C   UNK A   0       7.784  -1.262  26.263  0.00  0.00    +0.003 C 
BRANCH   2   3
ATOM      3  C   UNK A   0       6.853  -2.352  25.747  0.00  0.00    +0.009 C 
BRANCH   3   4
ATOM      4  C   UNK A   0       6.897  -3.621  26.583  0.00  0.00    +0.096 C 
BRANCH   4   7
ATOM      5  N   GLY A   1       6.752  -4.530  24.358  0.00  0.00    -0.303 N 
ATOM      6  H   GLY A   1       6.666  -3.558  24.084  0.00  0.00    +0.149 HD
ATOM      7  C   UNK A   0       6.742  -4.826  25.694  0.00  0.00    +0.214 C 
ATOM      8  O   UNK A   0       6.673  -5.984  26.102  0.00  0.00    -0.276 OA
BRANCH   5  10
ATOM      9  CB  GLY A   1       7.160  -5.139  21.977  0.00  0.00    +0.040 C 
ATOM     10  CA  GLY A   1       6.566  -5.543  23.323  0.00  0.00    +0.178 C 
BRANCH  10  11
ATOM     11  C   GLY A   1       5.102  -5.995  23.186  0.00  0.00    +0.325 C 
ATOM     12  OXT GLY A   1       4.252  -5.336  22.598  0.00  0.00    -0.249 OA
BRANCH  11  13
ATOM     13  O   GLY A   1       4.798  -7.166  23.779  0.00  0.00    -0.479 OA
ATOM     14  H   GLY A   1       4.024  -7.096  24.394  0.00  0.00    +0.295 HD
ENDBRANCH  11  13
ENDBRANCH  10  11
ENDBRANCH   5  10
ENDBRANCH   4   7
ENDBRANCH   3   4
ENDBRANCH   2   3
ENDBRANCH   1   2
BRANCH   1  15
ATOM     15  C   UNK A   0       8.776  -1.269  23.882  0.00  0.00    +0.119 C 
BRANCH  15  16
ATOM     16  N   UNK A   0       8.937  -0.009  23.122  0.00  0.00    -0.303 N 
ATOM     17  H   UNK A   0       9.798  -0.071  22.569  0.00  0.00    +0.150 HD
ATOM     18  C   GLY A   1       7.931   0.825  22.766  0.00  0.00    +0.259 C 
ATOM     19  O   GLY A   1       6.732   0.688  23.011  0.00  0.00    -0.270 OA
BRANCH  18  20
ATOM     20  CA  GLY A   1       8.375   2.134  22.146  0.00  0.00    +0.225 C 
BRANCH  20  21
ATOM     21  N   GLY A   1       9.723   1.898  21.528  0.00  0.00    +0.225 N 
ATOM     22  H1  GLY A   1      10.464   2.493  21.902  0.00  0.00    +0.200 HD
ATOM     23  H2  GLY A   1       9.660   1.994  20.507  0.00  0.00    +0.200 HD
ATOM     24  H3  GLY A   1       9.949   0.899  21.687  0.00  0.00    +0.200 HD
ENDBRANCH  20  21
ENDBRANCH  18  20
ENDBRANCH  15  16
BRANCH  15  25
ATOM     25  C   UNK A   0       9.852  -2.312  23.419  0.00  0.00    +0.062 C 
ATOM     26  O   ACE A   2       9.760  -3.409  24.057  0.00  0.00    -0.548 OA
ATOM     27  O   ACE A   2      10.641  -1.931  22.520  0.00  0.00    -0.548 OA
ENDBRANCH  15  25
ENDBRANCH   1  15
TORSDOF 12
ENDMDL
MODEL 4
REMARK VINA RESULT:      -5.4      2.467      6.040
REMARK  Name = 
REMARK  13 active torsions:
REMARK  status: ('A' for Active; 'I' for Inactive)
REMARK    1  A    between atoms: CB_1  and  CA_2
REMARK    2  A    between atoms: CA_2  and  N_4
REMARK    3  A    between atoms: CA_2  and  C_24
REMARK    4  A    between atoms: C_5  and  C_7
REMARK    5  A    between atoms: C_7  and  C_8
REMARK    6  A    between atoms: C_8  and  C_9
REMARK    7  A    between atoms: C_9  and  C_10
REMARK    8  A    between atoms: C_10  and  C_11
REMARK    9  A    between atoms: C_11  and  N_13
REMARK   10  A    between atoms: C_11  and  C_21
REMARK   11  A    between atoms: C_14  and  CA_16
REMARK   12  A    between atoms: CA_16  and  N_17
REMARK   13  A    between atoms: C_24  and  O_25
REMARK                            x       y       z     vdW  Elec       q    Type
REMARK                         _______ _______ _______ _____ _____    ______ ____
ROOT
ATOM      1  C   UNK A   0      10.174   1.721  23.175  0.00  0.00    +0.028 C 
ENDROOT
BRANCH   1   2
ATOM      2  C   UNK A   0       9.808   1.231  21.769  0.00  0.00    +0.003 C 
BRANCH   2   3
ATOM      3  C   UNK A   0       9.242  -0.183  21.728  0.00  0.00    +0.009 C 
BRANCH   3   4
ATOM      4  C   UNK A   0      10.210  -1.230  22.256  0.00  0.00    +0.096 C 
BRANCH   4   7
ATOM      5  N   GLY A   1       8.207  -2.557  22.424  0.00  0.00    -0.303 N 
ATOM      6  H   GLY A   1       7.833  -1.877  21.773  0.00  0.00    +0.149 HD
ATOM      7  C   UNK A   0       9.450  -2.328  22.952  0.00  0.00    +0.214 C 
ATOM      8  O   UNK A   0       9.901  -3.010  23.869  0.00  0.00    -0.276 OA
BRANCH   5  10
ATOM      9  CB  GLY A   1       7.474  -4.937  22.393  0.00  0.00    +0.040 C 
ATOM     10  CA  GLY A   1       7.283  -3.542  22.979  0.00  0.00    +0.178 C 
BRANCH  10  11
ATOM     11  C   GLY A   1       5.815  -3.089  22.906  0.00  0.00    +0.325 C 
ATOM     12  OXT GLY A   1       4.972  -3.665  22.228  0.00  0.00    -0.249 OA
BRANCH  11  13
ATOM     13  O   GLY A   1       5.509  -1.991  23.625  0.00  0.00    -0.479 OA
ATOM     14  H   GLY A   1       4.622  -2.051  24.061  0.00  0.00    +0.295 HD
ENDBRANCH  11  13
ENDBRANCH  10  11
ENDBRANCH   5  10
ENDBRANCH   4   7
ENDBRANCH   3   4
ENDBRANCH   2   3
ENDBRANCH   1   2
BRANCH   1  15
ATOM     15  C   UNK A   0       8.972   1.936  24.105  0.00  0.00    +0.119 C 
BRANCH  15  16
ATOM     16  N   UNK A   0       9.096   1.070  25.298  0.00  0.00    -0.303 N 
ATOM     17  H   UNK A   0       9.506   1.622  26.059  0.00  0.00    +0.150 HD
ATOM     18  C   GLY A   1       8.343  -0.028  25.550  0.00  0.00    +0.259 C 
ATOM     19  O   GLY A   1       7.448  -0.491  24.845  0.00  0.00    -0.270 OA
BRANCH  18  20
ATOM     20  CA  GLY A   1       8.783  -0.842  26.751  0.00  0.00    +0.225 C 
BRANCH  20  21
ATOM     21  N   GLY A   1       8.447  -2.276  26.462  0.00  0.00    +0.225 N 
ATOM     22  H1  GLY A   1       8.602  -2.555  25.493  0.00  0.00    +0.200 HD
ATOM     23  H2  GLY A   1       7.479  -2.471  26.746  0.00  0.00    +0.200 HD
ATOM     24  H3  GLY A   1       9.030  -2.849  27.099  0.00  0.00    +0.200 HD
ENDBRANCH  20  21
ENDBRANCH  18  20
ENDBRANCH  15  16
BRANCH  15  25
ATOM     25  C   UNK A   0       8.988   3.443  24.536  0.00  0.00    +0.062 C 
ATOM     26  O   ACE A   2       9.791   4.135  23.832  0.00  0.00    -0.548 OA
ATOM     27  O   ACE A   2       8.240   3.751  25.496  0.00  0.00    -0.548 OA
ENDBRANCH  15  25
ENDBRANCH   1  15
TORSDOF 12
ENDMDL
MODEL 5
REMARK VINA RESULT:      -5.3      3.171      6.839
REMARK  Name = 
REMARK  13 active torsions:
REMARK  status: ('A' for Active; 'I' for Inactive)
REMARK    1  A    between atoms: CB_1  and  CA_2
REMARK    2  A    between atoms: CA_2  and  N_4
REMARK    3  A    between atoms: CA_2  and  C_24
REMARK    4  A    between atoms: C_5  and  C_7
REMARK    5  A    between atoms: C_7  and  C_8
REMARK    6  A    between atoms: C_8  and  C_9
REMARK    7  A    between atoms: C_9  and  C_10
REMARK    8  A    between atoms: C_10  and  C_11
REMARK    9  A    between atoms: C_11  and  N_13
REMARK   10  A    between atoms: C_11  and  C_21
REMARK   11  A    between atoms: C_14  and  CA_16
REMARK   12  A    between atoms: CA_16  and  N_17
REMARK   13  A    between atoms: C_24  and  O_25
REMARK                            x       y       z     vdW  Elec       q    Type
REMARK                         _______ _______ _______ _____ _____    ______ ____
ROOT
ATOM      1  C   UNK A   0      10.176   1.394  23.195  0.00  0.00    +0.028 C 
ENDROOT
BRANCH   1   2
ATOM      2  C   UNK A   0       9.637   1.067  21.797  0.00  0.00    +0.003 C 
BRANCH   2   3
ATOM      3  C   UNK A   0       9.532  -0.424  21.502  0.00  0.00    +0.009 C 
BRANCH   3   4
ATOM      4  C   UNK A   0      10.171  -1.293  22.574  0.00  0.00    +0.096 C 
BRANCH   4   7
ATOM      5  N   GLY A   1       9.355  -2.602  24.424  0.00  0.00    -0.303 N 
ATOM      6  H   GLY A   1      10.232  -2.336  24.856  0.00  0.00    +0.149 HD
ATOM      7  C   UNK A   0       9.160  -2.271  23.110  0.00  0.00    +0.214 C 
ATOM      8  O   UNK A   0       8.203  -2.701  22.468  0.00  0.00    -0.276 OA
BRANCH   5  10
ATOM      9  CB  GLY A   1       7.836  -2.988  26.359  0.00  0.00    +0.040 C 
ATOM     10  CA  GLY A   1       8.521  -3.572  25.127  0.00  0.00    +0.178 C 
BRANCH  10  11
ATOM     11  C   GLY A   1       9.269  -4.875  25.456  0.00  0.00    +0.325 C 
ATOM     12  OXT GLY A   1      10.391  -5.126  25.033  0.00  0.00    -0.249 OA
BRANCH  11  13
ATOM     13  O   GLY A   1       8.597  -5.750  26.231  0.00  0.00    -0.479 OA
ATOM     14  H   GLY A   1       8.128  -6.448  25.706  0.00  0.00    +0.295 HD
ENDBRANCH  11  13
ENDBRANCH  10  11
ENDBRANCH   5  10
ENDBRANCH   4   7
ENDBRANCH   3   4
ENDBRANCH   2   3
ENDBRANCH   1   2
BRANCH   1  15
ATOM     15  C   UNK A   0       9.146   2.032  24.138  0.00  0.00    +0.119 C 
BRANCH  15  16
ATOM     16  N   UNK A   0       8.184   2.843  23.360  0.00  0.00    -0.303 N 
ATOM     17  H   UNK A   0       7.294   2.336  23.315  0.00  0.00    +0.150 HD
ATOM     18  C   GLY A   1       8.238   4.188  23.207  0.00  0.00    +0.259 C 
ATOM     19  O   GLY A   1       9.080   4.955  23.674  0.00  0.00    -0.270 OA
BRANCH  18  20
ATOM     20  CA  GLY A   1       7.238   4.759  22.220  0.00  0.00    +0.225 C 
BRANCH  20  21
ATOM     21  N   GLY A   1       7.789   6.070  21.739  0.00  0.00    +0.225 N 
ATOM     22  H1  GLY A   1       8.664   5.990  21.219  0.00  0.00    +0.200 HD
ATOM     23  H2  GLY A   1       7.895   6.716  22.531  0.00  0.00    +0.200 HD
ATOM     24  H3  GLY A   1       7.056   6.498  21.145  0.00  0.00    +0.200 HD
ENDBRANCH  20  21
ENDBRANCH  18  20
ENDBRANCH  15  16
BRANCH  15  25
ATOM     25  C   UNK A   0       8.395   0.861  24.860  0.00  0.00    +0.062 C 
ATOM     26  O   ACE A   2       7.179   0.774  24.494  0.00  0.00    -0.548 OA
ATOM     27  O   ACE A   2       9.068   0.197  25.685  0.00  0.00    -0.548 OA
ENDBRANCH  15  25
ENDBRANCH   1  15
TORSDOF 12
ENDMDL
MODEL 6
REMARK VINA RESULT:      -5.3      3.375      7.336
REMARK  Name = 
REMARK  13 active torsions:
REMARK  status: ('A' for Active; 'I' for Inactive)
REMARK    1  A    between atoms: CB_1  and  CA_2
REMARK    2  A    between atoms: CA_2  and  N_4
REMARK    3  A    between atoms: CA_2  and  C_24
REMARK    4  A    between atoms: C_5  and  C_7
REMARK    5  A    between atoms: C_7  and  C_8
REMARK    6  A    between atoms: C_8  and  C_9
REMARK    7  A    between atoms: C_9  and  C_10
REMARK    8  A    between atoms: C_10  and  C_11
REMARK    9  A    between atoms: C_11  and  N_13
REMARK   10  A    between atoms: C_11  and  C_21
REMARK   11  A    between atoms: C_14  and  CA_16
REMARK   12  A    between atoms: CA_16  and  N_17
REMARK   13  A    between atoms: C_24  and  O_25
REMARK                            x       y       z     vdW  Elec       q    Type
REMARK                         _______ _______ _______ _____ _____    ______ ____
ROOT
ATOM      1  C   UNK A   0       9.750   1.900  24.551  0.00  0.00    +0.028 C 
ENDROOT
BRANCH   1   2
ATOM      2  C   UNK A   0       8.484   1.191  25.047  0.00  0.00    +0.003 C 
BRANCH   2   3
ATOM      3  C   UNK A   0       8.573  -0.330  25.031  0.00  0.00    +0.009 C 
BRANCH   3   4
ATOM      4  C   UNK A   0       9.916  -0.846  24.539  0.00  0.00    +0.096 C 
BRANCH   4   7
ATOM      5  N   GLY A   1       8.851  -3.000  24.696  0.00  0.00    -0.303 N 
ATOM      6  H   GLY A   1       8.512  -2.646  25.583  0.00  0.00    +0.149 HD
ATOM      7  C   UNK A   0       9.764  -2.246  24.008  0.00  0.00    +0.214 C 
ATOM      8  O   UNK A   0      10.346  -2.678  23.016  0.00  0.00    -0.276 OA
BRANCH   5  10
ATOM      9  CB  GLY A   1       7.179  -4.635  23.838  0.00  0.00    +0.040 C 
ATOM     10  CA  GLY A   1       8.585  -4.401  24.381  0.00  0.00    +0.178 C 
BRANCH  10  11
ATOM     11  C   GLY A   1       8.910  -5.348  25.548  0.00  0.00    +0.325 C 
ATOM     12  OXT GLY A   1       8.056  -5.786  26.310  0.00  0.00    -0.249 OA
BRANCH  11  13
ATOM     13  O   GLY A   1      10.213  -5.654  25.702  0.00  0.00    -0.479 OA
ATOM     14  H   GLY A   1      10.800  -4.856  25.688  0.00  0.00    +0.295 HD
ENDBRANCH  11  13
ENDBRANCH  10  11
ENDBRANCH   5  10
ENDBRANCH   4   7
ENDBRANCH   3   4
ENDBRANCH   2   3
ENDBRANCH   1   2
BRANCH   1  15
ATOM     15  C   UNK A   0       9.488   3.068  23.590  0.00  0.00    +0.119 C 
BRANCH  15  16
ATOM     16  N   UNK A   0      10.746   3.802  23.334  0.00  0.00    -0.303 N 
ATOM     17  H   UNK A   0      11.243   3.338  22.567  0.00  0.00    +0.150 HD
ATOM     18  C   GLY A   1      10.965   5.107  23.626  0.00  0.00    +0.259 C 
ATOM     19  O   GLY A   1      10.175   5.892  24.150  0.00  0.00    -0.270 OA
BRANCH  18  20
ATOM     20  CA  GLY A   1      12.392   5.576  23.427  0.00  0.00    +0.225 C 
BRANCH  20  21
ATOM     21  N   GLY A   1      12.727   5.376  21.977  0.00  0.00    +0.225 N 
ATOM     22  H1  GLY A   1      12.552   6.193  21.391  0.00  0.00    +0.200 HD
ATOM     23  H2  GLY A   1      12.228   4.555  21.614  0.00  0.00    +0.200 HD
ATOM     24  H3  GLY A   1      13.729   5.114  21.939  0.00  0.00    +0.200 HD
ENDBRANCH  20  21
ENDBRANCH  18  20
ENDBRANCH  15  16
BRANCH  15  25
ATOM     25  C   UNK A   0       8.948   2.453  22.253  0.00  0.00    +0.062 C 
ATOM     26  O   ACE A   2       7.818   2.938  21.924  0.00  0.00    -0.548 OA
ATOM     27  O   ACE A   2       9.673   1.582  21.712  0.00  0.00    -0.548 OA
ENDBRANCH  15  25
ENDBRANCH   1  15
TORSDOF 12
ENDMDL
MODEL 7
REMARK VINA RESULT:      -5.3      2.070      3.244
REMARK  Name = 
REMARK  13 active torsions:
REMARK  status: ('A' for Active; 'I' for Inactive)
REMARK    1  A    between atoms: CB_1  and  CA_2
REMARK    2  A    between atoms: CA_2  and  N_4
REMARK    3  A    between atoms: CA_2  and  C_24
REMARK    4  A    between atoms: C_5  and  C_7
REMARK    5  A    between atoms: C_7  and  C_8
REMARK    6  A    between atoms: C_8  and  C_9
REMARK    7  A    between atoms: C_9  and  C_10
REMARK    8  A    between atoms: C_10  and  C_11
REMARK    9  A    between atoms: C_11  and  N_13
REMARK   10  A    between atoms: C_11  and  C_21
REMARK   11  A    between atoms: C_14  and  CA_16
REMARK   12  A    between atoms: CA_16  and  N_17
REMARK   13  A    between atoms: C_24  and  O_25
REMARK                            x       y       z     vdW  Elec       q    Type
REMARK                         _______ _______ _______ _____ _____    ______ ____
ROOT
ATOM      1  C   UNK A   0       7.485  -2.816  22.321  0.00  0.00    +0.028 C 
ENDROOT
BRANCH   1   2
ATOM      2  C   UNK A   0       8.229  -1.778  23.170  0.00  0.00    +0.003 C 
BRANCH   2   3
ATOM      3  C   UNK A   0       9.660  -1.512  22.720  0.00  0.00    +0.009 C 
BRANCH   3   4
ATOM      4  C   UNK A   0       9.744  -0.643  21.475  0.00  0.00    +0.096 C 
BRANCH   4   7
ATOM      5  N   GLY A   1      10.125   1.356  22.764  0.00  0.00    -0.303 N 
ATOM      6  H   GLY A   1      10.756   0.763  23.291  0.00  0.00    +0.149 HD
ATOM      7  C   UNK A   0       9.341   0.769  21.808  0.00  0.00    +0.214 C 
ATOM      8  O   UNK A   0       8.436   1.382  21.245  0.00  0.00    -0.276 OA
BRANCH   5  10
ATOM      9  CB  GLY A   1      11.148   3.543  23.376  0.00  0.00    +0.040 C 
ATOM     10  CA  GLY A   1       9.879   2.702  23.272  0.00  0.00    +0.178 C 
BRANCH  10  11
ATOM     11  C   GLY A   1       9.082   2.708  24.587  0.00  0.00    +0.325 C 
ATOM     12  OXT GLY A   1       8.481   3.693  24.999  0.00  0.00    -0.249 OA
BRANCH  11  13
ATOM     13  O   GLY A   1       9.104   1.555  25.284  0.00  0.00    -0.479 OA
ATOM     14  H   GLY A   1       8.852   1.675  26.235  0.00  0.00    +0.295 HD
ENDBRANCH  11  13
ENDBRANCH  10  11
ENDBRANCH   5  10
ENDBRANCH   4   7
ENDBRANCH   3   4
ENDBRANCH   2   3
ENDBRANCH   1   2
BRANCH   1  15
ATOM     15  C   UNK A   0       7.726  -4.272  22.744  0.00  0.00    +0.119 C 
BRANCH  15  16
ATOM     16  N   UNK A   0       7.624  -4.393  24.215  0.00  0.00    -0.303 N 
ATOM     17  H   UNK A   0       6.656  -4.634  24.454  0.00  0.00    +0.150 HD
ATOM     18  C   GLY A   1       8.650  -4.686  25.050  0.00  0.00    +0.259 C 
ATOM     19  O   GLY A   1       9.823  -4.893  24.740  0.00  0.00    -0.270 OA
BRANCH  18  20
ATOM     20  CA  GLY A   1       8.322  -4.580  26.526  0.00  0.00    +0.225 C 
BRANCH  20  21
ATOM     21  N   GLY A   1       8.052  -5.971  27.022  0.00  0.00    +0.225 N 
ATOM     22  H1  GLY A   1       8.720  -6.303  27.719  0.00  0.00    +0.200 HD
ATOM     23  H2  GLY A   1       8.001  -6.620  26.228  0.00  0.00    +0.200 HD
ATOM     24  H3  GLY A   1       7.094  -5.961  27.418  0.00  0.00    +0.200 HD
ENDBRANCH  20  21
ENDBRANCH  18  20
ENDBRANCH  15  16
BRANCH  15  25
ATOM     25  C   UNK A   0       6.616  -5.140  22.059  0.00  0.00    +0.062 C 
ATOM     26  O   ACE A   2       6.877  -6.384  22.116  0.00  0.00    -0.548 OA
ATOM     27  O   ACE A   2       5.656  -4.510  21.551  0.00  0.00    -0.548 OA
ENDBRANCH  15  25
ENDBRANCH   1  15
TORSDOF 12
ENDMDL
MODEL 8
REMARK VINA RESULT:      -5.2      2.273      5.649
REMARK  Name = 
REMARK  13 active torsions:
REMARK  status: ('A' for Active; 'I' for Inactive)
REMARK    1  A    between atoms: CB_1  and  CA_2
REMARK    2  A    between atoms: CA_2  and  N_4
REMARK    3  A    between atoms: CA_2  and  C_24
REMARK    4  A    between atoms: C_5  and  C_7
REMARK    5  A    between atoms: C_7  and  C_8
REMARK    6  A    between atoms: C_8  and  C_9
REMARK    7  A    between atoms: C_9  and  C_10
REMARK    8  A    between atoms: C_10  and  C_11
REMARK    9  A    between atoms: C_11  and  N_13
REMARK   10  A    between atoms: C_11  and  C_21
REMARK   11  A    between atoms: C_14  and  CA_16
REMARK   12  A    between atoms: CA_16  and  N_17
REMARK   13  A    between atoms: C_24  and  O_25
REMARK                            x       y       z     vdW  Elec       q    Type
REMARK                         _______ _______ _______ _____ _____    ______ ____
ROOT
ATOM      1  C   UNK A   0       7.358  -2.244  23.127  0.00  0.00    +0.028 C 
ENDROOT
BRANCH   1   2
ATOM      2  C   UNK A   0       6.779  -3.230  22.105  0.00  0.00    +0.003 C 
BRANCH   2   3
ATOM      3  C   UNK A   0       5.609  -4.055  22.628  0.00  0.00    +0.009 C 
BRANCH   3   4
ATOM      4  C   UNK A   0       5.999  -5.477  23.001  0.00  0.00    +0.096 C 
BRANCH   4   7
ATOM      5  N   GLY A   1       6.105  -4.907  25.339  0.00  0.00    -0.303 N 
ATOM      6  H   GLY A   1       6.856  -4.294  25.042  0.00  0.00    +0.149 HD
ATOM      7  C   UNK A   0       5.577  -5.770  24.416  0.00  0.00    +0.214 C 
ATOM      8  O   UNK A   0       4.787  -6.656  24.734  0.00  0.00    -0.276 OA
BRANCH   5  10
ATOM      9  CB  GLY A   1       5.496  -3.720  27.442  0.00  0.00    +0.040 C 
ATOM     10  CA  GLY A   1       5.866  -5.040  26.773  0.00  0.00    +0.178 C 
BRANCH  10  11
ATOM     11  C   GLY A   1       7.018  -5.747  27.507  0.00  0.00    +0.325 C 
ATOM     12  OXT GLY A   1       6.908  -6.204  28.638  0.00  0.00    -0.249 OA
BRANCH  11  13
ATOM     13  O   GLY A   1       8.182  -5.815  26.830  0.00  0.00    -0.479 OA
ATOM     14  H   GLY A   1       8.566  -6.728  26.817  0.00  0.00    +0.295 HD
ENDBRANCH  11  13
ENDBRANCH  10  11
ENDBRANCH   5  10
ENDBRANCH   4   7
ENDBRANCH   3   4
ENDBRANCH   2   3
ENDBRANCH   1   2
BRANCH   1  15
ATOM     15  C   UNK A   0       8.842  -2.466  23.451  0.00  0.00    +0.119 C 
BRANCH  15  16
ATOM     16  N   UNK A   0       9.467  -1.186  23.852  0.00  0.00    -0.303 N 
ATOM     17  H   UNK A   0       9.790  -1.272  24.821  0.00  0.00    +0.150 HD
ATOM     18  C   GLY A   1      10.017  -0.284  23.004  0.00  0.00    +0.259 C 
ATOM     19  O   GLY A   1      10.088  -0.365  21.778  0.00  0.00    -0.270 OA
BRANCH  18  20
ATOM     20  CA  GLY A   1      10.434   1.024  23.646  0.00  0.00    +0.225 C 
BRANCH  20  21
ATOM     21  N   GLY A   1      10.289   0.857  25.131  0.00  0.00    +0.225 N 
ATOM     22  H1  GLY A   1      10.088  -0.099  25.426  0.00  0.00    +0.200 HD
ATOM     23  H2  GLY A   1       9.575   1.505  25.486  0.00  0.00    +0.200 HD
ATOM     24  H3  GLY A   1      11.177   1.185  25.553  0.00  0.00    +0.200 HD
ENDBRANCH  20  21
ENDBRANCH  18  20
ENDBRANCH  15  16
BRANCH  15  25
ATOM     25  C   UNK A   0       8.907  -3.486  24.640  0.00  0.00    +0.062 C 
ATOM     26  O   ACE A   2       9.163  -4.668  24.243  0.00  0.00    -0.548 OA
ATOM     27  O   ACE A   2       8.690  -3.017  25.784  0.00  0.00    -0.548 OA
ENDBRANCH  15  25
ENDBRANCH   1  15
TORSDOF 12
ENDMDL
MODEL 9
REMARK VINA RESULT:      -5.1      1.904      2.313
REMARK  Name = 
REMARK  13 active torsions:
REMARK  status: ('A' for Active; 'I' for Inactive)
REMARK    1  A    between atoms: CB_1  and  CA_2
REMARK    2  A    between atoms: CA_2  and  N_4
REMARK    3  A    between atoms: CA_2  and  C_24
REMARK    4  A    between atoms: C_5  and  C_7
REMARK    5  A    between atoms: C_7  and  C_8
REMARK    6  A    between atoms: C_8  and  C_9
REMARK    7  A    between atoms: C_9  and  C_10
REMARK    8  A    between atoms: C_10  and  C_11
REMARK    9  A    between atoms: C_11  and  N_13
REMARK   10  A    between atoms: C_11  and  C_21
REMARK   11  A    between atoms: C_14  and  CA_16
REMARK   12  A    between atoms: CA_16  and  N_17
REMARK   13  A    between atoms: C_24  and  O_25
REMARK                            x       y       z     vdW  Elec       q    Type
REMARK                         _______ _______ _______ _____ _____    ______ ____
ROOT
ATOM      1  C   UNK A   0       7.401  -3.301  22.265  0.00  0.00    +0.028 C 
ENDROOT
BRANCH   1   2
ATOM      2  C   UNK A   0       6.754  -2.266  23.193  0.00  0.00    +0.003 C 
BRANCH   2   3
ATOM      3  C   UNK A   0       7.591  -1.011  23.409  0.00  0.00    +0.009 C 
BRANCH   3   4
ATOM      4  C   UNK A   0       8.962  -1.301  23.997  0.00  0.00    +0.096 C 
BRANCH   4   7
ATOM      5  N   GLY A   1       8.996   1.107  23.924  0.00  0.00    -0.303 N 
ATOM      6  H   GLY A   1       8.273   0.986  23.224  0.00  0.00    +0.149 HD
ATOM      7  C   UNK A   0       9.635  -0.011  24.388  0.00  0.00    +0.214 C 
ATOM      8  O   UNK A   0      10.630   0.061  25.106  0.00  0.00    -0.276 OA
BRANCH   5  10
ATOM      9  CB  GLY A   1       8.398   3.490  24.329  0.00  0.00    +0.040 C 
ATOM     10  CA  GLY A   1       9.505   2.457  24.144  0.00  0.00    +0.178 C 
BRANCH  10  11
ATOM     11  C   GLY A   1      10.519   2.894  23.074  0.00  0.00    +0.325 C 
ATOM     12  OXT GLY A   1      11.461   3.642  23.312  0.00  0.00    -0.249 OA
BRANCH  11  13
ATOM     13  O   GLY A   1      10.295   2.419  21.833  0.00  0.00    -0.479 OA
ATOM     14  H   GLY A   1      10.540   3.065  21.123  0.00  0.00    +0.295 HD
ENDBRANCH  11  13
ENDBRANCH  10  11
ENDBRANCH   5  10
ENDBRANCH   4   7
ENDBRANCH   3   4
ENDBRANCH   2   3
ENDBRANCH   1   2
BRANCH   1  15
ATOM     15  C   UNK A   0       7.424  -4.730  22.825  0.00  0.00    +0.119 C 
BRANCH  15  16
ATOM     16  N   UNK A   0       7.467  -4.691  24.303  0.00  0.00    -0.303 N 
ATOM     17  H   UNK A   0       6.529  -4.896  24.662  0.00  0.00    +0.150 HD
ATOM     18  C   GLY A   1       8.572  -4.900  25.060  0.00  0.00    +0.259 C 
ATOM     19  O   GLY A   1       9.709  -5.149  24.660  0.00  0.00    -0.270 OA
BRANCH  18  20
ATOM     20  CA  GLY A   1       8.391  -4.633  26.541  0.00  0.00    +0.225 C 
BRANCH  20  21
ATOM     21  N   GLY A   1       7.880  -5.900  27.163  0.00  0.00    +0.225 N 
ATOM     22  H1  GLY A   1       7.339  -5.759  28.016  0.00  0.00    +0.200 HD
ATOM     23  H2  GLY A   1       8.661  -6.546  27.330  0.00  0.00    +0.200 HD
ATOM     24  H3  GLY A   1       7.300  -6.368  26.442  0.00  0.00    +0.200 HD
ENDBRANCH  20  21
ENDBRANCH  18  20
ENDBRANCH  15  16
BRANCH  15  25
ATOM     25  C   UNK A   0       6.106  -5.432  22.349  0.00  0.00    +0.062 C 
ATOM     26  O   ACE A   2       6.186  -5.835  21.145  0.00  0.00    -0.548 OA
ATOM     27  O   ACE A   2       5.174  -5.488  23.189  0.00  0.00    -0.548 OA
ENDBRANCH  15  25
ENDBRANCH   1  15
TORSDOF 12
ENDMDL
