MODEL 1
REMARK VINA RESULT:      -2.8      0.000      0.000
REMARK  Name = 
REMARK  4 active torsions:
REMARK  status: ('A' for Active; 'I' for Inactive)
REMARK    1  A    between atoms: C_1  and  C_2
REMARK    2  A    between atoms: C_2  and  O_4
REMARK    3  A    between atoms: C_2  and  C_5
REMARK    4  A    between atoms: C_5  and  N_6
REMARK                            x       y       z     vdW  Elec       q    Type
REMARK                         _______ _______ _______ _____ _____    ______ ____
ROOT
ATOM      1  C   UNL     1       8.507  -4.539  26.603  0.00  0.00    +0.159 C 
ENDROOT
BRANCH   1   2
ATOM      2  N   UNL     1       7.961  -5.821  27.128  0.00  0.00    +0.220 N 
ATOM      3  H   UNL     1       6.969  -5.949  26.902  0.00  0.00    +0.199 HD
ATOM      4  H   UNL     1       8.054  -5.783  28.161  0.00  0.00    +0.199 HD
ATOM      5  H   UNL     1       8.487  -6.639  26.803  0.00  0.00    +0.199 HD
ENDBRANCH   1   2
BRANCH   1   7
ATOM      6  C   UNL     1       8.251  -5.014  24.114  0.00  0.00    +0.043 C 
ATOM      7  C   UNL     1       9.220  -4.822  25.271  0.00  0.00    +0.156 C 
BRANCH   7   8
ATOM      8  O   UNL     1       9.950  -6.040  25.455  0.00  0.00    -0.387 OA
ATOM      9  H   UNL     1       9.307  -6.727  25.735  0.00  0.00    +0.210 HD
ENDBRANCH   7   8
ENDBRANCH   1   7
TORSDOF 3
ENDMDL
MODEL 2
REMARK VINA RESULT:      -2.8      6.620      6.823
REMARK  Name = 
REMARK  4 active torsions:
REMARK  status: ('A' for Active; 'I' for Inactive)
REMARK    1  A    between atoms: C_1  and  C_2
REMARK    2  A    between atoms: C_2  and  O_4
REMARK    3  A    between atoms: C_2  and  C_5
REMARK    4  A    between atoms: C_5  and  N_6
REMARK                            x       y       z     vdW  Elec       q    Type
REMARK                         _______ _______ _______ _____ _____    ______ ____
ROOT
ATOM      1  C   UNL     1      10.046   0.761  22.246  0.00  0.00    +0.159 C 
ENDROOT
BRANCH   1   2
ATOM      2  N   UNL     1       9.667   1.978  21.475  0.00  0.00    +0.220 N 
ATOM      3  H   UNL     1       9.769   2.839  22.023  0.00  0.00    +0.199 HD
ATOM      4  H   UNL     1       8.665   1.873  21.226  0.00  0.00    +0.199 HD
ATOM      5  H   UNL     1      10.193   2.073  20.600  0.00  0.00    +0.199 HD
ENDBRANCH   1   2
BRANCH   1   7
ATOM      6  C   UNL     1       8.194  -0.950  22.606  0.00  0.00    +0.043 C 
ATOM      7  C   UNL     1       9.279  -0.439  21.669  0.00  0.00    +0.156 C 
BRANCH   7   8
ATOM      8  O   UNL     1      10.242  -1.482  21.483  0.00  0.00    -0.387 OA
ATOM      9  H   UNL     1       9.749  -2.295  21.239  0.00  0.00    +0.210 HD
ENDBRANCH   7   8
ENDBRANCH   1   7
TORSDOF 3
ENDMDL
MODEL 3
REMARK VINA RESULT:      -2.8      2.219      2.524
REMARK  Name = 
REMARK  4 active torsions:
REMARK  status: ('A' for Active; 'I' for Inactive)
REMARK    1  A    between atoms: C_1  and  C_2
REMARK    2  A    between atoms: C_2  and  O_4
REMARK    3  A    between atoms: C_2  and  C_5
REMARK    4  A    between atoms: C_5  and  N_6
REMARK                            x       y       z     vdW  Elec       q    Type
REMARK                         _______ _______ _______ _____ _____    ______ ____
ROOT
ATOM      1  C   UNL     1       9.189  -4.623  26.454  0.00  0.00    +0.159 C 
ENDROOT
BRANCH   1   2
ATOM      2  N   UNL     1       9.933  -5.617  25.632  0.00  0.00    +0.220 N 
ATOM      3  H   UNL     1      10.729  -5.201  25.135  0.00  0.00    +0.199 HD
ATOM      4  H   UNL     1       9.265  -5.977  24.924  0.00  0.00    +0.199 HD
ATOM      5  H   UNL     1      10.261  -6.419  26.180  0.00  0.00    +0.199 HD
ENDBRANCH   1   2
BRANCH   1   7
ATOM      6  C   UNL     1       6.769  -3.973  26.910  0.00  0.00    +0.043 C 
ATOM      7  C   UNL     1       7.738  -5.106  26.607  0.00  0.00    +0.156 C 
BRANCH   7   8
ATOM      8  O   UNL     1       7.730  -6.014  27.714  0.00  0.00    -0.387 OA
ATOM      9  H   UNL     1       7.138  -5.635  28.399  0.00  0.00    +0.210 HD
ENDBRANCH   7   8
ENDBRANCH   1   7
TORSDOF 3
ENDMDL
MODEL 4
REMARK VINA RESULT:      -2.7      7.275      7.489
REMARK  Name = 
REMARK  4 active torsions:
REMARK  status: ('A' for Active; 'I' for Inactive)
REMARK    1  A    between atoms: C_1  and  C_2
REMARK    2  A    between atoms: C_2  and  O_4
REMARK    3  A    between atoms: C_2  and  C_5
REMARK    4  A    between atoms: C_5  and  N_6
REMARK                            x       y       z     vdW  Elec       q    Type
REMARK                         _______ _______ _______ _____ _____    ______ ____
ROOT
ATOM      1  C   UNL     1       9.054  -0.002  21.954  0.00  0.00    +0.159 C 
ENDROOT
BRANCH   1   2
ATOM      2  N   UNL     1       9.760  -1.120  21.268  0.00  0.00    +0.220 N 
ATOM      3  H   UNL     1       9.257  -1.455  20.440  0.00  0.00    +0.199 HD
ATOM      4  H   UNL     1       9.814  -1.901  21.950  0.00  0.00    +0.199 HD
ATOM      5  H   UNL     1      10.721  -0.878  21.003  0.00  0.00    +0.199 HD
ENDBRANCH   1   2
BRANCH   1   7
ATOM      6  C   UNL     1      10.155   1.564  23.633  0.00  0.00    +0.043 C 
ATOM      7  C   UNL     1      10.054   1.143  22.174  0.00  0.00    +0.156 C 
BRANCH   7   8
ATOM      8  O   UNL     1       9.565   2.257  21.418  0.00  0.00    -0.387 OA
ATOM      9  H   UNL     1       9.635   2.019  20.468  0.00  0.00    +0.210 HD
ENDBRANCH   7   8
ENDBRANCH   1   7
TORSDOF 3
ENDMDL
MODEL 5
REMARK VINA RESULT:      -2.7      7.314      7.376
REMARK  Name = 
REMARK  4 active torsions:
REMARK  status: ('A' for Active; 'I' for Inactive)
REMARK    1  A    between atoms: C_1  and  C_2
REMARK    2  A    between atoms: C_2  and  O_4
REMARK    3  A    between atoms: C_2  and  C_5
REMARK    4  A    between atoms: C_5  and  N_6
REMARK                            x       y       z     vdW  Elec       q    Type
REMARK                         _______ _______ _______ _____ _____    ______ ____
ROOT
ATOM      1  C   UNL     1      10.594   1.810  23.885  0.00  0.00    +0.159 C 
ENDROOT
BRANCH   1   2
ATOM      2  N   UNL     1      10.096   0.955  24.998  0.00  0.00    +0.220 N 
ATOM      3  H   UNL     1       9.767   1.505  25.799  0.00  0.00    +0.199 HD
ATOM      4  H   UNL     1      10.899   0.378  25.312  0.00  0.00    +0.199 HD
ATOM      5  H   UNL     1       9.354   0.313  24.703  0.00  0.00    +0.199 HD
ENDBRANCH   1   2
BRANCH   1   7
ATOM      6  C   UNL     1       9.908   0.056  22.169  0.00  0.00    +0.043 C 
ATOM      7  C   UNL     1       9.768   1.501  22.626  0.00  0.00    +0.156 C 
BRANCH   7   8
ATOM      8  O   UNL     1      10.274   2.352  21.592  0.00  0.00    -0.387 OA
ATOM      9  H   UNL     1      10.668   1.774  20.903  0.00  0.00    +0.210 HD
ENDBRANCH   7   8
ENDBRANCH   1   7
TORSDOF 3
ENDMDL
MODEL 6
REMARK VINA RESULT:      -2.6     15.299     15.551
REMARK  Name = 
REMARK  4 active torsions:
REMARK  status: ('A' for Active; 'I' for Inactive)
REMARK    1  A    between atoms: C_1  and  C_2
REMARK    2  A    between atoms: C_2  and  O_4
REMARK    3  A    between atoms: C_2  and  C_5
REMARK    4  A    between atoms: C_5  and  N_6
REMARK                            x       y       z     vdW  Elec       q    Type
REMARK                         _______ _______ _______ _____ _____    ______ ____
ROOT
ATOM      1  C   UNL     1       1.553   5.233  16.659  0.00  0.00    +0.159 C 
ENDROOT
BRANCH   1   2
ATOM      2  N   UNL     1       2.230   4.188  17.477  0.00  0.00    +0.220 N 
ATOM      3  H   UNL     1       3.249   4.194  17.358  0.00  0.00    +0.199 HD
ATOM      4  H   UNL     1       1.873   3.272  17.144  0.00  0.00    +0.199 HD
ATOM      5  H   UNL     1       2.008   4.260  18.475  0.00  0.00    +0.199 HD
ENDBRANCH   1   2
BRANCH   1   7
ATOM      6  C   UNL     1       0.731   3.928  14.632  0.00  0.00    +0.043 C 
ATOM      7  C   UNL     1       1.766   4.902  15.173  0.00  0.00    +0.156 C 
BRANCH   7   8
ATOM      8  O   UNL     1       3.057   4.288  15.077  0.00  0.00    -0.387 OA
ATOM      9  H   UNL     1       2.917   3.351  14.822  0.00  0.00    +0.210 HD
ENDBRANCH   7   8
ENDBRANCH   1   7
TORSDOF 3
ENDMDL
MODEL 7
REMARK VINA RESULT:      -2.6      7.620      7.783
REMARK  Name = 
REMARK  4 active torsions:
REMARK  status: ('A' for Active; 'I' for Inactive)
REMARK    1  A    between atoms: C_1  and  C_2
REMARK    2  A    between atoms: C_2  and  O_4
REMARK    3  A    between atoms: C_2  and  C_5
REMARK    4  A    between atoms: C_5  and  N_6
REMARK                            x       y       z     vdW  Elec       q    Type
REMARK                         _______ _______ _______ _____ _____    ______ ____
ROOT
ATOM      1  C   UNL     1       9.438   1.508  22.789  0.00  0.00    +0.159 C 
ENDROOT
BRANCH   1   2
ATOM      2  N   UNL     1      10.156   2.251  21.717  0.00  0.00    +0.220 N 
ATOM      3  H   UNL     1       9.957   3.257  21.734  0.00  0.00    +0.199 HD
ATOM      4  H   UNL     1       9.817   1.871  20.813  0.00  0.00    +0.199 HD
ATOM      5  H   UNL     1      11.171   2.109  21.747  0.00  0.00    +0.199 HD
ENDBRANCH   1   2
BRANCH   1   7
ATOM      6  C   UNL     1      10.912   0.583  24.649  0.00  0.00    +0.043 C 
ATOM      7  C   UNL     1      10.139   1.786  24.128  0.00  0.00    +0.156 C 
BRANCH   7   8
ATOM      8  O   UNL     1       9.105   2.099  25.068  0.00  0.00    -0.387 OA
ATOM      9  H   UNL     1       8.871   3.044  24.941  0.00  0.00    +0.210 HD
ENDBRANCH   7   8
ENDBRANCH   1   7
TORSDOF 3
ENDMDL
MODEL 8
REMARK VINA RESULT:      -2.5      5.508      5.630
REMARK  Name = 
REMARK  4 active torsions:
REMARK  status: ('A' for Active; 'I' for Inactive)
REMARK    1  A    between atoms: C_1  and  C_2
REMARK    2  A    between atoms: C_2  and  O_4
REMARK    3  A    between atoms: C_2  and  C_5
REMARK    4  A    between atoms: C_5  and  N_6
REMARK                            x       y       z     vdW  Elec       q    Type
REMARK                         _______ _______ _______ _____ _____    ______ ____
ROOT
ATOM      1  C   UNL     1       9.775  -0.829  23.584  0.00  0.00    +0.159 C 
ENDROOT
BRANCH   1   2
ATOM      2  N   UNL     1       9.968  -2.300  23.709  0.00  0.00    +0.220 N 
ATOM      3  H   UNL     1      10.808  -2.543  24.245  0.00  0.00    +0.199 HD
ATOM      4  H   UNL     1      10.084  -2.668  22.746  0.00  0.00    +0.199 HD
ATOM      5  H   UNL     1       9.158  -2.773  24.122  0.00  0.00    +0.199 HD
ENDBRANCH   1   2
BRANCH   1   7
ATOM      6  C   UNL     1       9.195   0.627  21.576  0.00  0.00    +0.043 C 
ATOM      7  C   UNL     1      10.149  -0.408  22.155  0.00  0.00    +0.156 C 
BRANCH   7   8
ATOM      8  O   UNL     1      10.071  -1.591  21.352  0.00  0.00    -0.387 OA
ATOM      9  H   UNL     1      10.349  -1.347  20.443  0.00  0.00    +0.210 HD
ENDBRANCH   7   8
ENDBRANCH   1   7
TORSDOF 3
ENDMDL
MODEL 9
REMARK VINA RESULT:      -2.4      8.611      8.685
REMARK  Name = 
REMARK  4 active torsions:
REMARK  status: ('A' for Active; 'I' for Inactive)
REMARK    1  A    between atoms: C_1  and  C_2
REMARK    2  A    between atoms: C_2  and  O_4
REMARK    3  A    between atoms: C_2  and  C_5
REMARK    4  A    between atoms: C_5  and  N_6
REMARK                            x       y       z     vdW  Elec       q    Type
REMARK                         _______ _______ _______ _____ _____    ______ ____
ROOT
ATOM      1  C   UNL     1       9.705   3.528  23.617  0.00  0.00    +0.159 C 
ENDROOT
BRANCH   1   2
ATOM      2  N   UNL     1       8.694   4.364  22.913  0.00  0.00    +0.220 N 
ATOM      3  H   UNL     1       8.000   3.802  22.408  0.00  0.00    +0.199 HD
ATOM      4  H   UNL     1       9.212   4.936  22.219  0.00  0.00    +0.199 HD
ATOM      5  H   UNL     1       8.207   5.012  23.542  0.00  0.00    +0.199 HD
ENDBRANCH   1   2
BRANCH   1   7
ATOM      6  C   UNL     1      10.534   1.125  23.778  0.00  0.00    +0.043 C 
ATOM      7  C   UNL     1       9.690   2.121  22.998  0.00  0.00    +0.156 C 
BRANCH   7   8
ATOM      8  O   UNL     1      10.246   2.253  21.684  0.00  0.00    -0.387 OA
ATOM      9  H   UNL     1      10.097   3.178  21.395  0.00  0.00    +0.210 HD
ENDBRANCH   7   8
ENDBRANCH   1   7
TORSDOF 3
ENDMDL
